SANC00104_minRM1.pdb
     RDKit          3D

 20 21  0  0  0  0  0  0  0  0999 V2000
    0.2920    0.2330   -2.3880 O   0  0  0  0  0  0  0  0  0  0  0  0
    0.2940    0.0470   -1.1820 C   0  0  0  0  0  0  0  0  0  0  0  0
    1.5750   -0.1730   -0.4660 C   0  0  0  0  0  0  0  0  0  0  0  0
    2.0450   -1.4690   -0.2740 C   0  0  0  0  0  0  0  0  0  0  0  0
    1.2720   -2.5290   -0.6430 O   0  0  0  0  0  0  0  0  0  0  0  0
    3.2630   -1.7330    0.3500 C   0  0  0  0  0  0  0  0  0  0  0  0
    4.0160   -0.6440    0.7740 C   0  0  0  0  0  0  0  0  0  0  0  0
    5.1800   -0.9040    1.4370 O   0  0  0  0  0  0  0  0  0  0  0  0
    3.5860    0.6740    0.6160 C   0  0  0  0  0  0  0  0  0  0  0  0
    2.3560    0.8950   -0.0030 C   0  0  0  0  0  0  0  0  0  0  0  0
    1.8130    2.1230   -0.2060 O   0  0  0  0  0  0  0  0  0  0  0  0
    2.5710    3.2380    0.2010 C   0  0  0  0  0  0  0  0  0  0  0  0
   -0.9290   -0.0150   -0.3710 C   0  0  0  0  0  0  0  0  0  0  0  0
   -2.1430    0.0660   -0.9320 C   0  0  0  0  0  0  0  0  0  0  0  0
   -3.3800    0.0110   -0.1620 C   0  0  0  0  0  0  0  0  0  0  0  0
   -3.3600   -0.1130    1.2270 C   0  0  0  0  0  0  0  0  0  0  0  0
   -4.5480   -0.1530    1.9450 C   0  0  0  0  0  0  0  0  0  0  0  0
   -5.7660   -0.0800    1.2810 C   0  0  0  0  0  0  0  0  0  0  0  0
   -5.7930    0.0360   -0.1040 C   0  0  0  0  0  0  0  0  0  0  0  0
   -4.6070    0.0820   -0.8250 C   0  0  0  0  0  0  0  0  0  0  0  0
  1  2  2  0
  2  3  1  0
  2 13  1  0
  3  4  2  0
  3 10  1  0
  4  5  1  0
  4  6  1  0
  6  7  2  0
  7  9  1  0
  7  8  1  0
  9 10  2  0
 10 11  1  0
 11 12  1  0
 13 14  2  0
 14 15  1  0
 15 20  1  0
 15 16  2  0
 16 17  1  0
 17 18  2  0
 18 19  1  0
 19 20  2  0
M  END
>  <id>  (1) 
104

>  <scaffolds>  (1) 
['c1ccccc1', 'O=C(C=Cc1ccccc1)c1ccccc1', 'C(=Cc1ccccc1)Cc1ccccc1']

>  <name>  (1) 
Cardamonin

>  <formula>  (1) 
C16H14O4

>  <SMILES>  (1) 
O=C(c1c(O)cc(O)cc1OC)\C=C\c2ccccc2

>  <ChEMBL_id>  (1) 
CHEMBL378104

>  <ZINC_id>  (1) 
ZINC04716487

>  <PubChem_id>  (1) 
 641785

>  <DrugBank_id>  (1) 


>  <CAS_no>  (1) 
19309-14-9

>  <references>  (1) 
[{'journal': {'name': 'South African Journal of Botany', 'id': 1}, 'title': 'Isolation of antioxidant constituents from Combretum apiculatum subsp. apiculatum', 'year': 2012, 'start_page': 125, 'volume': 79, 'issue': None, 'doi': '10.1016/j.sajb.2011.10.004', 'isbn': '', 'despositor': {'code': 'rah', 'first_name': 'Rowan', 'last_name': 'Hatherley', 'id': 20}, 'refauthors_set': [{'author': {'first_name': '', 'initials': 'MA', 'last_name': 'Aderogba', 'id': 442}, 'first_author': True, 'id': 600}, {'author': {'first_name': '', 'initials': 'DT', 'last_name': 'Kgatle', 'id': 443}, 'first_author': None, 'id': 601}, {'author': {'first_name': '', 'initials': 'LJ', 'last_name': 'McGaw', 'id': 444}, 'first_author': None, 'id': 602}, {'author': {'first_name': '', 'initials': 'JN', 'last_name': 'Eloff', 'id': 445}, 'first_author': None, 'id': 603}], 'id': 224}]

>  <classifications>  (1) 
[{'classification': 'Chalcone', 'id': 760}, {'classification': 'Linear 1,3-diarylpropanoids (Classyfire)', 'id': 943}]

>  <molecular_mass>  (1) 
270.28

>  <warheads>  (1) 
ab_unsat_carbonyl:1

>  <n_warheads>  (1) 
1

>  <max_tier>  (1) 
1

>  <pains_flag>  (1) 


>  <MW>  (1) 
270.3

>  <cLogP>  (1) 
3.0

>  <HBD>  (1) 
2

>  <HBA>  (1) 
4

>  <TPSA>  (1) 
66.8

>  <ArRings>  (1) 
2

$$$$
SANC00108_minRM1.pdb
     RDKit          3D

 17 18  0  0  1  0  0  0  0  0999 V2000
    1.4440    0.1130   -0.4090 C   0  0  2  0  0  0  0  0  0  0  0  0
    2.1720   -0.9590    0.4240 C   0  0  1  0  0  0  0  0  0  0  0  0
    1.7900   -2.3710   -0.0340 C   0  0  0  0  0  0  0  0  0  0  0  0
    2.4850   -3.2390    0.8180 O   0  0  0  0  0  0  0  0  0  0  0  0
    3.6580   -0.6570    0.2060 C   0  0  0  0  0  0  0  0  0  0  0  0
    3.7120    0.8570   -0.0420 C   0  0  0  0  0  0  0  0  0  0  0  0
    2.4120    1.2260   -0.6740 N   0  0  0  0  0  0  0  0  0  0  0  0
    1.8170    2.4940   -0.1580 C   0  0  0  0  0  0  0  0  0  0  0  0
    0.3180    2.2370    0.0360 C   0  0  0  0  0  0  0  0  0  0  0  0
    0.2170    0.7300    0.3070 C   0  0  1  0  0  0  0  0  0  0  0  0
   -0.9170    0.1590   -0.3140 O   0  0  0  0  0  0  0  0  0  0  0  0
   -2.1420    0.5210    0.1510 C   0  0  0  0  0  0  0  0  0  0  0  0
   -2.2400    1.2810    1.0980 O   0  0  0  0  0  0  0  0  0  0  0  0
   -3.2370   -0.1050   -0.6080 C   0  0  0  0  0  0  0  0  0  0  0  0
   -3.0290   -0.2420   -2.0720 C   0  0  0  0  0  0  0  0  0  0  0  0
   -4.3520   -0.5090    0.0100 C   0  0  0  0  0  0  0  0  0  0  0  0
   -4.5810   -0.3810    1.4680 C   0  0  0  0  0  0  0  0  0  0  0  0
  1  7  1  1
  1 10  1  0
  1  2  1  0
  2  3  1  6
  2  5  1  0
  3  4  1  0
  5  6  1  0
  7  6  1  0
  7  8  1  0
  8  9  1  0
  9 10  1  0
 10 11  1  6
 11 12  1  0
 12 14  1  0
 12 13  2  0
 14 15  1  0
 14 16  2  0
 16 17  1  0
M  END
>  <id>  (2) 
108

>  <scaffolds>  (2) 
['C1CC2CCCN2C1', 'C1CCNC1']

>  <name>  (2) 
7-angelylhastanecine

>  <formula>  (2) 
C13H21NO3

>  <SMILES>  (2) 
[H][C@@]12[C@@H](CO)CCN1CC[C@H]2OC(=O)/C(C)=C\C

>  <ChEMBL_id>  (2) 


>  <ZINC_id>  (2) 


>  <PubChem_id>  (2) 


>  <DrugBank_id>  (2) 


>  <CAS_no>  (2) 
136173-31-4

>  <references>  (2) 
[{'journal': {'name': 'Thesis, Rhodes University', 'id': 2}, 'title': 'The Pyrrolizidine Alkaloids of Senecio Chrysocoma and Senecio Paniculatus', 'year': 1995, 'start_page': None, 'volume': None, 'issue': None, 'doi': None, 'isbn': None, 'despositor': {'code': 'rah', 'first_name': 'Rowan', 'last_name': 'Hatherley', 'id': 20}, 'refauthors_set': [{'author': {'first_name': 'Catherine', 'initials': 'CG', 'last_name': 'Logie', 'id': 446}, 'first_author': True, 'id': 604}], 'id': 225}]

>  <classifications>  (2) 
[{'classification': 'Alkaloid', 'id': 738}, {'classification': 'Pyrrolizidine', 'id': 818}, {'classification': 'Pyrrolizidines (Classyfire)', 'id': 944}]

>  <molecular_mass>  (2) 
239.31

>  <warheads>  (2) 
ab_unsat_carbonyl:1

>  <n_warheads>  (2) 
1

>  <max_tier>  (2) 
1

>  <pains_flag>  (2) 


>  <MW>  (2) 
239.3

>  <cLogP>  (2) 
0.95

>  <HBD>  (2) 
1

>  <HBA>  (2) 
4

>  <TPSA>  (2) 
49.8

>  <ArRings>  (2) 
0

$$$$
SANC00109_minRM1.pdb
     RDKit          3D

 17 18  0  0  1  0  0  0  0  0999 V2000
    2.2400   -0.3440    0.2840 C   0  0  1  0  0  0  0  0  0  0  0  0
    3.1340   -0.9040   -0.8540 C   0  0  2  0  0  0  0  0  0  0  0  0
    2.8870   -2.2750   -0.9210 O   0  0  0  0  0  0  0  0  0  0  0  0
    4.5710   -0.5760   -0.4070 C   0  0  0  0  0  0  0  0  0  0  0  0
    4.4390    0.6110    0.5590 C   0  0  0  0  0  0  0  0  0  0  0  0
    3.0030    0.7690    0.9320 N   0  0  0  0  0  0  0  0  0  0  0  0
    2.3830    2.0480    0.4730 C   0  0  0  0  0  0  0  0  0  0  0  0
    0.9080    1.7080    0.2300 C   0  0  0  0  0  0  0  0  0  0  0  0
    0.9040    0.2380   -0.2180 C   0  0  2  0  0  0  0  0  0  0  0  0
   -0.2760   -0.5430    0.3740 C   0  0  0  0  0  0  0  0  0  0  0  0
   -1.4250    0.0750   -0.1810 O   0  0  0  0  0  0  0  0  0  0  0  0
   -2.6370   -0.4500    0.1420 C   0  0  0  0  0  0  0  0  0  0  0  0
   -2.6920   -1.4050    0.9010 O   0  0  0  0  0  0  0  0  0  0  0  0
   -3.7550    0.2480   -0.5080 C   0  0  0  0  0  0  0  0  0  0  0  0
   -3.4240    1.0830   -1.6980 C   0  0  0  0  0  0  0  0  0  0  0  0
   -5.0090    0.1290   -0.0510 C   0  0  0  0  0  0  0  0  0  0  0  0
   -5.4080   -0.6860    1.1230 C   0  0  0  0  0  0  0  0  0  0  0  0
  1  2  1  0
  1  9  1  0
  1  6  1  6
  2  3  1  1
  2  4  1  0
  4  5  1  0
  6  5  1  0
  6  7  1  0
  7  8  1  0
  8  9  1  0
  9 10  1  1
 10 11  1  0
 11 12  1  0
 12 14  1  0
 12 13  2  0
 14 15  1  0
 14 16  2  0
 16 17  1  0
M  END
>  <id>  (3) 
109

>  <scaffolds>  (3) 
['C1CC2CCCN2C1', 'C1CCNC1']

>  <name>  (3) 
9-angelylhastanecine

>  <formula>  (3) 
C13H21NO3

>  <SMILES>  (3) 
[H][C@]12[C@H](O)CCN1CC[C@@H]2COC(=O)/C(C)=C\C

>  <ChEMBL_id>  (3) 


>  <ZINC_id>  (3) 


>  <PubChem_id>  (3) 


>  <DrugBank_id>  (3) 


>  <CAS_no>  (3) 
173010-19-0

>  <references>  (3) 
[{'journal': {'name': 'Thesis, Rhodes University', 'id': 2}, 'title': 'The Pyrrolizidine Alkaloids of Senecio Chrysocoma and Senecio Paniculatus', 'year': 1995, 'start_page': None, 'volume': None, 'issue': None, 'doi': None, 'isbn': None, 'despositor': {'code': 'rah', 'first_name': 'Rowan', 'last_name': 'Hatherley', 'id': 20}, 'refauthors_set': [{'author': {'first_name': 'Catherine', 'initials': 'CG', 'last_name': 'Logie', 'id': 446}, 'first_author': True, 'id': 604}], 'id': 225}]

>  <classifications>  (3) 
[{'classification': 'Alkaloid', 'id': 738}, {'classification': 'Pyrrolizidine', 'id': 818}, {'classification': 'Pyrrolizidines (Classyfire)', 'id': 944}]

>  <molecular_mass>  (3) 
239.31

>  <warheads>  (3) 
ab_unsat_carbonyl:1

>  <n_warheads>  (3) 
1

>  <max_tier>  (3) 
1

>  <pains_flag>  (3) 


>  <MW>  (3) 
239.3

>  <cLogP>  (3) 
0.95

>  <HBD>  (3) 
1

>  <HBA>  (3) 
4

>  <TPSA>  (3) 
49.8

>  <ArRings>  (3) 
0

$$$$
SANC00110_minRM1.pdb
     RDKit          3D

 17 18  0  0  1  0  0  0  0  0999 V2000
    1.9150    0.2660    0.8460 C   0  0  1  0  0  0  0  0  0  0  0  0
    1.9120   -1.2620    0.6970 C   0  0  1  0  0  0  0  0  0  0  0  0
    0.7290   -1.9550    1.3770 C   0  0  0  0  0  0  0  0  0  0  0  0
    1.1240   -3.2930    1.5250 O   0  0  0  0  0  0  0  0  0  0  0  0
    1.9830   -1.4910   -0.8130 C   0  0  0  0  0  0  0  0  0  0  0  0
    2.7750   -0.2840   -1.3400 C   0  0  0  0  0  0  0  0  0  0  0  0
    2.7060    0.7990   -0.3110 N   0  0  0  0  0  0  0  0  0  0  0  0
    2.0380    2.0560   -0.7640 C   0  0  0  0  0  0  0  0  0  0  0  0
    0.9360    2.3850    0.2560 C   0  0  0  0  0  0  0  0  0  0  0  0
    0.5630    1.0220    0.8610 C   0  0  1  0  0  0  0  0  0  0  0  0
   -0.3250    0.3570   -0.0140 O   0  0  0  0  0  0  0  0  0  0  0  0
   -1.6200    0.7750   -0.0320 C   0  0  0  0  0  0  0  0  0  0  0  0
   -1.9760    1.6820    0.7030 O   0  0  0  0  0  0  0  0  0  0  0  0
   -2.4560    0.0270   -0.9830 C   0  0  0  0  0  0  0  0  0  0  0  0
   -1.7730   -0.6070   -2.1420 C   0  0  0  0  0  0  0  0  0  0  0  0
   -3.7790   -0.0760   -0.8060 C   0  0  0  0  0  0  0  0  0  0  0  0
   -4.5260    0.5200    0.3260 C   0  0  0  0  0  0  0  0  0  0  0  0
  1  7  1  6
  1  2  1  0
  1 10  1  0
  2  5  1  0
  2  3  1  6
  3  4  1  0
  5  6  1  0
  7  6  1  0
  7  8  1  0
  8  9  1  0
  9 10  1  0
 10 11  1  6
 11 12  1  0
 12 14  1  0
 12 13  2  0
 14 15  1  0
 14 16  2  0
 16 17  1  0
M  END
>  <id>  (4) 
110

>  <scaffolds>  (4) 
['C1CC2CCCN2C1', 'C1CCNC1']

>  <name>  (4) 
7-angelylplatynecine

>  <formula>  (4) 
C13H21NO3

>  <SMILES>  (4) 
[H][C@]12[C@@H](CO)CCN1CC[C@H]2OC(=O)/C(C)=C\C

>  <ChEMBL_id>  (4) 


>  <ZINC_id>  (4) 


>  <PubChem_id>  (4) 


>  <DrugBank_id>  (4) 


>  <CAS_no>  (4) 
94054-32-7

>  <references>  (4) 
[{'journal': {'name': 'Thesis, Rhodes University', 'id': 2}, 'title': 'The Pyrrolizidine Alkaloids of Senecio Chrysocoma and Senecio Paniculatus', 'year': 1995, 'start_page': None, 'volume': None, 'issue': None, 'doi': None, 'isbn': None, 'despositor': {'code': 'rah', 'first_name': 'Rowan', 'last_name': 'Hatherley', 'id': 20}, 'refauthors_set': [{'author': {'first_name': 'Catherine', 'initials': 'CG', 'last_name': 'Logie', 'id': 446}, 'first_author': True, 'id': 604}], 'id': 225}]

>  <classifications>  (4) 
[{'classification': 'Alkaloid', 'id': 738}, {'classification': 'Pyrrolizidine', 'id': 818}, {'classification': 'Pyrrolizidines (Classyfire)', 'id': 944}]

>  <molecular_mass>  (4) 
239.31

>  <warheads>  (4) 
ab_unsat_carbonyl:1

>  <n_warheads>  (4) 
1

>  <max_tier>  (4) 
1

>  <pains_flag>  (4) 


>  <MW>  (4) 
239.3

>  <cLogP>  (4) 
0.95

>  <HBD>  (4) 
1

>  <HBA>  (4) 
4

>  <TPSA>  (4) 
49.8

>  <ArRings>  (4) 
0

$$$$
SANC00111_minRM1.pdb
     RDKit          3D

 17 18  0  0  1  0  0  0  0  0999 V2000
   -2.2760   -0.8030    0.1640 C   0  0  2  0  0  0  0  0  0  0  0  0
   -3.1090   -0.7850   -1.1440 C   0  0  2  0  0  0  0  0  0  0  0  0
   -2.2610   -0.4970   -2.2110 O   0  0  0  0  0  0  0  0  0  0  0  0
   -4.1690    0.3050   -0.9050 C   0  0  0  0  0  0  0  0  0  0  0  0
   -4.4150    0.2270    0.6080 C   0  0  0  0  0  0  0  0  0  0  0  0
   -3.1600   -0.2630    1.2550 N   0  0  0  0  0  0  0  0  0  0  0  0
   -2.3850    0.7990    1.9690 C   0  0  0  0  0  0  0  0  0  0  0  0
   -0.9170    0.5970    1.5750 C   0  0  0  0  0  0  0  0  0  0  0  0
   -0.9990    0.0620    0.1430 C   0  0  1  0  0  0  0  0  0  0  0  0
    0.2210   -0.7680   -0.2580 C   0  0  0  0  0  0  0  0  0  0  0  0
    1.3110    0.1340   -0.1620 O   0  0  0  0  0  0  0  0  0  0  0  0
    2.5450   -0.3380   -0.4790 C   0  0  0  0  0  0  0  0  0  0  0  0
    2.6850   -1.5010   -0.8270 O   0  0  0  0  0  0  0  0  0  0  0  0
    3.5940    0.6860   -0.3410 C   0  0  0  0  0  0  0  0  0  0  0  0
    3.2160    2.0750   -0.7110 C   0  0  0  0  0  0  0  0  0  0  0  0
    4.8200    0.3570    0.0820 C   0  0  0  0  0  0  0  0  0  0  0  0
    5.2310   -1.0200    0.4420 C   0  0  0  0  0  0  0  0  0  0  0  0
  1  2  1  0
  1  9  1  0
  1  6  1  1
  2  3  1  6
  2  4  1  0
  4  5  1  0
  6  5  1  0
  6  7  1  0
  7  8  1  0
  8  9  1  0
  9 10  1  1
 10 11  1  0
 11 12  1  0
 12 13  2  0
 12 14  1  0
 14 15  1  0
 14 16  2  0
 16 17  1  0
M  END
>  <id>  (5) 
111

>  <scaffolds>  (5) 
['C1CC2CCCN2C1', 'C1CCNC1']

>  <name>  (5) 
9-angelylplatynecine

>  <formula>  (5) 
C13H21NO3

>  <SMILES>  (5) 
[H][C@@]12[C@H](O)CCN1CCC2COC(=O)/C(C)=C\C

>  <ChEMBL_id>  (5) 


>  <ZINC_id>  (5) 


>  <PubChem_id>  (5) 


>  <DrugBank_id>  (5) 


>  <CAS_no>  (5) 
94132-25-9

>  <references>  (5) 
[{'journal': {'name': 'Thesis, Rhodes University', 'id': 2}, 'title': 'The Pyrrolizidine Alkaloids of Senecio Chrysocoma and Senecio Paniculatus', 'year': 1995, 'start_page': None, 'volume': None, 'issue': None, 'doi': None, 'isbn': None, 'despositor': {'code': 'rah', 'first_name': 'Rowan', 'last_name': 'Hatherley', 'id': 20}, 'refauthors_set': [{'author': {'first_name': 'Catherine', 'initials': 'CG', 'last_name': 'Logie', 'id': 446}, 'first_author': True, 'id': 604}], 'id': 225}]

>  <classifications>  (5) 
[{'classification': 'Alkaloid', 'id': 738}, {'classification': 'Pyrrolizidine', 'id': 818}, {'classification': 'Pyrrolizidines (Classyfire)', 'id': 944}]

>  <molecular_mass>  (5) 
239.31

>  <warheads>  (5) 
ab_unsat_carbonyl:1

>  <n_warheads>  (5) 
1

>  <max_tier>  (5) 
1

>  <pains_flag>  (5) 


>  <MW>  (5) 
239.3

>  <cLogP>  (5) 
0.95

>  <HBD>  (5) 
1

>  <HBA>  (5) 
4

>  <TPSA>  (5) 
49.8

>  <ArRings>  (5) 
0

$$$$
SANC00113_minRM1.pdb
     RDKit          3D

 16 17  0  0  1  0  0  0  0  0999 V2000
   -1.8210   -0.1080    0.9440 C   0  0  1  0  0  0  0  0  0  0  0  0
   -1.7050    1.3640    0.6970 C   0  0  0  0  0  0  0  0  0  0  0  0
   -0.9080    2.1880    1.3590 C   0  0  0  0  0  0  0  0  0  0  0  0
   -2.6540    1.7690   -0.3820 C   0  0  0  0  0  0  0  0  0  0  0  0
   -3.2250    0.4540   -0.9350 C   0  0  0  0  0  0  0  0  0  0  0  0
   -2.9560   -0.5990    0.0940 N   0  0  0  0  0  0  0  0  0  0  0  0
   -2.5110   -1.8960   -0.4890 C   0  0  0  0  0  0  0  0  0  0  0  0
   -0.9800   -1.8860   -0.5510 C   0  0  0  0  0  0  0  0  0  0  0  0
   -0.5560   -0.9480    0.5910 C   0  0  1  0  0  0  0  0  0  0  0  0
    0.4460   -0.0470    0.1750 O   0  0  0  0  0  0  0  0  0  0  0  0
    1.6710   -0.5550   -0.1220 C   0  0  0  0  0  0  0  0  0  0  0  0
    1.8740   -1.7540   -0.0340 O   0  0  0  0  0  0  0  0  0  0  0  0
    2.6260    0.4890   -0.5280 C   0  0  0  0  0  0  0  0  0  0  0  0
    2.0570    1.6770   -1.2170 C   0  0  0  0  0  0  0  0  0  0  0  0
    3.9340    0.3550   -0.2830 C   0  0  0  0  0  0  0  0  0  0  0  0
    4.5360   -0.8110    0.4050 C   0  0  0  0  0  0  0  0  0  0  0  0
  1  6  1  0
  1  9  1  0
  1  2  1  6
  2  4  1  0
  2  3  2  0
  4  5  1  0
  6  5  1  0
  6  7  1  0
  7  8  1  0
  8  9  1  0
  9 10  1  6
 10 11  1  0
 11 13  1  0
 11 12  2  0
 13 14  1  0
 13 15  2  0
 15 16  1  0
M  END
>  <id>  (6) 
113

>  <scaffolds>  (6) 
['C1CC2CCCN2C1', 'C=C1CCN2CCCC12', 'C1CCNC1']

>  <name>  (6) 
7[alpha]-angelyl-1-methylene-8[alpha]-pyrrolizidine

>  <formula>  (6) 
C13H19NO2

>  <SMILES>  (6) 
[H][C@]12C(=C)CCN1CCC2OC(=O)/C(C)=C\C

>  <ChEMBL_id>  (6) 


>  <ZINC_id>  (6) 


>  <PubChem_id>  (6) 


>  <DrugBank_id>  (6) 


>  <CAS_no>  (6) 
59518-70-6

>  <references>  (6) 
[{'journal': {'name': 'Thesis, Rhodes University', 'id': 2}, 'title': 'The Pyrrolizidine Alkaloids of Senecio Chrysocoma and Senecio Paniculatus', 'year': 1995, 'start_page': None, 'volume': None, 'issue': None, 'doi': None, 'isbn': None, 'despositor': {'code': 'rah', 'first_name': 'Rowan', 'last_name': 'Hatherley', 'id': 20}, 'refauthors_set': [{'author': {'first_name': 'Catherine', 'initials': 'CG', 'last_name': 'Logie', 'id': 446}, 'first_author': True, 'id': 604}], 'id': 225}]

>  <classifications>  (6) 
[{'classification': 'Alkaloid', 'id': 738}, {'classification': 'Pyrrolizidine', 'id': 818}, {'classification': 'Pyrrolizidines (Classyfire)', 'id': 944}]

>  <molecular_mass>  (6) 
221.29

>  <warheads>  (6) 
ab_unsat_carbonyl:1

>  <n_warheads>  (6) 
1

>  <max_tier>  (6) 
1

>  <pains_flag>  (6) 


>  <MW>  (6) 
221.3

>  <cLogP>  (6) 
1.9

>  <HBD>  (6) 
0

>  <HBA>  (6) 
3

>  <TPSA>  (6) 
29.5

>  <ArRings>  (6) 
0

$$$$
SANC00116_minRM1.pdb
     RDKit          3D

 24 25  0  0  1  0  0  0  0  0999 V2000
    1.8320   -1.6340    0.8050 C   0  0  1  0  0  0  0  0  0  0  0  0
    0.4270   -1.7050    0.1890 C   0  0  1  0  0  0  0  0  0  0  0  0
   -0.4660   -0.5170    0.5510 C   0  0  0  0  0  0  0  0  0  0  0  0
   -1.7840   -0.9900    0.3240 O   0  0  0  0  0  0  0  0  0  0  0  0
   -2.8190   -0.1680    0.6500 C   0  0  0  0  0  0  0  0  0  0  0  0
   -2.5810    0.9480    1.0860 O   0  0  0  0  0  0  0  0  0  0  0  0
   -4.1320   -0.7840    0.4090 C   0  0  0  0  0  0  0  0  0  0  0  0
   -5.2270   -0.0350    0.2330 C   0  0  0  0  0  0  0  0  0  0  0  0
   -5.2400    1.4460    0.2780 C   0  0  0  0  0  0  0  0  0  0  0  0
   -4.1330   -2.2860    0.3660 C   0  0  0  0  0  0  0  0  0  0  0  0
   -5.4590   -2.7280    0.4550 O   0  0  0  0  0  0  0  0  0  0  0  0
    0.6800   -1.8590   -1.3130 C   0  0  0  0  0  0  0  0  0  0  0  0
    2.0150   -2.6170   -1.3920 C   0  0  0  0  0  0  0  0  0  0  0  0
    2.7290   -2.4350   -0.0910 N   0  0  0  0  0  0  0  0  0  0  0  0
    4.0310   -1.7030   -0.1830 C   0  0  0  0  0  0  0  0  0  0  0  0
    3.9910   -0.5670    0.8490 C   0  0  0  0  0  0  0  0  0  0  0  0
    2.4940   -0.2470    0.9950 C   0  0  1  0  0  0  0  0  0  0  0  0
    2.0930    0.5800   -0.0760 O   0  0  0  0  0  0  0  0  0  0  0  0
    2.4240    1.8990   -0.0100 C   0  0  0  0  0  0  0  0  0  0  0  0
    3.0710    2.3170    0.9360 O   0  0  0  0  0  0  0  0  0  0  0  0
    1.9220    2.6730   -1.1550 C   0  0  0  0  0  0  0  0  0  0  0  0
    1.8000    1.9570   -2.4540 C   0  0  0  0  0  0  0  0  0  0  0  0
    1.5880    3.9620   -1.0190 C   0  0  0  0  0  0  0  0  0  0  0  0
    1.6800    4.7200    0.2490 C   0  0  0  0  0  0  0  0  0  0  0  0
  1 14  1  6
  1  2  1  0
  1 17  1  0
  2 12  1  0
  2  3  1  6
  3  4  1  0
  4  5  1  0
  5  7  1  0
  5  6  2  0
  7  8  2  0
  7 10  1  0
  8  9  1  0
 10 11  1  0
 12 13  1  0
 14 13  1  0
 14 15  1  0
 15 16  1  0
 16 17  1  0
 17 18  1  6
 18 19  1  0
 19 21  1  0
 19 20  2  0
 21 22  1  0
 21 23  2  0
 23 24  1  0
M  END
>  <id>  (7) 
116

>  <scaffolds>  (7) 
['C1CC2CCCN2C1', 'C1CCNC1']

>  <name>  (7) 
Sarracin

>  <formula>  (7) 
C18H27NO5

>  <SMILES>  (7) 
[H][C@]12[C@@H](COC(=O)\C(=C/C)CO)CCN1CCC2OC(=O)\C(C)=C/C

>  <ChEMBL_id>  (7) 
None

>  <ZINC_id>  (7) 
None

>  <PubChem_id>  (7) 
 5281746

>  <DrugBank_id>  (7) 


>  <CAS_no>  (7) 
2492-09-3

>  <references>  (7) 
[{'journal': {'name': 'Thesis, Rhodes University', 'id': 2}, 'title': 'The Pyrrolizidine Alkaloids of Senecio Chrysocoma and Senecio Paniculatus', 'year': 1995, 'start_page': None, 'volume': None, 'issue': None, 'doi': None, 'isbn': None, 'despositor': {'code': 'rah', 'first_name': 'Rowan', 'last_name': 'Hatherley', 'id': 20}, 'refauthors_set': [{'author': {'first_name': 'Catherine', 'initials': 'CG', 'last_name': 'Logie', 'id': 446}, 'first_author': True, 'id': 604}], 'id': 225}]

>  <classifications>  (7) 
[{'classification': 'Alkaloid', 'id': 738}, {'classification': 'Pyrrolizidine', 'id': 818}, {'classification': 'Pyrrolizidines (Classyfire)', 'id': 944}]

>  <molecular_mass>  (7) 
337.41

>  <warheads>  (7) 
ab_unsat_carbonyl:2

>  <n_warheads>  (7) 
2

>  <max_tier>  (7) 
1

>  <pains_flag>  (7) 


>  <MW>  (7) 
337.4

>  <cLogP>  (7) 
1.44

>  <HBD>  (7) 
1

>  <HBA>  (7) 
6

>  <TPSA>  (7) 
76.1

>  <ArRings>  (7) 
0

$$$$
SANC00117_minRM1.pdb
     RDKit          3D

 24 25  0  0  1  0  0  0  0  0999 V2000
   -1.7130    1.6670    0.7460 C   0  0  1  0  0  0  0  0  0  0  0  0
   -0.3010    1.6650    0.1360 C   0  0  1  0  0  0  0  0  0  0  0  0
    0.5540    0.4730    0.5660 C   0  0  0  0  0  0  0  0  0  0  0  0
    1.8870    0.8620    0.2640 O   0  0  0  0  0  0  0  0  0  0  0  0
    2.8690   -0.0290    0.5670 C   0  0  0  0  0  0  0  0  0  0  0  0
    2.5780   -1.1180    1.0410 O   0  0  0  0  0  0  0  0  0  0  0  0
    4.2180    0.4590    0.2430 C   0  0  0  0  0  0  0  0  0  0  0  0
    5.2080   -0.4340    0.1180 C   0  0  0  0  0  0  0  0  0  0  0  0
    6.6180   -0.0610   -0.1530 C   0  0  0  0  0  0  0  0  0  0  0  0
    4.3980    1.9440    0.1210 C   0  0  0  0  0  0  0  0  0  0  0  0
    4.0590    2.5330    1.3500 O   0  0  0  0  0  0  0  0  0  0  0  0
   -0.5400    1.7420   -1.3740 C   0  0  0  0  0  0  0  0  0  0  0  0
   -1.8550    2.5360   -1.5020 C   0  0  0  0  0  0  0  0  0  0  0  0
   -2.5730    2.4600   -0.1920 N   0  0  0  0  0  0  0  0  0  0  0  0
   -3.9070    1.7920   -0.2430 C   0  0  0  0  0  0  0  0  0  0  0  0
   -3.9140    0.7060    0.8430 C   0  0  0  0  0  0  0  0  0  0  0  0
   -2.4350    0.3190    0.9980 C   0  0  1  0  0  0  0  0  0  0  0  0
   -2.0770   -0.5730   -0.0360 O   0  0  0  0  0  0  0  0  0  0  0  0
   -2.4560   -1.8750    0.0980 C   0  0  0  0  0  0  0  0  0  0  0  0
   -3.0670   -2.2370    1.0900 O   0  0  0  0  0  0  0  0  0  0  0  0
   -2.0480   -2.7080   -1.0430 C   0  0  0  0  0  0  0  0  0  0  0  0
   -1.9940   -2.0410   -2.3700 C   0  0  0  0  0  0  0  0  0  0  0  0
   -1.7460   -4.0000   -0.8740 C   0  0  0  0  0  0  0  0  0  0  0  0
   -1.7690   -4.6880    0.4370 C   0  0  0  0  0  0  0  0  0  0  0  0
  1 14  1  6
  1  2  1  0
  1 17  1  0
  2 12  1  0
  2  3  1  6
  3  4  1  0
  4  5  1  0
  5  7  1  0
  5  6  2  0
  7  8  2  0
  7 10  1  0
  8  9  1  0
 10 11  1  0
 12 13  1  0
 14 13  1  0
 14 15  1  0
 15 16  1  0
 16 17  1  0
 17 18  1  6
 18 19  1  0
 19 21  1  0
 19 20  2  0
 21 22  1  0
 21 23  2  0
 23 24  1  0
M  END
>  <id>  (8) 
117

>  <scaffolds>  (8) 
['C1CC2CCCN2C1', 'C1CCNC1']

>  <name>  (8) 
Neosarracine

>  <formula>  (8) 
C18H27NO5

>  <SMILES>  (8) 
[H][C@]12[C@@H](COC(=O)/C(=C/C)CO)CCN1CC[C@H]2OC(=O)/C(C)=C\C

>  <ChEMBL_id>  (8) 
None

>  <ZINC_id>  (8) 
None

>  <PubChem_id>  (8) 
 5468383

>  <DrugBank_id>  (8) 


>  <CAS_no>  (8) 
136173-26-7

>  <references>  (8) 
[{'journal': {'name': 'Thesis, Rhodes University', 'id': 2}, 'title': 'The Pyrrolizidine Alkaloids of Senecio Chrysocoma and Senecio Paniculatus', 'year': 1995, 'start_page': None, 'volume': None, 'issue': None, 'doi': None, 'isbn': None, 'despositor': {'code': 'rah', 'first_name': 'Rowan', 'last_name': 'Hatherley', 'id': 20}, 'refauthors_set': [{'author': {'first_name': 'Catherine', 'initials': 'CG', 'last_name': 'Logie', 'id': 446}, 'first_author': True, 'id': 604}], 'id': 225}]

>  <classifications>  (8) 
[{'classification': 'Alkaloid', 'id': 738}, {'classification': 'Pyrrolizidine', 'id': 818}, {'classification': 'Pyrrolizidines (Classyfire)', 'id': 944}]

>  <molecular_mass>  (8) 
337.41

>  <warheads>  (8) 
ab_unsat_carbonyl:2

>  <n_warheads>  (8) 
2

>  <max_tier>  (8) 
1

>  <pains_flag>  (8) 


>  <MW>  (8) 
337.4

>  <cLogP>  (8) 
1.44

>  <HBD>  (8) 
1

>  <HBA>  (8) 
6

>  <TPSA>  (8) 
76.1

>  <ArRings>  (8) 
0

$$$$
SANC00118_minRM1.pdb
     RDKit          3D

 25 27  0  0  1  0  0  0  0  0999 V2000
   -2.8680    0.8690    0.7940 C   0  0  1  0  0  0  0  0  0  0  0  0
   -1.6980    1.7670    0.5050 C   0  0  0  0  0  0  0  0  0  0  0  0
   -1.9560    2.5860   -0.5170 C   0  0  0  0  0  0  0  0  0  0  0  0
   -3.3360    2.3470   -1.0560 C   0  0  0  0  0  0  0  0  0  0  0  0
   -3.9750    1.3650   -0.1090 N   0  0  0  0  0  0  0  0  0  0  0  0
   -4.5340    0.1680   -0.7940 C   0  0  0  0  0  0  0  0  0  0  0  0
   -3.4600   -0.9240   -0.7860 C   0  0  0  0  0  0  0  0  0  0  0  0
   -2.6560   -0.6450    0.4950 C   0  0  1  0  0  0  0  0  0  0  0  0
   -1.2740   -0.8690    0.3170 O   0  0  0  0  0  0  0  0  0  0  0  0
   -0.8760   -2.1340    0.0230 C   0  0  0  0  0  0  0  0  0  0  0  0
   -1.6930   -3.0370   -0.0240 O   0  0  0  0  0  0  0  0  0  0  0  0
    0.5750   -2.2600   -0.2090 C   0  0  0  0  0  0  0  0  0  0  0  0
    1.2270   -3.3200    0.2820 C   0  0  0  0  0  0  0  0  0  0  0  0
    0.5980   -4.3550    1.1360 C   0  0  0  0  0  0  0  0  0  0  0  0
    1.2220   -1.2360   -1.0830 C   0  0  0  0  0  0  0  0  0  0  0  0
    2.6160   -0.8100   -0.5800 C   0  0  1  0  0  0  0  0  0  0  0  0
    3.6860   -1.2550   -1.5710 C   0  0  0  0  0  0  0  0  0  0  0  0
    2.6880    0.7220   -0.3570 C   0  0  2  0  0  0  0  0  0  0  0  0
    2.3190    1.3360   -1.5420 O   0  0  0  0  0  0  0  0  0  0  0  0
    4.1080    1.1890    0.0770 C   0  0  0  0  0  0  0  0  0  0  0  0
    4.0400    2.5150    0.4960 O   0  0  0  0  0  0  0  0  0  0  0  0
    1.7350    1.0300    0.7950 C   0  0  0  0  0  0  0  0  0  0  0  0
    1.9530    0.7700    1.9660 O   0  0  0  0  0  0  0  0  0  0  0  0
    0.6030    1.6440    0.4020 O   0  0  0  0  0  0  0  0  0  0  0  0
   -0.4670    1.7330    1.3320 C   0  0  0  0  0  0  0  0  0  0  0  0
  1  5  1  6
  1  8  1  0
  1  2  1  0
  2  3  2  0
  2 25  1  0
  3  4  1  0
  5  4  1  0
  5  6  1  0
  6  7  1  0
  8  7  1  6
  8  9  1  0
  9 10  1  0
 10 12  1  0
 10 11  2  0
 12 15  1  0
 12 13  2  0
 13 14  1  0
 15 16  1  0
 16 17  1  6
 16 18  1  0
 18 19  1  6
 18 20  1  0
 18 22  1  0
 20 21  1  0
 22 24  1  0
 22 23  2  0
 24 25  1  0
M  END
>  <id>  (9) 
118

>  <scaffolds>  (9) 
['O=C1CCCCC(=O)OC2CCN3CC=C(CO1)C23', 'C=C1CCCC(=O)OCC2=CCN3CCC(OC1=O)C23', 'C1CCNC1']

>  <name>  (9) 
Retrorsine

>  <formula>  (9) 
C18H25NO6

>  <SMILES>  (9) 
[H][C@]12C3=CCN1CC[C@H]2OC(=O)/C(=C\C)C[C@@H](C)[C@](O)(CO)C(=O)OC3

>  <ChEMBL_id>  (9) 


>  <ZINC_id>  (9) 


>  <PubChem_id>  (9) 


>  <DrugBank_id>  (9) 


>  <CAS_no>  (9) 
480-54-6

>  <references>  (9) 
[{'journal': {'name': 'Thesis, Rhodes University', 'id': 2}, 'title': 'The Pyrrolizidine Alkaloids of Senecio Chrysocoma and Senecio Paniculatus', 'year': 1995, 'start_page': None, 'volume': None, 'issue': None, 'doi': None, 'isbn': None, 'despositor': {'code': 'rah', 'first_name': 'Rowan', 'last_name': 'Hatherley', 'id': 20}, 'refauthors_set': [{'author': {'first_name': 'Catherine', 'initials': 'CG', 'last_name': 'Logie', 'id': 446}, 'first_author': True, 'id': 604}], 'id': 225}, {'journal': {'name': 'Thesis, Rhodes University', 'id': 2}, 'title': 'Chemical Studies of Necic Acid Analogues', 'year': 1996, 'start_page': None, 'volume': None, 'issue': None, 'doi': '', 'isbn': '', 'despositor': {'code': 'rah', 'first_name': 'Rowan', 'last_name': 'Hatherley', 'id': 20}, 'refauthors_set': [{'author': {'first_name': 'Jeffry', 'initials': 'JJ', 'last_name': 'Guthrie-Strachan', 'id': 801}, 'first_author': True, 'id': 1282}], 'id': 371}]

>  <classifications>  (9) 
[{'classification': 'Alkaloid', 'id': 738}, {'classification': 'Pyrrolizidine', 'id': 818}, {'classification': 'Macrolides and analogues (Classyfire)', 'id': 945}]

>  <molecular_mass>  (9) 
351.39

>  <warheads>  (9) 
ab_unsat_carbonyl:1

>  <n_warheads>  (9) 
1

>  <max_tier>  (9) 
1

>  <pains_flag>  (9) 


>  <MW>  (9) 
351.4

>  <cLogP>  (9) 
0.17

>  <HBD>  (9) 
2

>  <HBA>  (9) 
7

>  <TPSA>  (9) 
96.3

>  <ArRings>  (9) 
0

$$$$
SANC00119_minRM1.pdb
     RDKit          3D

 26 30  0  0  1  0  0  0  0  0999 V2000
    3.2610   -1.9800   -0.9470 O   0  0  0  0  0  0  0  0  0  0  0  0
    2.8970   -1.0030   -0.3270 C   0  0  0  0  0  0  0  0  0  0  0  0
    2.7980    0.3450   -0.9060 C   0  0  0  0  0  0  0  0  0  0  0  0
    3.5900    0.5940   -2.6560 Br  0  0  0  0  0  0  0  0  0  0  0  0
    2.1990    1.3750   -0.3250 C   0  0  0  0  0  0  0  0  0  0  0  0
    1.5730    1.2670    1.0360 C   0  0  0  0  0  0  0  0  0  0  0  0
    1.8630   -0.0470    1.7100 C   0  0  0  0  0  0  0  0  0  0  0  0
    2.4900   -1.0340    1.0850 C   0  0  0  0  0  0  0  0  0  0  0  0
    2.8650   -2.6660    2.0570 Br  0  0  0  0  0  0  0  0  0  0  0  0
    2.1350    2.3790    1.9380 C   0  0  0  0  0  0  0  0  0  0  0  0
    1.4690    3.7190    1.6260 C   0  0  0  0  0  0  0  0  0  0  0  0
    0.0200    3.5990    1.7440 N   0  0  0  0  0  0  0  0  0  0  0  0
   -0.6130    2.4770    1.2540 C   0  0  0  0  0  0  0  0  0  0  0  0
    0.0910    1.3790    0.8530 C   0  0  0  0  0  0  0  0  0  0  0  0
   -0.5630    0.2620    0.1770 C   0  0  0  0  0  0  0  0  0  0  0  0
    0.0590   -0.7180   -0.4040 N   0  0  0  0  0  0  0  0  0  0  0  0
   -0.7300   -1.7240   -1.1290 C   0  0  0  0  0  0  0  0  0  0  0  0
   -2.2420   -1.9060   -0.8340 C   0  0  0  0  0  0  0  0  0  0  0  0
   -2.8410   -0.6590   -0.3390 C   0  0  0  0  0  0  0  0  0  0  0  0
   -4.1320   -0.1720   -0.1710 C   0  0  0  0  0  0  0  0  0  0  0  0
   -5.7740   -0.9860   -0.6220 Br  0  0  0  0  0  0  0  0  0  0  0  0
   -4.0920    1.0880    0.4150 N   0  0  0  0  0  0  0  0  0  0  0  0
   -2.7570    1.4100    0.6260 C   0  0  0  0  0  0  0  0  0  0  0  0
   -2.1200    2.5720    1.2090 C   0  0  0  0  0  0  0  0  0  0  0  0
   -2.7330    3.5380    1.6310 O   0  0  0  0  0  0  0  0  0  0  0  0
   -1.9980    0.3470    0.1660 C   0  0  0  0  0  0  0  0  0  0  0  0
  1  2  2  0
  2  3  1  0
  2  8  1  0
  3  4  1  0
  3  5  2  0
  6  5  1  0
  6 14  1  0
  6  7  1  0
  6 10  1  0
  7  8  2  0
  8  9  1  0
 10 11  1  0
 11 12  1  0
 12 13  1  0
 13 14  2  0
 13 24  1  0
 14 15  1  0
 15 16  2  0
 15 26  1  0
 16 17  1  0
 17 18  1  0
 18 19  1  0
 19 20  2  0
 19 26  1  0
 20 21  1  0
 20 22  1  0
 22 23  1  0
 23 26  2  0
 23 24  1  0
 24 25  2  0
M  END
>  <id>  (10) 
119

>  <scaffolds>  (10) 
[]

>  <name>  (10) 
14-bromo-discorhabdin C

>  <formula>  (10) 
C18H12Br3N3O2

>  <SMILES>  (10) 
O=C1C(Br)=CC2(C=C1Br)CCNc3c2c5=NCCc4c(Br)[nH]c(c3=O)c45

>  <ChEMBL_id>  (10) 


>  <ZINC_id>  (10) 


>  <PubChem_id>  (10) 


>  <DrugBank_id>  (10) 


>  <CAS_no>  (10) 
182928-53-6

>  <references>  (10) 
[{'journal': {'name': 'Thesis, Rhodes University', 'id': 2}, 'title': 'Pyrroloiminoquinone Metabolites From South African Latrunculid Sponges', 'year': 2003, 'start_page': None, 'volume': None, 'issue': None, 'doi': None, 'isbn': None, 'despositor': {'code': 'rah', 'first_name': 'Rowan', 'last_name': 'Hatherley', 'id': 20}, 'refauthors_set': [{'author': {'first_name': 'Edith ', 'initials': 'EM', 'last_name': 'Antunes', 'id': 447}, 'first_author': True, 'id': 605}], 'id': 226}, {'journal': {'name': 'Thesis, Rhodes University', 'id': 2}, 'title': 'Biologically Active Natural Products From South African Marine Invertebrates', 'year': 1996, 'start_page': None, 'volume': None, 'issue': None, 'doi': None, 'isbn': None, 'despositor': {'code': 'rah', 'first_name': 'Rowan', 'last_name': 'Hatherley', 'id': 20}, 'refauthors_set': [{'author': {'first_name': 'Gregory', 'initials': 'GJ', 'last_name': 'Hooper', 'id': 448}, 'first_author': True, 'id': 606}], 'id': 227}, {'journal': {'name': 'Tetrahedron Letters', 'id': 3}, 'title': 'New Alkaloids from a South African Latrunculid Sponge', 'year': 1996, 'start_page': 7135, 'volume': 37, 'issue': 39, 'doi': '10.1016/0040-4039(96)01560-2', 'isbn': '', 'despositor': {'code': 'rah', 'first_name': 'Rowan', 'last_name': 'Hatherley', 'id': 20}, 'refauthors_set': [{'author': {'first_name': 'Gregory', 'initials': 'GJ', 'last_name': 'Hooper', 'id': 448}, 'first_author': True, 'id': 607}, {'author': {'first_name': 'Michael', 'initials': 'MT', 'last_name': 'Davies-Coleman', 'id': 449}, 'first_author': None, 'id': 608}, {'author': {'first_name': 'Michelle', 'initials': 'M', 'last_name': 'Kelly-Borges', 'id': 450}, 'first_author': None, 'id': 609}, {'author': {'first_name': 'Philip', 'initials': 'PS', 'last_name': 'Coetzee', 'id': 451}, 'first_author': None, 'id': 610}], 'id': 228}]

>  <classifications>  (10) 
[{'classification': 'Alkaloid', 'id': 738}, {'classification': 'Discorhabdin', 'id': 770}, {'classification': 'Pyrroloiminoquinone', 'id': 820}, {'classification': 'Tsitsikammamine', 'id': 843}, {'classification': 'Phenanthrolines (Classyfire)', 'id': 946}]

>  <molecular_mass>  (10) 
542.02

>  <warheads>  (10) 
ab_unsat_carbonyl:3

>  <n_warheads>  (10) 
3

>  <max_tier>  (10) 
1

>  <pains_flag>  (10) 
quinone_A(370)

>  <MW>  (10) 
542.0

>  <cLogP>  (10) 
3.69

>  <HBD>  (10) 
2

>  <HBA>  (10) 
4

>  <TPSA>  (10) 
74.3

>  <ArRings>  (10) 
1

$$$$
SANC00128_minRM1.pdb
     RDKit          3D

 15 17  0  0  0  0  0  0  0  0999 V2000
   -2.0420   -2.7950    0.1490 C   0  0  0  0  0  0  0  0  0  0  0  0
   -1.7810   -1.3540    0.0870 N   0  0  0  0  0  0  0  0  0  0  0  0
   -2.8940   -0.4310    0.4470 C   0  0  0  0  0  0  0  0  0  0  0  0
   -2.7640    0.9950   -0.1340 C   0  0  0  0  0  0  0  0  0  0  0  0
   -1.3780    1.4710   -0.0310 C   0  0  0  0  0  0  0  0  0  0  0  0
   -0.7350    2.7030   -0.0650 C   0  0  0  0  0  0  0  0  0  0  0  0
    0.6650    2.5490   -0.0340 N   0  0  0  0  0  0  0  0  0  0  0  0
    0.8830    1.2120    0.0110 C   0  0  0  0  0  0  0  0  0  0  0  0
    2.1180    0.4640    0.0230 C   0  0  0  0  0  0  0  0  0  0  0  0
    3.2440    0.9220    0.0540 O   0  0  0  0  0  0  0  0  0  0  0  0
    1.9220   -1.0570   -0.0140 C   0  0  0  0  0  0  0  0  0  0  0  0
    3.0620   -1.7950   -0.0650 N   0  0  0  0  0  0  0  0  0  0  0  0
    0.6900   -1.6710    0.0090 C   0  0  0  0  0  0  0  0  0  0  0  0
   -0.5010   -0.8740    0.0510 C   0  0  0  0  0  0  0  0  0  0  0  0
   -0.3490    0.4980    0.0290 C   0  0  0  0  0  0  0  0  0  0  0  0
  1  2  1  0
  2 14  1  0
  2  3  1  0
  3  4  1  0
  4  5  1  0
  5  6  2  0
  5 15  1  0
  6  7  1  0
  7  8  2  0
  8  9  1  0
  8 15  1  0
  9 11  1  0
  9 10  2  0
 11 12  1  0
 11 13  2  0
 13 14  1  0
 14 15  2  0
M  END
>  <id>  (11) 
128

>  <scaffolds>  (11) 
[]

>  <name>  (11) 
Makaluvamine C

>  <formula>  (11) 
C11H12N3O

>  <SMILES>  (11) 
CN1CCc2cnc3c(=O)c(N)cc1c23

>  <ChEMBL_id>  (11) 


>  <ZINC_id>  (11) 


>  <PubChem_id>  (11) 


>  <DrugBank_id>  (11) 


>  <CAS_no>  (11) 
146555-80-8

>  <references>  (11) 
[{'journal': {'name': 'Thesis, Rhodes University', 'id': 2}, 'title': 'Pyrroloiminoquinone Metabolites From South African Latrunculid Sponges', 'year': 2003, 'start_page': None, 'volume': None, 'issue': None, 'doi': None, 'isbn': None, 'despositor': {'code': 'rah', 'first_name': 'Rowan', 'last_name': 'Hatherley', 'id': 20}, 'refauthors_set': [{'author': {'first_name': 'Edith ', 'initials': 'EM', 'last_name': 'Antunes', 'id': 447}, 'first_author': True, 'id': 605}], 'id': 226}]

>  <classifications>  (11) 
[{'classification': 'Alkaloid', 'id': 738}, {'classification': 'Makaluvamine', 'id': 793}, {'classification': 'Pyrroloiminoquinone', 'id': 820}, {'classification': 'Indoles and derivatives (Classyfire)', 'id': 947}]

>  <molecular_mass>  (11) 
202.23

>  <warheads>  (11) 
ab_unsat_carbonyl:1

>  <n_warheads>  (11) 
1

>  <max_tier>  (11) 
1

>  <pains_flag>  (11) 
quinone_D(2)

>  <MW>  (11) 
201.2

>  <cLogP>  (11) 
0.34

>  <HBD>  (11) 
1

>  <HBA>  (11) 
4

>  <TPSA>  (11) 
58.7

>  <ArRings>  (11) 
0

$$$$
SANC00131_minRM1.pdb
     RDKit          3D

 24 29  0  0  1  0  0  0  0  0999 V2000
   -2.9520    2.9830    1.1480 O   0  0  0  0  0  0  0  0  0  0  0  0
   -2.7680    1.9480    0.5330 C   0  0  0  0  0  0  0  0  0  0  0  0
   -2.5310    1.9260   -0.9230 C   0  0  0  0  0  0  0  0  0  0  0  0
   -1.9410    0.8830   -1.5060 C   0  0  0  0  0  0  0  0  0  0  0  0
   -1.5420   -0.3320   -0.7340 C   0  0  1  0  0  0  0  0  0  0  0  0
   -1.9610   -1.6120   -1.4870 C   0  0  0  0  0  0  0  0  0  0  0  0
   -1.6510   -2.7150   -0.4700 C   0  0  1  0  0  0  0  0  0  0  0  0
   -0.2240   -2.8140   -0.3100 N   0  0  0  0  0  0  0  0  0  0  0  0
    0.5150   -1.6330   -0.2390 C   0  0  0  0  0  0  0  0  0  0  0  0
   -0.0610   -0.4120   -0.4600 C   0  0  0  0  0  0  0  0  0  0  0  0
    0.7390    0.8120   -0.3980 C   0  0  0  0  0  0  0  0  0  0  0  0
    0.3140    2.0030   -0.6870 N   0  0  0  0  0  0  0  0  0  0  0  0
    1.2480    3.1340   -0.6290 C   0  0  0  0  0  0  0  0  0  0  0  0
    2.5750    3.0280    0.1620 C   0  0  0  0  0  0  0  0  0  0  0  0
    3.0260    1.6320    0.2560 C   0  0  0  0  0  0  0  0  0  0  0  0
    4.2280    1.0130    0.6100 C   0  0  0  0  0  0  0  0  0  0  0  0
    4.0320   -0.3680    0.5830 N   0  0  0  0  0  0  0  0  0  0  0  0
    2.7160   -0.6200    0.2220 C   0  0  0  0  0  0  0  0  0  0  0  0
    1.9730   -1.8500    0.0720 C   0  0  0  0  0  0  0  0  0  0  0  0
    2.4680   -2.9580    0.1980 O   0  0  0  0  0  0  0  0  0  0  0  0
    2.1020    0.6020    0.0150 C   0  0  0  0  0  0  0  0  0  0  0  0
   -2.4270   -2.0740    1.1050 S   0  0  0  0  0  0  0  0  0  0  0  0
   -2.2730   -0.4190    0.5780 C   0  0  0  0  0  0  0  0  0  0  0  0
   -2.8110    0.6270    1.1940 C   0  0  0  0  0  0  0  0  0  0  0  0
  1  2  2  0
  2  3  1  0
  2 24  1  0
  3  4  2  0
  5  4  1  6
  5  6  1  0
  5 10  1  0
  5 23  1  0
  6  7  1  0
  7  8  1  1
  7 22  1  0
  8  9  1  0
  9 10  2  0
  9 19  1  0
 10 11  1  0
 11 12  2  0
 11 21  1  0
 12 13  1  0
 13 14  1  0
 14 15  1  0
 15 21  1  0
 15 16  2  0
 16 17  1  0
 17 18  1  0
 18 21  2  0
 18 19  1  0
 19 20  2  0
 22 23  1  0
 23 24  2  0
M  END
>  <id>  (12) 
131

>  <scaffolds>  (12) 
[]

>  <name>  (12) 
11H-8,13a-Methanopyrrolo[4',3',2':4,5]quino[7,8-d][1,3]benzothiazepine-6,11(2H)-dione, 3,5,7,8-tetrahydro-, (8R,13aR)-

>  <formula>  (12) 
C18H13N3O2S

>  <SMILES>  (12) 
O=C6C=CC15CC(Nc2c1c4=NCCc3c[nH]c(c2=O)c34)SC5=C6

>  <ChEMBL_id>  (12) 


>  <ZINC_id>  (12) 


>  <PubChem_id>  (12) 


>  <DrugBank_id>  (12) 


>  <CAS_no>  (12) 
1082581-79-0

>  <references>  (12) 
[{'journal': {'name': 'Thesis, Rhodes University', 'id': 2}, 'title': 'Pyrroloiminoquinone Metabolites From South African Latrunculid Sponges', 'year': 2003, 'start_page': None, 'volume': None, 'issue': None, 'doi': None, 'isbn': None, 'despositor': {'code': 'rah', 'first_name': 'Rowan', 'last_name': 'Hatherley', 'id': 20}, 'refauthors_set': [{'author': {'first_name': 'Edith ', 'initials': 'EM', 'last_name': 'Antunes', 'id': 447}, 'first_author': True, 'id': 605}], 'id': 226}]

>  <classifications>  (12) 
[{'classification': 'Alkaloid', 'id': 738}, {'classification': 'Pyrroloiminoquinone', 'id': 820}, {'classification': 'Phenanthrolines (Classyfire)', 'id': 946}]

>  <molecular_mass>  (12) 
335.38

>  <warheads>  (12) 
ab_unsat_carbonyl:3

>  <n_warheads>  (12) 
3

>  <max_tier>  (12) 
1

>  <pains_flag>  (12) 
quinone_A(370)

>  <MW>  (12) 
335.4

>  <cLogP>  (12) 
1.89

>  <HBD>  (12) 
2

>  <HBA>  (12) 
5

>  <TPSA>  (12) 
74.3

>  <ArRings>  (12) 
1

$$$$
SANC00140_minRM1.pdb
     RDKit          3D

 25 30  0  0  1  0  0  0  0  0999 V2000
    3.6590    0.2810    1.8660 O   0  0  0  0  0  0  0  0  0  0  0  0
   -4.5390    1.3480   -0.8220 O   0  0  0  0  0  0  0  0  0  0  0  0
    3.8630   -1.1620   -0.9180 Br  0  0  0  0  0  0  0  0  0  0  0  0
    1.3790    0.1930   -0.8560 C   0  0  0  0  0  0  0  0  0  0  0  0
   -4.1980   -2.8060    0.4800 C   0  0  0  0  0  0  0  0  0  0  0  0
   -0.3350   -3.1260    0.5130 C   0  0  0  0  0  0  0  0  0  0  0  0
   -1.7330   -3.6420    0.9420 C   0  0  0  0  0  0  0  0  0  0  0  0
    2.0830    1.9770    1.2700 C   0  0  0  0  0  0  0  0  0  0  0  0
    0.2630    2.3180   -1.3720 C   0  0  0  0  0  0  0  0  0  0  0  0
   -0.1050   -1.7030    0.2360 N   0  0  0  0  0  0  0  0  0  0  0  0
   -2.0810    2.5900   -0.8480 N   0  0  0  0  0  0  0  0  0  0  0  0
   -4.6940   -1.5710    0.0610 N   0  0  0  0  0  0  0  0  0  0  0  0
   -0.2490    3.3740    1.0100 S   0  0  0  0  0  0  0  0  0  0  0  0
    2.5180    0.0250   -0.1970 C   0  0  0  0  0  0  0  0  0  0  0  0
    2.8490    0.6920    1.0630 C   0  0  0  0  0  0  0  0  0  0  0  0
   -2.8030   -2.7270    0.5210 C   0  0  0  0  0  0  0  0  0  0  0  0
   -2.1580    1.2310   -0.5560 C   0  0  0  0  0  0  0  0  0  0  0  0
   -1.0330    0.4890   -0.3300 C   0  0  0  0  0  0  0  0  0  0  0  0
   -3.5600    0.6770   -0.5430 C   0  0  0  0  0  0  0  0  0  0  0  0
   -1.1220   -0.9280    0.0180 C   0  0  0  0  0  0  0  0  0  0  0  0
   -3.6230   -0.7140   -0.1550 C   0  0  0  0  0  0  0  0  0  0  0  0
   -2.4680   -1.4250    0.1160 C   0  0  0  0  0  0  0  0  0  0  0  0
   -0.7950    3.2350   -0.7600 C   0  0  1  0  0  0  0  0  0  0  0  0
    0.6100    1.7450    1.0050 C   0  0  1  0  0  0  0  0  0  0  0  0
    0.3240    1.1400   -0.3790 C   0  0  1  0  0  0  0  0  0  0  0  0
  1 15  2  0
  2 19  2  0
  3 14  1  0
  4 14  2  0
  5 12  1  0
  5 16  2  0
  6 10  1  0
  6  7  1  0
  7 16  1  0
 24  8  1  6
  8 15  1  0
  9 23  1  0
  9 25  1  0
 10 20  2  0
 23 11  1  1
 11 17  1  0
 12 21  1  0
 13 23  1  0
 13 24  1  0
 14 15  1  0
 16 22  1  0
 17 19  1  0
 17 18  2  0
 18 25  1  0
 18 20  1  0
 19 21  1  0
 20 22  1  0
 21 22  2  0
 24 25  1  0
 25  4  1  6
M  END
>  <id>  (13) 
140

>  <scaffolds>  (13) 
['C1=CCCCC1', 'O=C1C=CCCC1']

>  <name>  (13) 
Discorhabdin A

>  <formula>  (13) 
C18H14BrN3O2S

>  <SMILES>  (13) 
[H][C@@]16CC(=O)C(Br)=C[C@]12C[C@H](Nc3c2c5=NCCc4c[nH]c(c3=O)c45)S6

>  <ChEMBL_id>  (13) 


>  <ZINC_id>  (13) 


>  <PubChem_id>  (13) 


>  <DrugBank_id>  (13) 


>  <CAS_no>  (13) 
112515-41-0

>  <references>  (13) 
[{'journal': {'name': 'Thesis, Rhodes University', 'id': 2}, 'title': 'Pyrroloiminoquinone Metabolites From South African Latrunculid Sponges', 'year': 2003, 'start_page': None, 'volume': None, 'issue': None, 'doi': None, 'isbn': None, 'despositor': {'code': 'rah', 'first_name': 'Rowan', 'last_name': 'Hatherley', 'id': 20}, 'refauthors_set': [{'author': {'first_name': 'Edith ', 'initials': 'EM', 'last_name': 'Antunes', 'id': 447}, 'first_author': True, 'id': 605}], 'id': 226}]

>  <classifications>  (13) 
[{'classification': 'Alkaloid', 'id': 738}, {'classification': 'Discorhabdin', 'id': 770}, {'classification': 'Pyrroloiminoquinone', 'id': 820}, {'classification': 'Phenanthrolines (Classyfire)', 'id': 946}]

>  <molecular_mass>  (13) 
416.29

>  <warheads>  (13) 
ab_unsat_carbonyl:2

>  <n_warheads>  (13) 
2

>  <max_tier>  (13) 
1

>  <pains_flag>  (13) 
quinone_A(370)

>  <MW>  (13) 
416.3

>  <cLogP>  (13) 
2.48

>  <HBD>  (13) 
2

>  <HBA>  (13) 
5

>  <TPSA>  (13) 
74.3

>  <ArRings>  (13) 
1

$$$$
SANC00146_minRM1.pdb
     RDKit          3D

 22 25  0  0  1  0  0  0  0  0999 V2000
   -5.4480    1.8930    0.3640 C   0  0  0  0  0  0  0  0  0  0  0  0
   -4.9910    0.7500   -0.1340 C   0  0  0  0  0  0  0  0  0  0  0  0
   -3.9070   -0.0320    0.5280 C   0  0  1  0  0  0  0  0  0  0  0  0
   -4.0470   -1.5590    0.3390 C   0  0  0  0  0  0  0  0  0  0  0  0
   -2.6250   -2.1170    0.1400 C   0  0  0  0  0  0  0  0  0  0  0  0
   -1.7100   -0.9370    0.4550 C   0  0  1  0  0  0  0  0  0  0  0  0
   -0.3110   -0.9320   -0.1470 C   0  0  2  0  0  0  0  0  0  0  0  0
    0.4650   -2.1750    0.2800 C   0  0  0  0  0  0  0  0  0  0  0  0
    1.8900   -2.1190   -0.2570 C   0  0  0  0  0  0  0  0  0  0  0  0
    2.5890   -0.8590    0.2450 C   0  0  1  0  0  0  0  0  0  0  0  0
    4.0340   -0.8180   -0.2430 C   0  0  0  0  0  0  0  0  0  0  0  0
    4.7190    0.4610    0.1640 C   0  0  0  0  0  0  0  0  0  0  0  0
    5.9360    0.5400    0.1840 O   0  0  0  0  0  0  0  0  0  0  0  0
    3.8740    1.6140    0.5200 C   0  0  0  0  0  0  0  0  0  0  0  0
    2.5520    1.5950    0.3600 C   0  0  0  0  0  0  0  0  0  0  0  0
    1.8350    0.4040   -0.2050 C   0  0  1  0  0  0  0  0  0  0  0  0
    1.8430    0.5560   -1.7260 C   0  0  0  0  0  0  0  0  0  0  0  0
    0.3980    0.3380    0.3530 C   0  0  1  0  0  0  0  0  0  0  0  0
   -0.3970    1.5990   -0.0100 C   0  0  0  0  0  0  0  0  0  0  0  0
   -1.8460    1.5360    0.4710 C   0  0  0  0  0  0  0  0  0  0  0  0
   -2.5120    0.2730   -0.0570 C   0  0  2  0  0  0  0  0  0  0  0  0
   -2.5930    0.3170   -1.5800 C   0  0  0  0  0  0  0  0  0  0  0  0
  1  2  2  0
  3  2  1  6
  3 21  1  0
  3  4  1  0
  4  5  1  0
  6  5  1  6
  6  7  1  0
  6 21  1  0
  7  8  1  1
  7 18  1  0
  8  9  1  0
 10  9  1  6
 10 11  1  0
 10 16  1  0
 11 12  1  0
 12 13  2  0
 12 14  1  0
 14 15  2  0
 15 16  1  0
 16 17  1  6
 16 18  1  0
 18 19  1  6
 19 20  1  0
 20 21  1  0
 21 22  1  6
M  END
>  <id>  (14) 
146

>  <scaffolds>  (14) 
['C1=CC2CCCCC2CC1', 'C1=CCCCC1', 'C1CCC(C2CCCC2)CC1', 'C1CCCCC1', 'O=C1C=CCCC1', 'O=C1C=CC2C(CCC3C4CCCC4CCC23)C1', 'C1=CC2C(CC1)CCC1C3CCCC3CCC21', 'C1CCC2CCCCC2C1']

>  <name>  (14) 
5[alpha]-Pregna-1,20-dien-3-one

>  <formula>  (14) 
C21H30O

>  <SMILES>  (14) 
C=CC3CCC4C2CCC1CC(=O)C=C[C@]1(C)C2CC[C@]34C

>  <ChEMBL_id>  (14) 


>  <ZINC_id>  (14) 


>  <PubChem_id>  (14) 


>  <DrugBank_id>  (14) 


>  <CAS_no>  (14) 
65754-62-3

>  <references>  (14) 
[{'journal': {'name': 'Thesis, Rhodes University', 'id': 2}, 'title': 'Biologically Active Natural Products From South African Marine Invertebrates', 'year': 1996, 'start_page': None, 'volume': None, 'issue': None, 'doi': None, 'isbn': None, 'despositor': {'code': 'rah', 'first_name': 'Rowan', 'last_name': 'Hatherley', 'id': 20}, 'refauthors_set': [{'author': {'first_name': 'Gregory', 'initials': 'GJ', 'last_name': 'Hooper', 'id': 448}, 'first_author': True, 'id': 606}], 'id': 227}, {'journal': {'name': 'Tetrahedron', 'id': 4}, 'title': 'New Metabolites from the South African Soft Coral Capnella thyrsoidea', 'year': 1995, 'start_page': 9973, 'volume': 51, 'issue': 36, 'doi': '10.1016/0040-4020(95)00570-X', 'isbn': '', 'despositor': {'code': 'rah', 'first_name': 'Rowan', 'last_name': 'Hatherley', 'id': 20}, 'refauthors_set': [{'author': {'first_name': 'Gregory', 'initials': 'GJ', 'last_name': 'Hooper', 'id': 448}, 'first_author': True, 'id': 611}, {'author': {'first_name': 'Michael', 'initials': 'MT', 'last_name': 'Davies-Coleman', 'id': 449}, 'first_author': None, 'id': 612}], 'id': 229}]

>  <classifications>  (14) 
[{'classification': 'Pregnadiene', 'id': 812}, {'classification': 'Steroid', 'id': 835}, {'classification': 'Steroids and steroid derivatives (Classyfire)', 'id': 942}]

>  <molecular_mass>  (14) 
298.46

>  <warheads>  (14) 
ab_unsat_carbonyl:1

>  <n_warheads>  (14) 
1

>  <max_tier>  (14) 
1

>  <pains_flag>  (14) 


>  <MW>  (14) 
298.5

>  <cLogP>  (14) 
5.18

>  <HBD>  (14) 
0

>  <HBA>  (14) 
1

>  <TPSA>  (14) 
17.1

>  <ArRings>  (14) 
0

$$$$
SANC00147_minRM1.pdb
     RDKit          3D

 26 29  0  0  1  0  0  0  0  0999 V2000
   -4.0730    3.3060    0.6580 C   0  0  0  0  0  0  0  0  0  0  0  0
   -3.7180    2.1640    0.0800 C   0  0  0  0  0  0  0  0  0  0  0  0
   -2.7970    1.1950    0.7380 C   0  0  1  0  0  0  0  0  0  0  0  0
   -3.2770   -0.2870    0.7580 C   0  0  1  0  0  0  0  0  0  0  0  0
   -4.2430   -0.4560   -0.2570 O   0  0  0  0  0  0  0  0  0  0  0  0
   -4.8590   -1.6620   -0.3490 C   0  0  0  0  0  0  0  0  0  0  0  0
   -5.8790   -1.6770   -1.4410 C   0  0  0  0  0  0  0  0  0  0  0  0
   -4.5720   -2.5720    0.4060 O   0  0  0  0  0  0  0  0  0  0  0  0
   -2.0300   -1.1660    0.4850 C   0  0  0  0  0  0  0  0  0  0  0  0
   -0.8650   -0.1970    0.6530 C   0  0  1  0  0  0  0  0  0  0  0  0
    0.4630   -0.5590   -0.0010 C   0  0  2  0  0  0  0  0  0  0  0  0
    0.9690   -1.9020    0.5170 C   0  0  0  0  0  0  0  0  0  0  0  0
    2.3350   -2.2190   -0.0790 C   0  0  0  0  0  0  0  0  0  0  0  0
    3.3260   -1.1080    0.2580 C   0  0  1  0  0  0  0  0  0  0  0  0
    4.7070   -1.4360   -0.3020 C   0  0  0  0  0  0  0  0  0  0  0  0
    5.6820   -0.3110   -0.0700 C   0  0  0  0  0  0  0  0  0  0  0  0
    6.8840   -0.5010   -0.1460 O   0  0  0  0  0  0  0  0  0  0  0  0
    5.1390    1.0240    0.2330 C   0  0  0  0  0  0  0  0  0  0  0  0
    3.8370    1.2900    0.1470 C   0  0  0  0  0  0  0  0  0  0  0  0
    2.8410    0.2510   -0.2770 C   0  0  1  0  0  0  0  0  0  0  0  0
    2.7900    0.2780   -1.8030 C   0  0  0  0  0  0  0  0  0  0  0  0
    1.4620    0.5560    0.3460 C   0  0  1  0  0  0  0  0  0  0  0  0
    0.9450    1.9290   -0.1020 C   0  0  0  0  0  0  0  0  0  0  0  0
   -0.4500    2.2350    0.4420 C   0  0  0  0  0  0  0  0  0  0  0  0
   -1.4110    1.1160    0.0620 C   0  0  2  0  0  0  0  0  0  0  0  0
   -1.5660    1.0510   -1.4540 C   0  0  0  0  0  0  0  0  0  0  0  0
  1  2  2  0
  3  2  1  6
  3 25  1  0
  3  4  1  0
  4  5  1  6
  4  9  1  0
  5  6  1  0
  6  7  1  0
  6  8  2  0
 10  9  1  6
 10 11  1  0
 10 25  1  0
 11 22  1  0
 11 12  1  1
 12 13  1  0
 14 13  1  6
 14 15  1  0
 14 20  1  0
 15 16  1  0
 16 17  2  0
 16 18  1  0
 18 19  2  0
 19 20  1  0
 20 21  1  6
 20 22  1  0
 22 23  1  6
 23 24  1  0
 24 25  1  0
 25 26  1  6
M  END
>  <id>  (15) 
147

>  <scaffolds>  (15) 
['C1=CC2CCCCC2CC1', 'C1=CCCCC1', 'C1CCC(C2CCCC2)CC1', 'C1CCCCC1', 'O=C1C=CCCC1', 'O=C1C=CC2C(CCC3C4CCCC4CCC23)C1', 'C1=CC2C(CC1)CCC1C3CCCC3CCC21', 'C1CCC2CCCCC2C1']

>  <name>  (15) 
16[beta]-Hydroxy-5[alpha]-pregna-1,20-clien-3-one 16-acetate

>  <formula>  (15) 
C23H32O3

>  <SMILES>  (15) 
C=C[C@H]3[C@@H](OC(C)=O)CC4C2CCC1CC(=O)C=C[C@]1(C)C2CC[C@]34C

>  <ChEMBL_id>  (15) 


>  <ZINC_id>  (15) 


>  <PubChem_id>  (15) 


>  <DrugBank_id>  (15) 


>  <CAS_no>  (15) 
168004-85-1

>  <references>  (15) 
[{'journal': {'name': 'Thesis, Rhodes University', 'id': 2}, 'title': 'Biologically Active Natural Products From South African Marine Invertebrates', 'year': 1996, 'start_page': None, 'volume': None, 'issue': None, 'doi': None, 'isbn': None, 'despositor': {'code': 'rah', 'first_name': 'Rowan', 'last_name': 'Hatherley', 'id': 20}, 'refauthors_set': [{'author': {'first_name': 'Gregory', 'initials': 'GJ', 'last_name': 'Hooper', 'id': 448}, 'first_author': True, 'id': 606}], 'id': 227}, {'journal': {'name': 'Tetrahedron', 'id': 4}, 'title': 'New Metabolites from the South African Soft Coral Capnella thyrsoidea', 'year': 1995, 'start_page': 9973, 'volume': 51, 'issue': 36, 'doi': '10.1016/0040-4020(95)00570-X', 'isbn': '', 'despositor': {'code': 'rah', 'first_name': 'Rowan', 'last_name': 'Hatherley', 'id': 20}, 'refauthors_set': [{'author': {'first_name': 'Gregory', 'initials': 'GJ', 'last_name': 'Hooper', 'id': 448}, 'first_author': True, 'id': 611}, {'author': {'first_name': 'Michael', 'initials': 'MT', 'last_name': 'Davies-Coleman', 'id': 449}, 'first_author': None, 'id': 612}], 'id': 229}]

>  <classifications>  (15) 
[{'classification': 'Pregnadiene', 'id': 812}, {'classification': 'Steroid', 'id': 835}, {'classification': 'Steroids and steroid derivatives (Classyfire)', 'id': 942}]

>  <molecular_mass>  (15) 
356.5

>  <warheads>  (15) 
ab_unsat_carbonyl:1

>  <n_warheads>  (15) 
1

>  <max_tier>  (15) 
1

>  <pains_flag>  (15) 


>  <MW>  (15) 
356.5

>  <cLogP>  (15) 
4.72

>  <HBD>  (15) 
0

>  <HBA>  (15) 
3

>  <TPSA>  (15) 
43.4

>  <ArRings>  (15) 
0

$$$$
SANC00151_minRM1.pdb
     RDKit          3D

 31 32  0  0  1  0  0  0  0  0999 V2000
   -0.0220    0.9770   -0.8270 C   0  0  1  0  0  0  0  0  0  0  0  0
   -0.7930   -0.2480   -1.3250 C   0  0  0  0  0  0  0  0  0  0  0  0
   -1.1400   -1.2680   -0.2440 C   0  0  0  0  0  0  0  0  0  0  0  0
   -2.6260   -1.3050    0.2200 C   0  0  2  0  0  0  0  0  0  0  0  0
   -2.7640   -0.8790    1.6820 C   0  0  0  0  0  0  0  0  0  0  0  0
   -2.9250   -2.6970    0.1440 O   0  0  0  0  0  0  0  0  0  0  0  0
   -4.1520   -3.1700    0.4400 C   0  0  0  0  0  0  0  0  0  0  0  0
   -4.1990   -4.6600    0.3100 C   0  0  0  0  0  0  0  0  0  0  0  0
   -5.0690   -2.4370    0.7600 O   0  0  0  0  0  0  0  0  0  0  0  0
   -3.5640   -0.5740   -0.6940 C   0  0  0  0  0  0  0  0  0  0  0  0
   -3.8990    0.7130   -0.6970 C   0  0  0  0  0  0  0  0  0  0  0  0
   -3.3990    1.8070    0.1810 C   0  0  0  0  0  0  0  0  0  0  0  0
   -2.1050    2.3070   -0.3830 C   0  0  0  0  0  0  0  0  0  0  0  0
   -2.1070    3.1750   -1.3870 C   0  0  0  0  0  0  0  0  0  0  0  0
   -0.8550    1.7430    0.2090 C   0  0  2  0  0  0  0  0  0  0  0  0
   -0.0000    2.8430    0.8660 C   0  0  2  0  0  0  0  0  0  0  0  0
    0.5130    3.6650   -0.1510 O   0  0  0  0  0  0  0  0  0  0  0  0
    0.9860    4.9060    0.1660 C   0  0  0  0  0  0  0  0  0  0  0  0
    1.6100    5.5720   -1.0140 C   0  0  0  0  0  0  0  0  0  0  0  0
    0.8670    5.3510    1.2910 O   0  0  0  0  0  0  0  0  0  0  0  0
    1.1340    2.3050    1.4940 O   0  0  0  0  0  0  0  0  0  0  0  0
    1.7880    1.3170    0.8320 C   0  0  0  0  0  0  0  0  0  0  0  0
    1.3050    0.6490   -0.2260 C   0  0  0  0  0  0  0  0  0  0  0  0
    2.1590   -0.3250   -0.9290 C   0  0  0  0  0  0  0  0  0  0  0  0
    2.1710   -0.3900   -2.1430 O   0  0  0  0  0  0  0  0  0  0  0  0
    3.0280   -1.1890   -0.1150 C   0  0  0  0  0  0  0  0  0  0  0  0
    3.6560   -2.2310   -0.6560 C   0  0  0  0  0  0  0  0  0  0  0  0
    4.6140   -3.1160    0.0980 C   0  0  0  0  0  0  0  0  0  0  0  0
    4.2960   -4.5900   -0.1860 C   0  0  0  0  0  0  0  0  0  0  0  0
    6.0380   -2.7680   -0.3530 C   0  0  0  0  0  0  0  0  0  0  0  0
    4.6010   -2.8750    1.4740 O   0  0  0  0  0  0  0  0  0  0  0  0
  1  2  1  1
  1 23  1  0
  1 15  1  0
  2  3  1  0
  3  4  1  0
  4 10  1  0
  4  6  1  0
  4  5  1  1
  6  7  1  0
  7  8  1  0
  7  9  2  0
 10 11  2  0
 11 12  1  0
 12 13  1  0
 13 14  2  0
 15 13  1  6
 15 16  1  0
 16 17  1  6
 16 21  1  0
 17 18  1  0
 18 19  1  0
 18 20  2  0
 21 22  1  0
 22 23  2  0
 23 24  1  0
 24 25  2  0
 24 26  1  0
 26 27  2  0
 27 28  1  0
 28 30  1  0
 28 29  1  0
 28 31  1  0
M  END
>  <id>  (16) 
151

>  <scaffolds>  (16) 
['C=C1CC=CCCCC2C=COCC12']

>  <name>  (16) 
Tsitsixenicin C

>  <formula>  (16) 
C24H32O7

>  <SMILES>  (16) 
[H][C@]12CC[C@](C)(OC(C)=O)C=CCC(=C)[C@]1([H])[C@H](OC(C)=O)OC=C2C(=O)/C=C/C(C)(C)O

>  <ChEMBL_id>  (16) 


>  <ZINC_id>  (16) 


>  <PubChem_id>  (16) 


>  <DrugBank_id>  (16) 


>  <CAS_no>  (16) 
168075-13-6

>  <references>  (16) 
[{'journal': {'name': 'Thesis, Rhodes University', 'id': 2}, 'title': 'Biologically Active Natural Products From South African Marine Invertebrates', 'year': 1996, 'start_page': None, 'volume': None, 'issue': None, 'doi': None, 'isbn': None, 'despositor': {'code': 'rah', 'first_name': 'Rowan', 'last_name': 'Hatherley', 'id': 20}, 'refauthors_set': [{'author': {'first_name': 'Gregory', 'initials': 'GJ', 'last_name': 'Hooper', 'id': 448}, 'first_author': True, 'id': 606}], 'id': 227}, {'journal': {'name': 'Tetrahedron', 'id': 4}, 'title': 'New Metabolites from the South African Soft Coral Capnella thyrsoidea', 'year': 1995, 'start_page': 9973, 'volume': 51, 'issue': 36, 'doi': '10.1016/0040-4020(95)00570-X', 'isbn': '', 'despositor': {'code': 'rah', 'first_name': 'Rowan', 'last_name': 'Hatherley', 'id': 20}, 'refauthors_set': [{'author': {'first_name': 'Gregory', 'initials': 'GJ', 'last_name': 'Hooper', 'id': 448}, 'first_author': True, 'id': 611}, {'author': {'first_name': 'Michael', 'initials': 'MT', 'last_name': 'Davies-Coleman', 'id': 449}, 'first_author': None, 'id': 612}], 'id': 229}]

>  <classifications>  (16) 
[{'classification': 'Diterpene', 'id': 771}, {'classification': 'Terpenoid', 'id': 839}, {'classification': 'Tsitsixenicin', 'id': 844}, {'classification': 'Xenicane', 'id': 848}, {'classification': 'Carboxylic acids and derivatives (Classyfire)', 'id': 950}]

>  <molecular_mass>  (16) 
432.51

>  <warheads>  (16) 
ab_unsat_carbonyl:2

>  <n_warheads>  (16) 
2

>  <max_tier>  (16) 
1

>  <pains_flag>  (16) 


>  <MW>  (16) 
432.5

>  <cLogP>  (16) 
3.54

>  <HBD>  (16) 
1

>  <HBA>  (16) 
7

>  <TPSA>  (16) 
99.1

>  <ArRings>  (16) 
0

$$$$
SANC00152_minRM1.pdb
     RDKit          3D

 30 31  0  0  1  0  0  0  0  0999 V2000
    2.0830   -1.2060    2.8050 C   0  0  0  0  0  0  0  0  0  0  0  0
    1.9890   -0.7690    1.5530 C   0  0  0  0  0  0  0  0  0  0  0  0
    3.0510    0.1100    0.9630 C   0  0  0  0  0  0  0  0  0  0  0  0
    2.9200    1.4600    1.5850 C   0  0  0  0  0  0  0  0  0  0  0  0
    2.2250    2.4970    1.1250 C   0  0  0  0  0  0  0  0  0  0  0  0
    1.4390    2.5830   -0.1510 C   0  0  1  0  0  0  0  0  0  0  0  0
    0.9770    4.0300   -0.3910 C   0  0  0  0  0  0  0  0  0  0  0  0
    2.2270    2.1710   -1.2610 O   0  0  0  0  0  0  0  0  0  0  0  0
    3.4500    2.7090   -1.4810 C   0  0  0  0  0  0  0  0  0  0  0  0
    4.1030    2.0780   -2.6730 C   0  0  0  0  0  0  0  0  0  0  0  0
    3.9100    3.5880   -0.7790 O   0  0  0  0  0  0  0  0  0  0  0  0
    0.2110    1.6320   -0.2190 C   0  0  0  0  0  0  0  0  0  0  0  0
   -0.2880    1.1270    1.1350 C   0  0  0  0  0  0  0  0  0  0  0  0
   -0.4480   -0.3980    1.2040 C   0  0  1  0  0  0  0  0  0  0  0  0
   -1.6150   -0.9070    0.4270 C   0  0  0  0  0  0  0  0  0  0  0  0
   -2.8840   -0.1620    0.5210 C   0  0  0  0  0  0  0  0  0  0  0  0
   -3.3280    0.1810    1.6010 O   0  0  0  0  0  0  0  0  0  0  0  0
   -3.5940    0.1010   -0.7830 C   0  0  0  0  0  0  0  0  0  0  0  0
   -4.5910    1.1980   -0.6470 C   0  0  0  0  0  0  0  0  0  0  0  0
   -5.9050    0.9910   -0.5400 C   0  0  0  0  0  0  0  0  0  0  0  0
   -6.5260   -0.3590   -0.5230 C   0  0  0  0  0  0  0  0  0  0  0  0
   -6.8670    2.1200   -0.4100 C   0  0  0  0  0  0  0  0  0  0  0  0
   -1.5720   -2.0690   -0.2390 C   0  0  0  0  0  0  0  0  0  0  0  0
   -0.5110   -2.9080   -0.2620 O   0  0  0  0  0  0  0  0  0  0  0  0
    0.5600   -2.6040    0.6150 C   0  0  1  0  0  0  0  0  0  0  0  0
    1.6610   -3.1530   -0.0640 O   0  0  0  0  0  0  0  0  0  0  0  0
    1.7900   -4.5100   -0.1180 C   0  0  0  0  0  0  0  0  0  0  0  0
    2.9490   -4.9130   -0.9690 C   0  0  0  0  0  0  0  0  0  0  0  0
    1.0360   -5.2320    0.5000 O   0  0  0  0  0  0  0  0  0  0  0  0
    0.8220   -1.0880    0.6790 C   0  0  2  0  0  0  0  0  0  0  0  0
  1  2  2  0
 30  2  1  1
  2  3  1  0
  3  4  1  0
  4  5  2  0
  5  6  1  0
  6  8  1  0
  6  7  1  6
  6 12  1  0
  8  9  1  0
  9 10  1  0
  9 11  2  0
 12 13  1  0
 14 13  1  6
 14 15  1  0
 14 30  1  0
 15 23  2  0
 15 16  1  0
 16 18  1  0
 16 17  2  0
 18 19  1  0
 19 20  2  3
 20 21  1  0
 20 22  1  0
 23 24  1  0
 24 25  1  0
 25 26  1  6
 25 30  1  0
 26 27  1  0
 27 28  1  0
 27 29  2  0
M  END
>  <id>  (17) 
152

>  <scaffolds>  (17) 
['C=C1CC=CCCCC2C=COCC12']

>  <name>  (17) 
Tsitsixenicin D

>  <formula>  (17) 
C24H32O6

>  <SMILES>  (17) 
C=C1CC=CC(C)(OC(C)=O)CCC2C(C(=O)C/C=C(C)/C)=COC(OC(C)=O)C12

>  <ChEMBL_id>  (17) 


>  <ZINC_id>  (17) 


>  <PubChem_id>  (17) 


>  <DrugBank_id>  (17) 


>  <CAS_no>  (17) 
168075-14-7

>  <references>  (17) 
[{'journal': {'name': 'Thesis, Rhodes University', 'id': 2}, 'title': 'Biologically Active Natural Products From South African Marine Invertebrates', 'year': 1996, 'start_page': None, 'volume': None, 'issue': None, 'doi': None, 'isbn': None, 'despositor': {'code': 'rah', 'first_name': 'Rowan', 'last_name': 'Hatherley', 'id': 20}, 'refauthors_set': [{'author': {'first_name': 'Gregory', 'initials': 'GJ', 'last_name': 'Hooper', 'id': 448}, 'first_author': True, 'id': 606}], 'id': 227}, {'journal': {'name': 'Tetrahedron', 'id': 4}, 'title': 'New Metabolites from the South African Soft Coral Capnella thyrsoidea', 'year': 1995, 'start_page': 9973, 'volume': 51, 'issue': 36, 'doi': '10.1016/0040-4020(95)00570-X', 'isbn': '', 'despositor': {'code': 'rah', 'first_name': 'Rowan', 'last_name': 'Hatherley', 'id': 20}, 'refauthors_set': [{'author': {'first_name': 'Gregory', 'initials': 'GJ', 'last_name': 'Hooper', 'id': 448}, 'first_author': True, 'id': 611}, {'author': {'first_name': 'Michael', 'initials': 'MT', 'last_name': 'Davies-Coleman', 'id': 449}, 'first_author': None, 'id': 612}], 'id': 229}]

>  <classifications>  (17) 
[{'classification': 'Diterpene', 'id': 771}, {'classification': 'Terpenoid', 'id': 839}, {'classification': 'Tsitsixenicin', 'id': 844}, {'classification': 'Xenicane', 'id': 848}, {'classification': 'Phenol lipids (Classyfire)', 'id': 951}]

>  <molecular_mass>  (17) 
416.51

>  <warheads>  (17) 
ab_unsat_carbonyl:1

>  <n_warheads>  (17) 
1

>  <max_tier>  (17) 
1

>  <pains_flag>  (17) 


>  <MW>  (17) 
416.5

>  <cLogP>  (17) 
4.57

>  <HBD>  (17) 
0

>  <HBA>  (17) 
6

>  <TPSA>  (17) 
78.9

>  <ArRings>  (17) 
0

$$$$
SANC00158_minRM1.pdb
     RDKit          3D

 26 27  0  0  1  0  0  0  0  0999 V2000
   -1.3880   -0.5480   -0.2430 C   0  0  1  0  0  0  0  0  0  0  0  0
   -1.3460    0.5940   -1.2750 C   0  0  0  0  0  0  0  0  0  0  0  0
   -1.4780    1.9890   -0.6490 C   0  0  0  0  0  0  0  0  0  0  0  0
   -2.9050    2.4300   -0.5940 C   0  0  0  0  0  0  0  0  0  0  0  0
   -3.3420    3.2930   -1.7260 C   0  0  0  0  0  0  0  0  0  0  0  0
   -3.7430    2.0960    0.3880 C   0  0  0  0  0  0  0  0  0  0  0  0
   -3.3770    1.2210    1.5360 C   0  0  0  0  0  0  0  0  0  0  0  0
   -4.0340   -0.1550    1.3760 C   0  0  0  0  0  0  0  0  0  0  0  0
   -3.8990   -0.6440   -0.0310 C   0  0  0  0  0  0  0  0  0  0  0  0
   -4.8600   -0.3990   -0.9210 C   0  0  0  0  0  0  0  0  0  0  0  0
   -2.6650   -1.3880   -0.4290 C   0  0  2  0  0  0  0  0  0  0  0  0
   -2.5040   -2.6760    0.3880 C   0  0  0  0  0  0  0  0  0  0  0  0
   -1.5370   -3.4980   -0.2260 O   0  0  0  0  0  0  0  0  0  0  0  0
   -0.4130   -2.8640   -0.6730 C   0  0  0  0  0  0  0  0  0  0  0  0
    0.3430   -3.5760   -1.3120 O   0  0  0  0  0  0  0  0  0  0  0  0
   -0.1890   -1.4400   -0.3540 C   0  0  0  0  0  0  0  0  0  0  0  0
    1.0780   -1.0510   -0.1580 C   0  0  0  0  0  0  0  0  0  0  0  0
    1.4790    0.3410    0.1720 C   0  0  0  0  0  0  0  0  0  0  0  0
    2.9190    0.4140    0.7130 C   0  0  1  0  0  0  0  0  0  0  0  0
    3.7370    0.0530   -0.3870 O   0  0  0  0  0  0  0  0  0  0  0  0
    5.0680   -0.1050   -0.1680 C   0  0  0  0  0  0  0  0  0  0  0  0
    5.7890   -0.5070   -1.4130 C   0  0  0  0  0  0  0  0  0  0  0  0
    5.5420    0.0610    0.9400 O   0  0  0  0  0  0  0  0  0  0  0  0
    3.2500    1.8150    1.1520 C   0  0  0  0  0  0  0  0  0  0  0  0
    3.7030    2.0650    2.3770 C   0  0  0  0  0  0  0  0  0  0  0  0
    3.0320    2.8940    0.1520 C   0  0  0  0  0  0  0  0  0  0  0  0
  1  2  1  6
  1 11  1  0
  1 16  1  0
  2  3  1  0
  3  4  1  0
  4  5  1  0
  4  6  2  0
  6  7  1  0
  7  8  1  0
  8  9  1  0
  9 10  2  0
  9 11  1  0
 11 12  1  1
 12 13  1  0
 13 14  1  0
 14 15  2  0
 14 16  1  0
 16 17  2  0
 17 18  1  0
 19 18  1  6
 19 20  1  0
 19 24  1  0
 20 21  1  0
 21 22  1  0
 21 23  2  0
 24 26  1  0
 24 25  2  0
M  END
>  <id>  (18) 
158

>  <scaffolds>  (18) 
['C1CCOCC1', 'C=C1CCC=CCCC2CC(=O)OCC12']

>  <name>  (18) 
Xeniolide C

>  <formula>  (18) 
C22H30O4

>  <SMILES>  (18) 
[H][C@]1/2CCC(C)=CCCC(=C)[C@]1([H])COC(=O)C2=C\CC(OC(C)=O)C(=C)C

>  <ChEMBL_id>  (18) 


>  <ZINC_id>  (18) 


>  <PubChem_id>  (18) 


>  <DrugBank_id>  (18) 


>  <CAS_no>  (18) 
195259-82-6

>  <references>  (18) 
[{'journal': {'name': 'Thesis, Rhodes University', 'id': 2}, 'title': 'Biologically Active Natural Products From South African Marine Invertebrates', 'year': 1996, 'start_page': None, 'volume': None, 'issue': None, 'doi': None, 'isbn': None, 'despositor': {'code': 'rah', 'first_name': 'Rowan', 'last_name': 'Hatherley', 'id': 20}, 'refauthors_set': [{'author': {'first_name': 'Gregory', 'initials': 'GJ', 'last_name': 'Hooper', 'id': 448}, 'first_author': True, 'id': 606}], 'id': 227}, {'journal': {'name': 'Journal of Natural Products', 'id': 5}, 'title': 'New Diterpenes from the South African Soft Coral Eleutherobia aurea', 'year': 1997, 'start_page': 889, 'volume': 60, 'issue': 9, 'doi': '10.1021/np970180z', 'isbn': '', 'despositor': {'code': 'rah', 'first_name': 'Rowan', 'last_name': 'Hatherley', 'id': 20}, 'refauthors_set': [{'author': {'first_name': 'Gregory', 'initials': 'GJ', 'last_name': 'Hooper', 'id': 448}, 'first_author': True, 'id': 613}, {'author': {'first_name': 'Michael', 'initials': 'MT', 'last_name': 'Davies-Coleman', 'id': 449}, 'first_author': False, 'id': 614}, {'author': {'first_name': 'Michael', 'initials': 'M', 'last_name': 'Schleyer', 'id': 452}, 'first_author': None, 'id': 615}], 'id': 230}]

>  <classifications>  (18) 
[{'classification': 'Diterpene', 'id': 771}, {'classification': 'Terpenoid', 'id': 839}, {'classification': 'Xenicane', 'id': 848}, {'classification': 'Xeniolide', 'id': 850}, {'classification': 'Lactones (Classyfire)', 'id': 952}]

>  <molecular_mass>  (18) 
358.47

>  <warheads>  (18) 
ab_unsat_carbonyl:1

>  <n_warheads>  (18) 
1

>  <max_tier>  (18) 
1

>  <pains_flag>  (18) 


>  <MW>  (18) 
358.5

>  <cLogP>  (18) 
4.68

>  <HBD>  (18) 
0

>  <HBA>  (18) 
4

>  <TPSA>  (18) 
52.6

>  <ArRings>  (18) 
0

$$$$
SANC00166_minRM1.pdb
     RDKit          3D

 17 16  0  0  1  0  0  0  0  0999 V2000
    5.2620    0.4380    2.2040 C   0  0  0  0  0  0  0  0  0  0  0  0
    4.9410    0.5690    0.7230 C   0  0  0  0  0  0  0  0  0  0  0  0
    3.4370    0.4730    0.4890 C   0  0  0  0  0  0  0  0  0  0  0  0
    3.0790    0.4700   -1.0010 C   0  0  2  0  0  0  0  0  0  0  0  0
    3.3520    1.8360   -1.6240 C   0  0  0  0  0  0  0  0  0  0  0  0
    1.5970    0.1210   -1.1820 C   0  0  0  0  0  0  0  0  0  0  0  0
    1.2700   -1.3050   -0.7280 C   0  0  2  0  0  0  0  0  0  0  0  0
    1.7580   -2.3220   -1.7560 C   0  0  0  0  0  0  0  0  0  0  0  0
   -0.2430   -1.4720   -0.5440 C   0  0  0  0  0  0  0  0  0  0  0  0
   -0.7990   -0.5900    0.5810 C   0  0  2  0  0  0  0  0  0  0  0  0
   -0.3900   -1.0970    1.9610 C   0  0  0  0  0  0  0  0  0  0  0  0
   -2.2930   -0.6120    0.4970 C   0  0  0  0  0  0  0  0  0  0  0  0
   -3.0390    0.4610    0.2130 C   0  0  0  0  0  0  0  0  0  0  0  0
   -2.4990    1.8170   -0.0580 C   0  0  0  0  0  0  0  0  0  0  0  0
   -4.5000    0.2990    0.1610 C   0  0  0  0  0  0  0  0  0  0  0  0
   -5.1520   -0.6810    0.4980 O   0  0  0  0  0  0  0  0  0  0  0  0
   -5.1620    1.3740   -0.3220 O   0  0  0  0  0  0  0  0  0  0  0  0
  1  2  1  0
  2  3  1  0
  3  4  1  0
  4  5  1  1
  4  6  1  0
  6  7  1  0
  7  8  1  6
  7  9  1  0
  9 10  1  0
 10 12  1  0
 10 11  1  1
 12 13  2  0
 13 14  1  0
 13 15  1  0
 15 17  1  0
 15 16  2  0
M  END
>  <id>  (19) 
166

>  <scaffolds>  (19) 
[]

>  <name>  (19) 
Tetramethyl undecenoic acid

>  <formula>  (19) 
C15H28O2

>  <SMILES>  (19) 
CCC[C@H](C)C[C@H](C)C[C@H](C)/C=C(C)/C(=O)O

>  <ChEMBL_id>  (19) 


>  <ZINC_id>  (19) 


>  <PubChem_id>  (19) 


>  <DrugBank_id>  (19) 


>  <CAS_no>  (19) 
225798-15-2

>  <references>  (19) 
[{'journal': {'name': 'Thesis, Rhodes University', 'id': 2}, 'title': 'Structural and Synthetic Investigations of South African Marine Natural Products', 'year': 1999, 'start_page': None, 'volume': None, 'issue': None, 'doi': None, 'isbn': None, 'despositor': {'code': 'rah', 'first_name': 'Rowan', 'last_name': 'Hatherley', 'id': 20}, 'refauthors_set': [{'author': {'first_name': 'Denzil', 'initials': 'DR', 'last_name': 'Beukes', 'id': 453}, 'first_author': True, 'id': 618}], 'id': 232}, {'journal': {'name': 'Tetrahedron', 'id': 4}, 'title': 'Novel Polypropionates from the South African Marine Mollusc Siphonaria capensis', 'year': 1999, 'start_page': 4051, 'volume': 55, 'issue': 13, 'doi': '10.1016/S0040-4020(99)00093-9', 'isbn': '', 'despositor': {'code': 'rah', 'first_name': 'Rowan', 'last_name': 'Hatherley', 'id': 20}, 'refauthors_set': [{'author': {'first_name': 'Michael', 'initials': 'MT', 'last_name': 'Davies-Coleman', 'id': 449}, 'first_author': None, 'id': 619}, {'author': {'first_name': 'Denzil', 'initials': 'DR', 'last_name': 'Beukes', 'id': 453}, 'first_author': True, 'id': 620}], 'id': 233}]

>  <classifications>  (19) 
[{'classification': 'Acyclic', 'id': 736}, {'classification': 'Phenol lipids (Classyfire)', 'id': 951}]

>  <molecular_mass>  (19) 
240.38

>  <warheads>  (19) 
ab_unsat_carbonyl:1

>  <n_warheads>  (19) 
1

>  <max_tier>  (19) 
1

>  <pains_flag>  (19) 


>  <MW>  (19) 
240.4

>  <cLogP>  (19) 
4.51

>  <HBD>  (19) 
1

>  <HBA>  (19) 
1

>  <TPSA>  (19) 
37.3

>  <ArRings>  (19) 
0

$$$$
SANC00187_minRM1.pdb
     RDKit          3D

 25 26  0  0  1  0  0  0  0  0999 V2000
   -5.5540    1.0340   -2.1520 C   0  0  0  0  0  0  0  0  0  0  0  0
   -4.9690    1.1400   -0.9620 C   0  0  0  0  0  0  0  0  0  0  0  0
   -5.7450    0.9750    0.2970 C   0  0  0  0  0  0  0  0  0  0  0  0
   -3.5020    1.4370   -0.8360 C   0  0  1  0  0  0  0  0  0  0  0  0
   -3.3330    2.8920   -0.4090 C   0  0  0  0  0  0  0  0  0  0  0  0
   -2.8430    0.4620    0.1550 C   0  0  0  0  0  0  0  0  0  0  0  0
   -1.3230    0.4990    0.0130 C   0  0  0  0  0  0  0  0  0  0  0  0
   -0.4980   -0.2540    1.0650 C   0  0  1  0  0  0  0  0  0  0  0  0
   -1.0150    0.1260    2.4610 C   0  0  0  0  0  0  0  0  0  0  0  0
   -0.5070   -1.7730    0.9800 C   0  0  1  0  0  0  0  0  0  0  0  0
   -2.2480   -2.4470    1.0500 Cl  0  0  0  0  0  0  0  0  0  0  0  0
    0.1040   -2.3960   -0.2690 C   0  0  1  0  0  0  0  0  0  0  0  0
   -0.5410   -2.0370   -1.4480 O   0  0  0  0  0  0  0  0  0  0  0  0
    1.5660   -1.9470   -0.3820 C   0  0  0  0  0  0  0  0  0  0  0  0
    1.7850   -0.4360   -0.2320 C   0  0  2  0  0  0  0  0  0  0  0  0
    1.4570    0.2760   -1.5390 C   0  0  0  0  0  0  0  0  0  0  0  0
    3.2930   -0.2100    0.0780 C   0  0  1  0  0  0  0  0  0  0  0  0
    4.1210   -0.6560   -1.1170 C   0  0  0  0  0  0  0  0  0  0  0  0
    4.4520   -1.8170   -1.2440 O   0  0  0  0  0  0  0  0  0  0  0  0
    3.5720    1.2120    0.4210 C   0  0  0  0  0  0  0  0  0  0  0  0
    4.9690    1.6880    0.3290 C   0  0  0  0  0  0  0  0  0  0  0  0
    5.9100    0.9180    0.2910 O   0  0  0  0  0  0  0  0  0  0  0  0
    2.6290    2.0370    0.8820 C   0  0  0  0  0  0  0  0  0  0  0  0
    1.2180    1.6280    1.0930 C   0  0  0  0  0  0  0  0  0  0  0  0
    1.0140    0.1170    0.9840 C   0  0  1  0  0  0  0  0  0  0  0  0
  1  2  2  0
  2  4  1  0
  2  3  1  0
  4  5  1  1
  4  6  1  0
  6  7  1  0
  8  7  1  0
  8 10  1  0
  8 25  1  0
  8  9  1  1
 10 12  1  0
 10 11  1  6
 12 13  1  6
 12 14  1  0
 14 15  1  0
 15 16  1  6
 15 17  1  0
 15 25  1  0
 17 18  1  6
 17 20  1  0
 18 19  2  0
 20 21  1  0
 20 23  2  0
 21 22  2  0
 23 24  1  0
 25 24  1  6
M  END
>  <id>  (20) 
187

>  <scaffolds>  (20) 
['C1=CCCCC1', 'C1=CCC2CCCCC2C1', 'C1CCCCC1']

>  <name>  (20) 
Hamiltonin C

>  <formula>  (20) 
C21H31ClO3

>  <SMILES>  (20) 
C=C(C)C(C)CCC2(C)C(Cl)C(O)CC1(C)C(C=O)C(C=O)=CCC12

>  <ChEMBL_id>  (20) 


>  <ZINC_id>  (20) 


>  <PubChem_id>  (20) 


>  <DrugBank_id>  (20) 


>  <CAS_no>  (20) 
166774-52-3

>  <references>  (20) 
[{'journal': {'name': 'Tetrahedron', 'id': 4}, 'title': 'Unusual chlorinated homo-diterpenes from the SouthAfrican nudibranch Chromodoris hamiltoni', 'year': 1995, 'start_page': 8189, 'volume': 51, 'issue': 30, 'doi': '10.1016/0040-4020(95)00440-J', 'isbn': '', 'despositor': {'code': 'TMM', 'first_name': 'Thommas', 'last_name': 'Musyoka', 'id': 22}, 'refauthors_set': [{'author': {'first_name': '', 'initials': 'J', 'last_name': 'Pika', 'id': 484}, 'first_author': True, 'id': 638}, {'author': {'first_name': 'John', 'initials': 'DJ', 'last_name': 'Faulkner', 'id': 529}, 'first_author': False, 'id': 700}], 'id': 245}]

>  <classifications>  (20) 
[{'classification': 'Diterpene', 'id': 771}, {'classification': 'Hamiltonin', 'id': 782}, {'classification': 'Terpenoid', 'id': 839}, {'classification': 'Phenol lipids (Classyfire)', 'id': 951}]

>  <molecular_mass>  (20) 
366.92

>  <warheads>  (20) 
ab_unsat_carbonyl:1

>  <n_warheads>  (20) 
1

>  <max_tier>  (20) 
1

>  <pains_flag>  (20) 


>  <MW>  (20) 
366.9

>  <cLogP>  (20) 
4.32

>  <HBD>  (20) 
1

>  <HBA>  (20) 
3

>  <TPSA>  (20) 
54.4

>  <ArRings>  (20) 
0

$$$$
SANC00190_minRM1.pdb
     RDKit          3D

 16 17  0  0  1  0  0  0  0  0999 V2000
   -0.0870   -1.6630    1.8150 O   0  0  0  0  0  0  0  0  0  0  0  0
    0.1820   -1.0100    0.8210 C   0  0  0  0  0  0  0  0  0  0  0  0
    0.8110   -1.6910   -0.3340 C   0  0  0  0  0  0  0  0  0  0  0  0
    0.0930   -2.2480   -1.3000 C   0  0  0  0  0  0  0  0  0  0  0  0
    2.2920   -1.7950   -0.2300 C   0  0  0  0  0  0  0  0  0  0  0  0
    2.9420   -0.4390   -0.4640 C   0  0  0  0  0  0  0  0  0  0  0  0
    2.4770    0.6290    0.5190 C   0  0  0  0  0  0  0  0  0  0  0  0
    1.1190    1.2850    0.2330 C   0  0  2  0  0  0  0  0  0  0  0  0
   -0.0770    0.4780    0.7870 C   0  0  1  0  0  0  0  0  0  0  0  0
   -1.2530    0.8630   -0.1260 C   0  0  1  0  0  0  0  0  0  0  0  0
   -0.6220    1.0520   -1.5070 C   0  0  0  0  0  0  0  0  0  0  0  0
    0.8190    1.5010   -1.2600 C   0  0  0  0  0  0  0  0  0  0  0  0
   -2.4220   -0.1260   -0.1210 C   0  0  0  0  0  0  0  0  0  0  0  0
   -3.0610   -0.1840    1.2630 C   0  0  0  0  0  0  0  0  0  0  0  0
   -3.4760    0.3060   -1.1380 C   0  0  0  0  0  0  0  0  0  0  0  0
    1.1270    2.6500    0.9400 C   0  0  0  0  0  0  0  0  0  0  0  0
  1  2  2  0
  2  3  1  0
  9  2  1  6
  3  4  2  0
  3  5  1  0
  5  6  1  0
  6  7  1  0
  7  8  1  0
  8 12  1  0
  8  9  1  0
  8 16  1  1
  9 10  1  0
 10 11  1  0
 10 13  1  6
 11 12  1  0
 13 15  1  0
 13 14  1  0
M  END
>  <id>  (21) 
190

>  <scaffolds>  (21) 
['C=C1CCCC2CCCC2C1', 'C1CCC2CCCC2CC1', 'C=C1CCCC2CCCC2C1=O']

>  <name>  (21) 
Millecrone A

>  <formula>  (21) 
C15H24O

>  <SMILES>  (21) 
O=C1\C(=C)CCC[C@@]2([C@H]1[C@@H](CC2)C(C)C)C

>  <ChEMBL_id>  (21) 


>  <ZINC_id>  (21) 


>  <PubChem_id>  (21) 


>  <DrugBank_id>  (21) 


>  <CAS_no>  (21) 
154512-19-3

>  <references>  (21) 
[{'journal': {'name': 'Journal of Natural Products', 'id': 5}, 'title': 'Sequestered Chemistry of the Arminacean Nudibranch Leminda millecra in Algoa Bay, South Africa', 'year': 2001, 'start_page': 1183, 'volume': 64, 'issue': 9, 'doi': '10.1021/np010085x', 'isbn': '', 'despositor': {'code': 'TMM', 'first_name': 'Thommas', 'last_name': 'Musyoka', 'id': 22}, 'refauthors_set': [{'author': {'first_name': 'Kerry', 'initials': 'KL', 'last_name': 'McPhail', 'id': 483}, 'first_author': True, 'id': 639}, {'author': {'first_name': 'Michael', 'initials': 'MT', 'last_name': 'Davies-Coleman', 'id': 449}, 'first_author': False, 'id': 701}, {'author': {'first_name': '', 'initials': 'JA', 'last_name': 'Starmer', 'id': 530}, 'first_author': False, 'id': 702}], 'id': 246}]

>  <classifications>  (21) 
[{'classification': 'Millecrone', 'id': 794}, {'classification': 'Sesquiterpene', 'id': 828}, {'classification': 'Terpenoid', 'id': 839}, {'classification': 'Phenol lipids (Classyfire)', 'id': 951}]

>  <molecular_mass>  (21) 
220.35

>  <warheads>  (21) 
ab_unsat_carbonyl:1;exo_methylene_carbonyl:1

>  <n_warheads>  (21) 
2

>  <max_tier>  (21) 
1

>  <pains_flag>  (21) 


>  <MW>  (21) 
220.4

>  <cLogP>  (21) 
3.98

>  <HBD>  (21) 
0

>  <HBA>  (21) 
1

>  <TPSA>  (21) 
17.1

>  <ArRings>  (21) 
0

$$$$
SANC00200_minRM1.pdb
     RDKit          3D

 29 30  0  0  1  0  0  0  0  0999 V2000
   -2.0970    1.5370    0.7700 C   0  0  2  0  0  0  0  0  0  0  0  0
   -2.0980    3.0000    0.4610 C   0  0  0  0  0  0  0  0  0  0  0  0
   -1.0300    3.6850    0.0440 C   0  0  0  0  0  0  0  0  0  0  0  0
   -1.1800    5.1490   -0.1660 C   0  0  0  0  0  0  0  0  0  0  0  0
   -0.4470    5.7780   -0.9070 O   0  0  0  0  0  0  0  0  0  0  0  0
    0.2980    3.0830   -0.2650 C   0  0  0  0  0  0  0  0  0  0  0  0
    0.9170    2.3910    0.9460 C   0  0  0  0  0  0  0  0  0  0  0  0
    2.0830    1.5440    0.5630 C   0  0  0  0  0  0  0  0  0  0  0  0
    2.0310    0.4770   -0.2350 C   0  0  0  0  0  0  0  0  0  0  0  0
    3.2330   -0.3580   -0.5810 C   0  0  0  0  0  0  0  0  0  0  0  0
    4.3720    0.2000    0.0450 O   0  0  0  0  0  0  0  0  0  0  0  0
    5.5630   -0.4190   -0.1630 C   0  0  0  0  0  0  0  0  0  0  0  0
    6.6630    0.2410    0.6030 C   0  0  0  0  0  0  0  0  0  0  0  0
    5.6450   -1.3790   -0.9030 O   0  0  0  0  0  0  0  0  0  0  0  0
    0.7970    0.0070   -0.9410 C   0  0  0  0  0  0  0  0  0  0  0  0
   -0.4000   -0.2330    0.0050 C   0  0  2  0  0  0  0  0  0  0  0  0
   -0.8410   -1.5730   -0.1060 O   0  0  0  0  0  0  0  0  0  0  0  0
   -0.0770   -2.5490    0.4600 C   0  0  0  0  0  0  0  0  0  0  0  0
    0.9710   -2.2600    1.0140 O   0  0  0  0  0  0  0  0  0  0  0  0
   -0.6660   -3.8950    0.3360 C   0  0  0  0  0  0  0  0  0  0  0  0
   -0.1170   -4.8930    1.0300 C   0  0  0  0  0  0  0  0  0  0  0  0
   -1.8600   -4.0260   -0.5620 C   0  0  0  0  0  0  0  0  0  0  0  0
   -2.1600   -5.3890   -0.6810 O   0  0  0  0  0  0  0  0  0  0  0  0
   -1.6190    0.6380   -0.4090 C   0  0  1  0  0  0  0  0  0  0  0  0
   -2.8520   -0.1230   -0.7680 C   0  0  0  0  0  0  0  0  0  0  0  0
   -3.0380   -0.9480   -1.7870 C   0  0  0  0  0  0  0  0  0  0  0  0
   -3.8910    0.2290    0.2140 C   0  0  0  0  0  0  0  0  0  0  0  0
   -5.0320   -0.1530    0.3390 O   0  0  0  0  0  0  0  0  0  0  0  0
   -3.4190    1.1510    1.1090 O   0  0  0  0  0  0  0  0  0  0  0  0
  1 24  1  0
  1  2  1  0
  1 29  1  6
  2  3  2  0
  3  6  1  0
  3  4  1  0
  4  5  2  0
  6  7  1  0
  7  8  1  0
  8  9  2  0
  9 15  1  0
  9 10  1  0
 10 11  1  0
 11 12  1  0
 12 14  2  0
 12 13  1  0
 15 16  1  0
 16 24  1  0
 16 17  1  6
 17 18  1  0
 18 20  1  0
 18 19  2  0
 20 22  1  0
 20 21  2  0
 22 23  1  0
 24 25  1  1
 25 26  2  0
 25 27  1  0
 27 28  2  0
 27 29  1  0
M  END
>  <id>  (22) 
200

>  <scaffolds>  (22) 
['C=C1C(=O)OC2C=CCCC=CCCC12', 'O=C1CCCO1', 'O=C1CC2CCC=CCCC=CC2O1']

>  <name>  (22) 
Vernangulide A

>  <formula>  (22) 
C21H24O8

>  <SMILES>  (22) 
[H][C@@]12C=C(C=O)CCC=C(COC(C)=O)C[C@H](OC(=O)C(=C)CO)[C@@]1([H])C(=C)C(=O)O2

>  <ChEMBL_id>  (22) 


>  <ZINC_id>  (22) 


>  <PubChem_id>  (22) 


>  <DrugBank_id>  (22) 


>  <CAS_no>  (22) 
1159580-30-9

>  <references>  (22) 
[{'journal': {'name': 'Phytochemistry', 'id': 10}, 'title': 'Antimalarial sesquiterpene lactones from Distephanus angulifolius', 'year': 2009, 'start_page': 601, 'volume': 70, 'issue': 5, 'doi': '10.1016/j.phytochem.2009.02.005', 'isbn': '', 'despositor': {'code': 'DLP', 'first_name': 'David', 'last_name': 'Penkler', 'id': 23}, 'refauthors_set': [{'author': {'first_name': 'Martin', 'initials': 'M', 'last_name': 'Pedersen', 'id': 486}, 'first_author': True, 'id': 642}, {'author': {'first_name': 'Jude', 'initials': 'J', 'last_name': 'Chukwujekwu', 'id': 487}, 'first_author': None, 'id': 643}, {'author': {'first_name': 'Carmen', 'initials': 'CA', 'last_name': 'Lategan', 'id': 488}, 'first_author': None, 'id': 644}, {'author': {'first_name': 'Johannes', 'initials': 'J', 'last_name': 'Van Staden', 'id': 489}, 'first_author': None, 'id': 645}, {'author': {'first_name': 'Peter', 'initials': 'PJ', 'last_name': 'Smith', 'id': 490}, 'first_author': None, 'id': 646}, {'author': {'first_name': 'Dan', 'initials': 'D', 'last_name': 'Staerk', 'id': 491}, 'first_author': None, 'id': 647}], 'id': 250}]

>  <classifications>  (22) 
[{'classification': 'Sesquiterpene', 'id': 828}, {'classification': 'Terpenoid', 'id': 839}, {'classification': 'Vernangulide', 'id': 845}, {'classification': 'Phenol lipids (Classyfire)', 'id': 951}]

>  <molecular_mass>  (22) 
404.41

>  <warheads>  (22) 
ab_unsat_carbonyl:3;exo_methylene_carbonyl:2

>  <n_warheads>  (22) 
5

>  <max_tier>  (22) 
1

>  <pains_flag>  (22) 


>  <MW>  (22) 
404.4

>  <cLogP>  (22) 
1.34

>  <HBD>  (22) 
1

>  <HBA>  (22) 
8

>  <TPSA>  (22) 
116.2

>  <ArRings>  (22) 
0

$$$$
SANC00201_minRM1.pdb
     RDKit          3D

 29 30  0  0  1  0  0  0  0  0999 V2000
    1.1380    1.5050    0.3740 C   0  0  1  0  0  0  0  0  0  0  0  0
    1.5140    2.8650    0.5170 O   0  0  0  0  0  0  0  0  0  0  0  0
    0.3850    3.5570    0.9060 C   0  0  0  0  0  0  0  0  0  0  0  0
    0.5210    4.7030    1.2630 O   0  0  0  0  0  0  0  0  0  0  0  0
   -0.8220    2.7020    0.7730 C   0  0  0  0  0  0  0  0  0  0  0  0
   -2.0190    2.9800    1.2590 C   0  0  0  0  0  0  0  0  0  0  0  0
   -0.3540    1.5460   -0.0400 C   0  0  2  0  0  0  0  0  0  0  0  0
   -0.8930    0.1340    0.1590 C   0  0  1  0  0  0  0  0  0  0  0  0
   -2.2490    0.2050   -0.2450 O   0  0  0  0  0  0  0  0  0  0  0  0
   -3.0660   -0.8420    0.0500 C   0  0  0  0  0  0  0  0  0  0  0  0
   -2.6290   -1.8200    0.6320 O   0  0  0  0  0  0  0  0  0  0  0  0
   -4.4590   -0.6280   -0.3850 C   0  0  0  0  0  0  0  0  0  0  0  0
   -5.4070   -1.4250    0.1060 C   0  0  0  0  0  0  0  0  0  0  0  0
   -4.6940    0.4910   -1.3550 C   0  0  0  0  0  0  0  0  0  0  0  0
   -6.0320    0.4310   -1.7690 O   0  0  0  0  0  0  0  0  0  0  0  0
   -0.1150   -0.7770   -0.8120 C   0  0  0  0  0  0  0  0  0  0  0  0
    1.4130   -0.7280   -0.6250 C   0  0  2  0  0  0  0  0  0  0  0  0
    2.1210   -1.5010   -1.7000 C   0  0  0  0  0  0  0  0  0  0  0  0
    1.5900   -1.8680   -2.8590 C   0  0  0  0  0  0  0  0  0  0  0  0
    1.8040   -1.3430    0.7400 C   0  0  0  0  0  0  0  0  0  0  0  0
    1.3240   -2.6720    0.7170 O   0  0  0  0  0  0  0  0  0  0  0  0
    1.3410   -3.3690    1.8830 C   0  0  0  0  0  0  0  0  0  0  0  0
    0.7290   -4.7210    1.7200 C   0  0  0  0  0  0  0  0  0  0  0  0
    1.8250   -2.8800    2.8870 O   0  0  0  0  0  0  0  0  0  0  0  0
    1.9240    0.7420   -0.6870 C   0  0  2  0  0  0  0  0  0  0  0  0
    3.4010    0.8280   -0.4940 C   0  0  0  0  0  0  0  0  0  0  0  0
    4.0060    1.1300    0.6520 C   0  0  0  0  0  0  0  0  0  0  0  0
    4.2400    0.6090   -1.7020 C   0  0  0  0  0  0  0  0  0  0  0  0
    3.8620    0.8960   -2.8210 O   0  0  0  0  0  0  0  0  0  0  0  0
  1 25  1  0
  1  7  1  0
  1  2  1  6
  2  3  1  0
  3  5  1  0
  3  4  2  0
  7  5  1  1
  5  6  2  0
  7  8  1  0
  8 16  1  0
  8  9  1  6
  9 10  1  0
 10 12  1  0
 10 11  2  0
 12 14  1  0
 12 13  2  0
 14 15  1  0
 16 17  1  0
 17 18  1  0
 17 25  1  0
 17 20  1  1
 18 19  2  0
 20 21  1  0
 21 22  1  0
 22 23  1  0
 22 24  2  0
 25 26  1  1
 26 28  1  0
 26 27  2  0
 28 29  2  0
M  END
>  <id>  (23) 
201

>  <scaffolds>  (23) 
['C1CCCCC1', 'O=C1CCCO1', 'C=C1C(=O)OC2CCCCC12']

>  <name>  (23) 
Vernangulide B

>  <formula>  (23) 
C21H24O8

>  <SMILES>  (23) 
[H][C@]12OC(=O)C(=C)[C@]1([H])[C@@H](OC(=O)C(=C)CO)C[C@](C=C)(COC(C)=O)[C@@H]2C(=C)C=O

>  <ChEMBL_id>  (23) 


>  <ZINC_id>  (23) 


>  <PubChem_id>  (23) 


>  <DrugBank_id>  (23) 


>  <CAS_no>  (23) 
119269-53-3

>  <references>  (23) 
[{'journal': {'name': 'Phytochemistry', 'id': 10}, 'title': 'Antimalarial sesquiterpene lactones from Distephanus angulifolius', 'year': 2009, 'start_page': 601, 'volume': 70, 'issue': 5, 'doi': '10.1016/j.phytochem.2009.02.005', 'isbn': '', 'despositor': {'code': 'DLP', 'first_name': 'David', 'last_name': 'Penkler', 'id': 23}, 'refauthors_set': [{'author': {'first_name': 'Martin', 'initials': 'M', 'last_name': 'Pedersen', 'id': 486}, 'first_author': True, 'id': 642}, {'author': {'first_name': 'Jude', 'initials': 'J', 'last_name': 'Chukwujekwu', 'id': 487}, 'first_author': None, 'id': 643}, {'author': {'first_name': 'Carmen', 'initials': 'CA', 'last_name': 'Lategan', 'id': 488}, 'first_author': None, 'id': 644}, {'author': {'first_name': 'Johannes', 'initials': 'J', 'last_name': 'Van Staden', 'id': 489}, 'first_author': None, 'id': 645}, {'author': {'first_name': 'Peter', 'initials': 'PJ', 'last_name': 'Smith', 'id': 490}, 'first_author': None, 'id': 646}, {'author': {'first_name': 'Dan', 'initials': 'D', 'last_name': 'Staerk', 'id': 491}, 'first_author': None, 'id': 647}], 'id': 250}]

>  <classifications>  (23) 
[{'classification': 'Sesquiterpene', 'id': 828}, {'classification': 'Terpenoid', 'id': 839}, {'classification': 'Vernangulide', 'id': 845}, {'classification': 'Phenol lipids (Classyfire)', 'id': 951}]

>  <molecular_mass>  (23) 
404.41

>  <warheads>  (23) 
ab_unsat_carbonyl:3;exo_methylene_carbonyl:3

>  <n_warheads>  (23) 
6

>  <max_tier>  (23) 
1

>  <pains_flag>  (23) 


>  <MW>  (23) 
404.4

>  <cLogP>  (23) 
1.05

>  <HBD>  (23) 
1

>  <HBA>  (23) 
8

>  <TPSA>  (23) 
116.2

>  <ArRings>  (23) 
0

$$$$
SANC00233_minRM1.pdb
     RDKit          3D

 31 33  0  0  1  0  0  0  0  0999 V2000
    4.6370   -2.3000    0.7040 C   0  0  0  0  0  0  0  0  0  0  0  0
    3.3550   -1.7020    0.1230 C   0  0  2  0  0  0  0  0  0  0  0  0
    3.2870   -0.2110    0.4630 C   0  0  0  0  0  0  0  0  0  0  0  0
    4.3190    0.5940   -0.3280 C   0  0  0  0  0  0  0  0  0  0  0  0
    4.2360    2.0740    0.0380 C   0  0  0  0  0  0  0  0  0  0  0  0
    5.0930    2.9460   -0.8850 C   0  0  0  0  0  0  0  0  0  0  0  0
    4.8880    4.4160   -0.5270 C   0  0  0  0  0  0  0  0  0  0  0  0
    6.5710    2.5940   -0.7670 C   0  0  0  0  0  0  0  0  0  0  0  0
    2.1420   -2.5020    0.6290 C   0  0  1  0  0  0  0  0  0  0  0  0
    1.8730   -2.2930    2.1230 C   0  0  0  0  0  0  0  0  0  0  0  0
    0.7120   -1.3150    2.2210 C   0  0  0  0  0  0  0  0  0  0  0  0
   -0.1590   -1.6220    0.9960 C   0  0  2  0  0  0  0  0  0  0  0  0
    0.7730   -2.2530   -0.0830 C   0  0  1  0  0  0  0  0  0  0  0  0
    0.8820   -1.4160   -1.3480 C   0  0  0  0  0  0  0  0  0  0  0  0
    0.2190   -3.6400   -0.4870 C   0  0  0  0  0  0  0  0  0  0  0  0
   -1.1110   -3.5680   -1.2490 C   0  0  0  0  0  0  0  0  0  0  0  0
   -1.6020   -4.8810   -1.2540 O   0  0  0  0  0  0  0  0  0  0  0  0
   -0.9200   -0.4100    0.5610 C   0  0  0  0  0  0  0  0  0  0  0  0
   -0.3410    0.7710    0.3210 C   0  0  0  0  0  0  0  0  0  0  0  0
   -1.1170    1.9520   -0.1100 C   0  0  0  0  0  0  0  0  0  0  0  0
   -0.5730    3.0030   -0.4030 O   0  0  0  0  0  0  0  0  0  0  0  0
   -2.5830    1.7860   -0.1350 C   0  0  0  0  0  0  0  0  0  0  0  0
   -3.3830    2.7710    0.2710 C   0  0  0  0  0  0  0  0  0  0  0  0
   -4.8710    2.5890    0.3560 C   0  0  1  0  0  0  0  0  0  0  0  0
   -5.2000    1.1040    0.5700 C   0  0  0  0  0  0  0  0  0  0  0  0
   -4.5740    0.3140   -0.5700 C   0  0  0  0  0  0  0  0  0  0  0  0
   -3.0450    0.4280   -0.5550 C   0  0  2  0  0  0  0  0  0  0  0  0
   -2.4010   -0.5270    0.4430 C   0  0  0  0  0  0  0  0  0  0  0  0
   -3.0440   -1.3070    1.1140 O   0  0  0  0  0  0  0  0  0  0  0  0
   -2.5150    0.0940   -1.9500 C   0  0  0  0  0  0  0  0  0  0  0  0
   -5.3940    3.2550    1.4690 O   0  0  0  0  0  0  0  0  0  0  0  0
  2  1  1  1
  2  3  1  0
  2  9  1  0
  3  4  1  0
  4  5  1  0
  5  6  1  0
  6  8  1  0
  6  7  1  0
  9 13  1  0
  9 10  1  1
 10 11  1  0
 11 12  1  0
 12 13  1  0
 12 18  1  6
 13 14  1  6
 13 15  1  0
 15 16  1  0
 16 17  1  0
 18 19  2  0
 18 28  1  0
 19 20  1  0
 20 21  2  0
 20 22  1  0
 22 27  1  0
 22 23  2  0
 23 24  1  0
 24 25  1  0
 24 31  1  1
 25 26  1  0
 26 27  1  0
 27 30  1  6
 27 28  1  0
 28 29  2  0
M  END
>  <id>  (24) 
233

>  <scaffolds>  (24) 
['C1=CCCCC1', 'O=C1C=CCCC1', 'C=C1CCC=CC1=O']

>  <name>  (24) 
3[alpha],11-dihydroxy-9,11-seco-cholest-4,7-dien-6,9-dione

>  <formula>  (24) 
C27H42O4

>  <SMILES>  (24) 
C[C@H](CCCC(C)C)[C@H]1CC[C@H]([C@]1(C)CCO)C2=CC(=O)C3=C[C@@H](CC[C@@]3(C2=O)C)O

>  <ChEMBL_id>  (24) 
CHEMBL401943

>  <ZINC_id>  (24) 


>  <PubChem_id>  (24) 


>  <DrugBank_id>  (24) 


>  <CAS_no>  (24) 
1015763-02-6

>  <references>  (24) 
[{'journal': {'name': 'Journal of Natural Products', 'id': 5}, 'title': 'Bioactive metabolites from the South African marine mollusk Trimusculus costatus', 'year': 2008, 'start_page': 420, 'volume': 71, 'issue': 3, 'doi': '10.1021/np070612y ', 'isbn': '', 'despositor': {'code': 'TMM', 'first_name': 'Thommas', 'last_name': 'Musyoka', 'id': 22}, 'refauthors_set': [{'author': {'first_name': '', 'initials': 'AW', 'last_name': 'van Wyk', 'id': 537}, 'first_author': True, 'id': 714}, {'author': {'first_name': '', 'initials': 'CA', 'last_name': 'Gray', 'id': 480}, 'first_author': False, 'id': 715}, {'author': {'first_name': 'Catherine', 'initials': 'CE', 'last_name': 'Whibley', 'id': 497}, 'first_author': False, 'id': 716}, {'author': {'first_name': '', 'initials': 'O', 'last_name': 'Omolaja', 'id': 538}, 'first_author': False, 'id': 717}, {'author': {'first_name': 'Denver', 'initials': 'DT', 'last_name': 'Hendricks', 'id': 498}, 'first_author': False, 'id': 718}, {'author': {'first_name': '', 'initials': 'RC', 'last_name': 'Mino', 'id': 540}, 'first_author': False, 'id': 719}, {'author': {'first_name': 'Michael', 'initials': 'MT', 'last_name': 'Davies-Coleman', 'id': 449}, 'first_author': False, 'id': 720}], 'id': 256}]

>  <classifications>  (24) 
[{'classification': 'Diterpene', 'id': 771}, {'classification': 'Terpenoid', 'id': 839}, {'classification': 'Phenol lipids (Classyfire)', 'id': 951}]

>  <molecular_mass>  (24) 
430.62

>  <warheads>  (24) 
ab_unsat_carbonyl:3

>  <n_warheads>  (24) 
3

>  <max_tier>  (24) 
1

>  <pains_flag>  (24) 


>  <MW>  (24) 
430.6

>  <cLogP>  (24) 
5.03

>  <HBD>  (24) 
2

>  <HBA>  (24) 
4

>  <TPSA>  (24) 
74.6

>  <ArRings>  (24) 
0

$$$$
SANC00239_minRM1.pdb
     RDKit          3D

 14 16  0  0  0  0  0  0  0  0999 V2000
   -3.3320   -1.1960   -0.0760 N   0  0  0  0  0  0  0  0  0  0  0  0
   -2.0160   -0.7920   -0.0310 C   0  0  0  0  0  0  0  0  0  0  0  0
   -1.0030   -1.7030   -0.0310 C   0  0  0  0  0  0  0  0  0  0  0  0
    0.3940   -1.2950    0.0260 C   0  0  0  0  0  0  0  0  0  0  0  0
    1.3990   -2.1120    0.1170 N   0  0  0  0  0  0  0  0  0  0  0  0
    2.7480   -1.5460    0.2580 C   0  0  0  0  0  0  0  0  0  0  0  0
    3.0460   -0.0780   -0.1480 C   0  0  0  0  0  0  0  0  0  0  0  0
    1.8420    0.7600   -0.0560 C   0  0  0  0  0  0  0  0  0  0  0  0
    1.5920    2.1340   -0.0650 C   0  0  0  0  0  0  0  0  0  0  0  0
    0.2100    2.3290   -0.0280 N   0  0  0  0  0  0  0  0  0  0  0  0
   -0.4110    1.0880   -0.0000 C   0  0  0  0  0  0  0  0  0  0  0  0
   -1.8070    0.7000    0.0100 C   0  0  0  0  0  0  0  0  0  0  0  0
   -2.7280    1.5000    0.0420 O   0  0  0  0  0  0  0  0  0  0  0  0
    0.5880    0.1310   -0.0080 C   0  0  0  0  0  0  0  0  0  0  0  0
  1  2  1  0
  2  3  2  0
  2 12  1  0
  3  4  1  0
  4 14  1  0
  4  5  2  0
  5  6  1  0
  6  7  1  0
  7  8  1  0
  8  9  2  0
  8 14  1  0
  9 10  1  0
 10 11  1  0
 11 14  2  0
 11 12  1  0
 12 13  2  0
M  END
>  <id>  (25) 
239

>  <scaffolds>  (25) 
[]

>  <name>  (25) 
Makaluvamine I

>  <formula>  (25) 
C10H9N3O

>  <SMILES>  (25) 
Nc1cc3=NCCc2c[nH]c(c1=O)c23

>  <ChEMBL_id>  (25) 


>  <ZINC_id>  (25) 


>  <PubChem_id>  (25) 


>  <DrugBank_id>  (25) 


>  <CAS_no>  (25) 
138087-43-1

>  <references>  (25) 
[{'journal': {'name': 'Annals of the New York Academy of Sciences', 'id': 15}, 'title': 'Antiesophageal Cancer Activity from Southern African Marine Organisms', 'year': 2005, 'start_page': 405, 'volume': 1056, 'issue': None, 'doi': '10.1196/annals.1352.031', 'isbn': '', 'despositor': {'code': 'TMM', 'first_name': 'Thommas', 'last_name': 'Musyoka', 'id': 22}, 'refauthors_set': [{'author': {'first_name': 'Catherine', 'initials': 'CE', 'last_name': 'Whibley', 'id': 497}, 'first_author': True, 'id': 732}, {'author': {'first_name': '', 'initials': 'RA', 'last_name': 'Keyzers', 'id': 546}, 'first_author': False, 'id': 733}, {'author': {'first_name': '', 'initials': 'AG', 'last_name': 'Soper', 'id': 547}, 'first_author': False, 'id': 734}, {'author': {'first_name': 'Michael', 'initials': 'MT', 'last_name': 'Davies-Coleman', 'id': 449}, 'first_author': False, 'id': 735}, {'author': {'first_name': 'Toufiek', 'initials': 'T', 'last_name': 'Samaai', 'id': 517}, 'first_author': False, 'id': 736}, {'author': {'first_name': 'Denver', 'initials': 'DT', 'last_name': 'Hendricks', 'id': 498}, 'first_author': False, 'id': 737}], 'id': 264}]

>  <classifications>  (25) 
[{'classification': 'Alkaloid', 'id': 738}, {'classification': 'Makaluvamine', 'id': 793}, {'classification': 'Pyrroloiminoquinone', 'id': 820}, {'classification': 'Quinolines and derivatives (Classyfire)', 'id': 948}]

>  <molecular_mass>  (25) 
187.2

>  <warheads>  (25) 
ab_unsat_carbonyl:1

>  <n_warheads>  (25) 
1

>  <max_tier>  (25) 
1

>  <pains_flag>  (25) 
quinone_A(370)

>  <MW>  (25) 
187.2

>  <cLogP>  (25) 
0.4

>  <HBD>  (25) 
2

>  <HBA>  (25) 
3

>  <TPSA>  (25) 
71.2

>  <ArRings>  (25) 
1

$$$$
SANC00241_minRM1.pdb
     RDKit          3D

 22 24  0  0  0  0  0  0  0  0999 V2000
    7.0680    0.7510   -0.7300 C   0  0  0  0  0  0  0  0  0  0  0  0
    6.1240    0.8760    0.3060 O   0  0  0  0  0  0  0  0  0  0  0  0
    4.9080    0.2910    0.1180 C   0  0  0  0  0  0  0  0  0  0  0  0
    4.5000   -0.3760   -1.0360 C   0  0  0  0  0  0  0  0  0  0  0  0
    3.2190   -0.9090   -1.0820 C   0  0  0  0  0  0  0  0  0  0  0  0
    2.3500   -0.7620   -0.0040 C   0  0  0  0  0  0  0  0  0  0  0  0
    1.0110   -1.3260   -0.0910 C   0  0  0  0  0  0  0  0  0  0  0  0
   -0.1070   -0.6370    0.1610 C   0  0  0  0  0  0  0  0  0  0  0  0
   -0.1370    0.7980    0.5690 C   0  0  0  0  0  0  0  0  0  0  0  0
   -1.1640    1.5490   -0.0420 O   0  0  0  0  0  0  0  0  0  0  0  0
   -2.3940    0.9810   -0.0940 C   0  0  0  0  0  0  0  0  0  0  0  0
   -3.4630    1.8520   -0.2650 C   0  0  0  0  0  0  0  0  0  0  0  0
   -4.7440    1.2880   -0.3460 C   0  0  0  0  0  0  0  0  0  0  0  0
   -5.8550    2.0530   -0.4680 O   0  0  0  0  0  0  0  0  0  0  0  0
   -4.9790   -0.0830   -0.2670 C   0  0  0  0  0  0  0  0  0  0  0  0
   -3.8710   -0.9260   -0.1280 C   0  0  0  0  0  0  0  0  0  0  0  0
   -4.1280   -2.2370   -0.1110 O   0  0  0  0  0  0  0  0  0  0  0  0
   -2.5660   -0.4070   -0.0320 C   0  0  0  0  0  0  0  0  0  0  0  0
   -1.4220   -1.2850    0.0640 C   0  0  0  0  0  0  0  0  0  0  0  0
   -1.5690   -2.5080    0.0490 O   0  0  0  0  0  0  0  0  0  0  0  0
    2.7740   -0.0990    1.1480 C   0  0  0  0  0  0  0  0  0  0  0  0
    4.0490    0.4340    1.2170 C   0  0  0  0  0  0  0  0  0  0  0  0
  1  2  1  0
  2  3  1  0
  3  4  1  0
  3 22  2  0
  4  5  2  0
  5  6  1  0
  6  7  1  0
  6 21  2  0
  7  8  2  0
  8 19  1  0
  8  9  1  0
  9 10  1  0
 10 11  1  0
 11 12  2  0
 11 18  1  0
 12 13  1  0
 13 14  1  0
 13 15  2  0
 15 16  1  0
 16 17  1  0
 16 18  2  0
 18 19  1  0
 19 20  2  0
 21 22  1  0
M  END
>  <id>  (26) 
241

>  <scaffolds>  (26) 
['c1ccccc1', 'O=C1C(=Cc2ccccc2)COc2ccccc21', 'O=C(C=Cc1ccccc1)c1ccccc1', 'C(=Cc1ccccc1)Cc1ccccc1']

>  <name>  (26) 
(E)-Eucomin

>  <formula>  (26) 
C17H14O5

>  <SMILES>  (26) 
COc3ccc(/C=C/2COc1cc(O)cc(O)c1C2=O)cc3

>  <ChEMBL_id>  (26) 
CHEMBL476776

>  <ZINC_id>  (26) 


>  <PubChem_id>  (26) 
 12309803

>  <DrugBank_id>  (26) 


>  <CAS_no>  (26) 
17934-08-6

>  <references>  (26) 
[{'journal': {'name': 'Tetrahedron Letters', 'id': 3}, 'title': 'The homo-isoflavones, a new class of natural product. Isolation and structure of eucomin and eucomol', 'year': 1967, 'start_page': 3479, 'volume': 36, 'issue': None, 'doi': '10.1016/S0040-4039(01)89826-9', 'isbn': '', 'despositor': {'code': 'rah', 'first_name': 'Rowan', 'last_name': 'Hatherley', 'id': 20}, 'refauthors_set': [{'author': {'first_name': 'Christoph', 'initials': 'C', 'last_name': 'Tamm', 'id': 543}, 'first_author': False, 'id': 724}, {'author': {'first_name': '', 'initials': 'P', 'last_name': 'Bohler', 'id': 544}, 'first_author': True, 'id': 725}], 'id': 260}, {'journal': {'name': 'South African Journal of Botany', 'id': 1}, 'title': 'Homoisoflavanones and spirocyclic nortriterpenoids from three Eucomis species: E. comosa, E. schiffii and E. pallidiflora subsp. pole-evansii (Hyacinthaceae)', 'year': 2006, 'start_page': 428, 'volume': 72, 'issue': None, 'doi': '10.1016/j.sajb.2005.12.006', 'isbn': '', 'despositor': {'code': 'rah', 'first_name': 'Rowan', 'last_name': 'Hatherley', 'id': 20}, 'refauthors_set': [{'author': {'first_name': 'Chantal', 'initials': 'C', 'last_name': 'Koorbanally', 'id': 523}, 'first_author': True, 'id': 1034}, {'author': {'first_name': 'Neil', 'initials': 'NR', 'last_name': 'Crouch', 'id': 524}, 'first_author': None, 'id': 1035}, {'author': {'first_name': 'Angela', 'initials': 'A', 'last_name': 'Langlois', 'id': 712}, 'first_author': None, 'id': 1036}, {'author': {'first_name': 'Karen', 'initials': 'K', 'last_name': 'Du Toit', 'id': 713}, 'first_author': None, 'id': 1037}, {'author': {'first_name': 'Dulcie', 'initials': 'DA', 'last_name': 'Mulholland', 'id': 525}, 'first_author': None, 'id': 1038}, {'author': {'first_name': 'Siegfried', 'initials': 'SE', 'last_name': 'Drewes', 'id': 613}, 'first_author': None, 'id': 1039}], 'id': 344}]

>  <classifications>  (26) 
[{'classification': 'Flavonoids', 'id': 776}, {'classification': 'Homoisoflavonoid', 'id': 783}, {'classification': 'Homoisoflavonoids (Classyfire)', 'id': 964}]

>  <molecular_mass>  (26) 
298.29

>  <warheads>  (26) 
ab_unsat_carbonyl:1

>  <n_warheads>  (26) 
1

>  <max_tier>  (26) 
1

>  <pains_flag>  (26) 


>  <MW>  (26) 
298.3

>  <cLogP>  (26) 
2.77

>  <HBD>  (26) 
2

>  <HBA>  (26) 
5

>  <TPSA>  (26) 
76.0

>  <ArRings>  (26) 
2

$$$$
SANC00243_minRM1.pdb
     RDKit          3D

 24 26  0  0  0  0  0  0  0  0999 V2000
    7.2760    1.0700   -0.6330 C   0  0  0  0  0  0  0  0  0  0  0  0
    6.3280    1.0120    0.4030 O   0  0  0  0  0  0  0  0  0  0  0  0
    5.1570    0.3660    0.1500 C   0  0  0  0  0  0  0  0  0  0  0  0
    4.7950   -0.2000   -1.0700 C   0  0  0  0  0  0  0  0  0  0  0  0
    3.5550   -0.8190   -1.1800 C   0  0  0  0  0  0  0  0  0  0  0  0
    2.6910   -0.8680   -0.0910 C   0  0  0  0  0  0  0  0  0  0  0  0
    1.4040   -1.5370   -0.2240 C   0  0  0  0  0  0  0  0  0  0  0  0
    0.2390   -0.9650    0.1000 C   0  0  0  0  0  0  0  0  0  0  0  0
    0.1110    0.4200    0.6390 C   0  0  0  0  0  0  0  0  0  0  0  0
   -0.9770    1.1450    0.1010 O   0  0  0  0  0  0  0  0  0  0  0  0
   -2.1600    0.4910    0.0320 C   0  0  0  0  0  0  0  0  0  0  0  0
   -3.3110    1.2700   -0.0230 C   0  0  0  0  0  0  0  0  0  0  0  0
   -3.2670    2.6240    0.1690 O   0  0  0  0  0  0  0  0  0  0  0  0
   -2.8550    3.3230   -0.9850 C   0  0  0  0  0  0  0  0  0  0  0  0
   -4.5640    0.6370   -0.1440 C   0  0  0  0  0  0  0  0  0  0  0  0
   -5.7280    1.3120   -0.1740 O   0  0  0  0  0  0  0  0  0  0  0  0
   -4.6730   -0.7500   -0.2190 C   0  0  0  0  0  0  0  0  0  0  0  0
   -3.4990   -1.5100   -0.1820 C   0  0  0  0  0  0  0  0  0  0  0  0
   -3.6520   -2.8330   -0.2910 O   0  0  0  0  0  0  0  0  0  0  0  0
   -2.2340   -0.9040   -0.0510 C   0  0  0  0  0  0  0  0  0  0  0  0
   -1.0260   -1.7000   -0.0390 C   0  0  0  0  0  0  0  0  0  0  0  0
   -1.0830   -2.9260   -0.1480 O   0  0  0  0  0  0  0  0  0  0  0  0
    3.0710   -0.3090    1.1310 C   0  0  0  0  0  0  0  0  0  0  0  0
    4.2990    0.3150    1.2590 C   0  0  0  0  0  0  0  0  0  0  0  0
  1  2  1  0
  2  3  1  0
  3  4  1  0
  3 24  2  0
  4  5  2  0
  5  6  1  0
  6  7  1  0
  6 23  2  0
  7  8  2  0
  8 21  1  0
  8  9  1  0
  9 10  1  0
 10 11  1  0
 11 20  1  0
 11 12  2  0
 12 15  1  0
 12 13  1  0
 13 14  1  0
 15 17  2  0
 15 16  1  0
 17 18  1  0
 18 19  1  0
 18 20  2  0
 20 21  1  0
 21 22  2  0
 23 24  1  0
M  END
>  <id>  (27) 
243

>  <scaffolds>  (27) 
['c1ccccc1', 'O=C1C(=Cc2ccccc2)COc2ccccc21', 'O=C(C=Cc1ccccc1)c1ccccc1', 'C(=Cc1ccccc1)Cc1ccccc1']

>  <name>  (27) 
4'-O-methyl-punctatin

>  <formula>  (27) 
C18H16O6

>  <SMILES>  (27) 
COc3ccc(/C=C/2COc1c(OC)c(O)cc(O)c1C2=O)cc3

>  <ChEMBL_id>  (27) 


>  <ZINC_id>  (27) 


>  <PubChem_id>  (27) 


>  <DrugBank_id>  (27) 


>  <CAS_no>  (27) 
27434-98-6

>  <references>  (27) 
[{'journal': {'name': 'Phytochemistry: Advances in Research (Book)', 'id': 13}, 'title': 'Chapter 3: The phytochemistry and ethnobotany of the southern African genus Eucomis (Hyacinthaceae: Hyacinthoideae)', 'year': 2006, 'start_page': 69, 'volume': None, 'issue': None, 'doi': '', 'isbn': '81-308-0034-9', 'despositor': {'code': 'rah', 'first_name': 'Rowan', 'last_name': 'Hatherley', 'id': 20}, 'refauthors_set': [{'author': {'first_name': 'Chantal', 'initials': 'C', 'last_name': 'Koorbanally', 'id': 523}, 'first_author': True, 'id': 851}, {'author': {'first_name': 'Neil', 'initials': 'NR', 'last_name': 'Crouch', 'id': 524}, 'first_author': False, 'id': 852}, {'author': {'first_name': 'Dulcie', 'initials': 'DA', 'last_name': 'Mulholland', 'id': 525}, 'first_author': False, 'id': 853}], 'id': 259}, {'journal': {'name': 'Tetrahedron Letters', 'id': 3}, 'title': "The homo-isoflavones II1). Isolation and structure of 4'-o-methyl-punctatin, autumnalin and 3,9-dihydro-autumnalin", 'year': 1970, 'start_page': 475, 'volume': 11, 'issue': 7, 'doi': '10.1016/0040-4039(70)89003-7', 'isbn': '', 'despositor': {'code': 'rah', 'first_name': 'Rowan', 'last_name': 'Hatherley', 'id': 20}, 'refauthors_set': [{'author': {'first_name': 'Christoph', 'initials': 'C', 'last_name': 'Tamm', 'id': 543}, 'first_author': False, 'id': 726}, {'author': {'first_name': '', 'initials': 'WTL', 'last_name': 'Sidwell', 'id': 541}, 'first_author': True, 'id': 727}], 'id': 261}]

>  <classifications>  (27) 
[{'classification': 'Flavonoids', 'id': 776}, {'classification': 'Homoisoflavonoid', 'id': 783}, {'classification': 'Homoisoflavonoids (Classyfire)', 'id': 964}]

>  <molecular_mass>  (27) 
328.32

>  <warheads>  (27) 
ab_unsat_carbonyl:1

>  <n_warheads>  (27) 
1

>  <max_tier>  (27) 
1

>  <pains_flag>  (27) 


>  <MW>  (27) 
328.3

>  <cLogP>  (27) 
2.77

>  <HBD>  (27) 
2

>  <HBA>  (27) 
6

>  <TPSA>  (27) 
85.2

>  <ArRings>  (27) 
2

$$$$
SANC00244_minRM1.pdb
     RDKit          3D

 23 25  0  0  0  0  0  0  0  0999 V2000
    5.8760   -0.6120   -0.9360 C   0  0  0  0  0  0  0  0  0  0  0  0
    5.2790   -0.2420    0.2850 O   0  0  0  0  0  0  0  0  0  0  0  0
    3.9940    0.2050    0.1330 C   0  0  0  0  0  0  0  0  0  0  0  0
    3.7320    1.5730    0.2860 C   0  0  0  0  0  0  0  0  0  0  0  0
    4.6940    2.4920    0.4810 O   0  0  0  0  0  0  0  0  0  0  0  0
    2.4240    2.0730    0.2480 C   0  0  0  0  0  0  0  0  0  0  0  0
    1.3900    1.1650    0.0680 C   0  0  0  0  0  0  0  0  0  0  0  0
    0.1320    1.6760    0.1070 O   0  0  0  0  0  0  0  0  0  0  0  0
   -0.8760    0.9200   -0.5310 C   0  0  0  0  0  0  0  0  0  0  0  0
   -0.8420   -0.5310   -0.1830 C   0  0  0  0  0  0  0  0  0  0  0  0
   -1.9330   -1.2640    0.0690 C   0  0  0  0  0  0  0  0  0  0  0  0
   -3.2830   -0.7160    0.0430 C   0  0  0  0  0  0  0  0  0  0  0  0
   -3.7700   -0.0970   -1.1040 C   0  0  0  0  0  0  0  0  0  0  0  0
   -5.0670    0.4000   -1.1320 C   0  0  0  0  0  0  0  0  0  0  0  0
   -5.8600    0.2720    0.0100 C   0  0  0  0  0  0  0  0  0  0  0  0
   -7.1160    0.7670    0.0840 O   0  0  0  0  0  0  0  0  0  0  0  0
   -5.3810   -0.3470    1.1710 C   0  0  0  0  0  0  0  0  0  0  0  0
   -4.0900   -0.8460    1.1760 C   0  0  0  0  0  0  0  0  0  0  0  0
    0.4970   -1.1340   -0.1490 C   0  0  0  0  0  0  0  0  0  0  0  0
    0.6880   -2.3550   -0.1690 O   0  0  0  0  0  0  0  0  0  0  0  0
    1.6120   -0.2120   -0.0670 C   0  0  0  0  0  0  0  0  0  0  0  0
    2.9320   -0.6920   -0.0390 C   0  0  0  0  0  0  0  0  0  0  0  0
    3.2410   -1.9830   -0.1840 O   0  0  0  0  0  0  0  0  0  0  0  0
  1  2  1  0
  2  3  1  0
  3 22  2  0
  3  4  1  0
  4  6  2  0
  4  5  1  0
  6  7  1  0
  7 21  2  0
  7  8  1  0
  8  9  1  0
  9 10  1  0
 10 19  1  0
 10 11  2  0
 11 12  1  0
 12 13  1  0
 12 18  2  0
 13 14  2  0
 14 15  1  0
 15 16  1  0
 15 17  2  0
 17 18  1  0
 19 20  2  0
 19 21  1  0
 21 22  1  0
 22 23  1  0
M  END
>  <id>  (28) 
244

>  <scaffolds>  (28) 
['c1ccccc1', 'O=C1C(=Cc2ccccc2)COc2ccccc21', 'O=C(C=Cc1ccccc1)c1ccccc1', 'C(=Cc1ccccc1)Cc1ccccc1']

>  <name>  (28) 
Eucomnalin

>  <formula>  (28) 
C17H14O6

>  <SMILES>  (28) 
COc3c(O)cc2OC\C(=C/c1ccc(O)cc1)C(=O)c2c3O

>  <ChEMBL_id>  (28) 


>  <ZINC_id>  (28) 


>  <PubChem_id>  (28) 


>  <DrugBank_id>  (28) 


>  <CAS_no>  (28) 
27435-01-4

>  <references>  (28) 
[{'journal': {'name': 'Phytochemistry: Advances in Research (Book)', 'id': 13}, 'title': 'Chapter 3: The phytochemistry and ethnobotany of the southern African genus Eucomis (Hyacinthaceae: Hyacinthoideae)', 'year': 2006, 'start_page': 69, 'volume': None, 'issue': None, 'doi': '', 'isbn': '81-308-0034-9', 'despositor': {'code': 'rah', 'first_name': 'Rowan', 'last_name': 'Hatherley', 'id': 20}, 'refauthors_set': [{'author': {'first_name': 'Chantal', 'initials': 'C', 'last_name': 'Koorbanally', 'id': 523}, 'first_author': True, 'id': 851}, {'author': {'first_name': 'Neil', 'initials': 'NR', 'last_name': 'Crouch', 'id': 524}, 'first_author': False, 'id': 852}, {'author': {'first_name': 'Dulcie', 'initials': 'DA', 'last_name': 'Mulholland', 'id': 525}, 'first_author': False, 'id': 853}], 'id': 259}, {'journal': {'name': 'Tetrahedron Letters', 'id': 3}, 'title': "The homo-isoflavones II1). Isolation and structure of 4'-o-methyl-punctatin, autumnalin and 3,9-dihydro-autumnalin", 'year': 1970, 'start_page': 475, 'volume': 11, 'issue': 7, 'doi': '10.1016/0040-4039(70)89003-7', 'isbn': '', 'despositor': {'code': 'rah', 'first_name': 'Rowan', 'last_name': 'Hatherley', 'id': 20}, 'refauthors_set': [{'author': {'first_name': 'Christoph', 'initials': 'C', 'last_name': 'Tamm', 'id': 543}, 'first_author': False, 'id': 726}, {'author': {'first_name': '', 'initials': 'WTL', 'last_name': 'Sidwell', 'id': 541}, 'first_author': True, 'id': 727}], 'id': 261}, {'journal': {'name': 'Tetrahedron Letters', 'id': 3}, 'title': "Errata: The homo-isoflavones II1). Isolation and structure of 4'-o-methyl-punctatin, autumnalin and 3,9-dihydro-autumnalin", 'year': 1970, 'start_page': 1578, 'volume': 11, 'issue': 19, 'doi': '10.1016/S0040-4039(01)98026-8', 'isbn': '', 'despositor': {'code': 'rah', 'first_name': 'Rowan', 'last_name': 'Hatherley', 'id': 20}, 'refauthors_set': [{'author': {'first_name': 'Christoph', 'initials': 'C', 'last_name': 'Tamm', 'id': 543}, 'first_author': False, 'id': 728}, {'author': {'first_name': '', 'initials': 'WTL', 'last_name': 'Sidwell', 'id': 541}, 'first_author': True, 'id': 729}], 'id': 262}]

>  <classifications>  (28) 
[{'classification': 'Flavonoids', 'id': 776}, {'classification': 'Homoisoflavonoid', 'id': 783}, {'classification': 'Homoisoflavonoids (Classyfire)', 'id': 964}]

>  <molecular_mass>  (28) 
314.29

>  <warheads>  (28) 
ab_unsat_carbonyl:1

>  <n_warheads>  (28) 
1

>  <max_tier>  (28) 
1

>  <pains_flag>  (28) 


>  <MW>  (28) 
314.3

>  <cLogP>  (28) 
2.47

>  <HBD>  (28) 
3

>  <HBA>  (28) 
6

>  <TPSA>  (28) 
96.2

>  <ArRings>  (28) 
2

$$$$
SANC00246_minRM1.pdb
     RDKit          3D

 48 50  0  0  1  0  0  0  0  0999 V2000
    8.2150    1.3270    0.1270 C   0  0  0  0  0  0  0  0  0  0  0  0
    9.3590    0.7090    0.1660 C   0  0  0  0  0  0  0  0  0  0  0  0
   10.4940    0.0800    0.1970 C   0  0  0  0  0  0  0  0  0  0  0  0
   11.1250   -0.3460    1.4930 C   0  0  0  0  0  0  0  0  0  0  0  0
   10.4820    0.3990    2.6690 C   0  0  0  0  0  0  0  0  0  0  0  0
   10.9040   -1.8470    1.6900 C   0  0  0  0  0  0  0  0  0  0  0  0
   12.6230   -0.0220    1.4780 C   0  0  0  0  0  0  0  0  0  0  0  0
   13.2740   -0.6200    0.2270 C   0  0  2  0  0  0  0  0  0  0  0  0
   14.6410   -0.2540    0.3300 O   0  0  0  0  0  0  0  0  0  0  0  0
   15.5410   -0.8830   -0.4640 C   0  0  0  0  0  0  0  0  0  0  0  0
   16.9280   -0.3760   -0.2270 C   0  0  0  0  0  0  0  0  0  0  0  0
   15.1940   -1.7430   -1.2530 O   0  0  0  0  0  0  0  0  0  0  0  0
   12.6770    0.0190   -1.0260 C   0  0  0  0  0  0  0  0  0  0  0  0
   11.1750   -0.3000   -1.0980 C   0  0  2  0  0  0  0  0  0  0  0  0
   10.5620    0.4320   -2.3020 C   0  0  0  0  0  0  0  0  0  0  0  0
   10.9490   -1.6750   -1.2230 O   0  0  0  0  0  0  0  0  0  0  0  0
    6.9570    0.5890    0.0590 C   0  0  0  0  0  0  0  0  0  0  0  0
    7.0610   -0.8940    0.0760 C   0  0  0  0  0  0  0  0  0  0  0  0
    5.7870    1.2480   -0.0060 C   0  0  0  0  0  0  0  0  0  0  0  0
    4.5130    0.5610   -0.0910 C   0  0  0  0  0  0  0  0  0  0  0  0
    3.3450    1.1980    0.0710 C   0  0  0  0  0  0  0  0  0  0  0  0
    2.0590    0.5180   -0.0070 C   0  0  0  0  0  0  0  0  0  0  0  0
    2.0570   -0.9680    0.0440 C   0  0  0  0  0  0  0  0  0  0  0  0
    0.9250    1.2380   -0.0900 C   0  0  0  0  0  0  0  0  0  0  0  0
   -0.3900    0.6350   -0.1610 C   0  0  0  0  0  0  0  0  0  0  0  0
   -1.5060    1.3610    0.0000 C   0  0  0  0  0  0  0  0  0  0  0  0
   -2.8220    0.7580   -0.0670 C   0  0  0  0  0  0  0  0  0  0  0  0
   -3.9560    1.4790   -0.1350 C   0  0  0  0  0  0  0  0  0  0  0  0
   -3.9550    2.9640   -0.1890 C   0  0  0  0  0  0  0  0  0  0  0  0
   -5.2400    0.7940   -0.1850 C   0  0  0  0  0  0  0  0  0  0  0  0
   -6.4200    1.4220   -0.0920 C   0  0  0  0  0  0  0  0  0  0  0  0
   -7.6660    0.6800   -0.1400 C   0  0  0  0  0  0  0  0  0  0  0  0
   -8.8770    1.2620   -0.1970 C   0  0  0  0  0  0  0  0  0  0  0  0
   -9.0630    2.7330   -0.2510 C   0  0  0  0  0  0  0  0  0  0  0  0
  -10.0820    0.4030   -0.2320 C   0  0  0  0  0  0  0  0  0  0  0  0
   -9.9810   -0.8140   -0.2250 O   0  0  0  0  0  0  0  0  0  0  0  0
  -11.4320    1.0720   -0.2960 C   0  0  0  0  0  0  0  0  0  0  0  0
  -12.5410    0.0500   -0.1610 C   0  0  1  0  0  0  0  0  0  0  0  0
  -13.5900    0.2020   -1.1080 O   0  0  0  0  0  0  0  0  0  0  0  0
  -12.7500   -0.9230   -1.2980 C   0  0  1  0  0  0  0  0  0  0  0  0
  -11.9040   -0.8860   -2.5440 C   0  0  0  0  0  0  0  0  0  0  0  0
  -13.3710   -2.2740   -1.0550 C   0  0  0  0  0  0  0  0  0  0  0  0
  -14.1160   -2.3160    0.2870 C   0  0  1  0  0  0  0  0  0  0  0  0
  -14.4120   -3.6390    0.6370 O   0  0  0  0  0  0  0  0  0  0  0  0
  -13.1980   -1.7940    1.3970 C   0  0  0  0  0  0  0  0  0  0  0  0
  -13.0010   -0.2800    1.2580 C   0  0  0  0  0  0  0  0  0  0  0  0
  -11.9760    0.1550    2.3090 C   0  0  0  0  0  0  0  0  0  0  0  0
  -14.3150    0.4500    1.5490 C   0  0  0  0  0  0  0  0  0  0  0  0
  1 17  1  0
  1  2  2  0
  2  3  2  0
  3 14  1  0
  3  4  1  0
  4  7  1  0
  4  6  1  0
  4  5  1  0
  7  8  1  0
  8 13  1  0
  8  9  1  1
  9 10  1  0
 10 12  2  0
 10 11  1  0
 13 14  1  0
 14 15  1  6
 14 16  1  0
 17 19  2  0
 17 18  1  0
 19 20  1  0
 20 21  2  0
 21 22  1  0
 22 24  2  0
 22 23  1  0
 24 25  1  0
 25 26  2  0
 26 27  1  0
 27 28  2  0
 28 29  1  0
 28 30  1  0
 30 31  2  0
 31 32  1  0
 32 33  2  0
 33 34  1  0
 33 35  1  0
 35 37  1  0
 35 36  2  0
 38 37  1  1
 38 40  1  0
 38 39  1  0
 38 46  1  0
 39 40  1  0
 40 41  1  6
 40 42  1  0
 42 43  1  0
 43 44  1  1
 43 45  1  0
 45 46  1  0
 46 48  1  0
 46 47  1  0
M  END
>  <id>  (29) 
246

>  <scaffolds>  (29) 
['C1CCCCC1', 'O=C(C=CC=CC=CC=CC=CC=CC=CC=C=C1CCCCC1)CC12CCCCC1O2']

>  <name>  (29) 
Fucoxanthin

>  <formula>  (29) 
C42H58O6

>  <SMILES>  (29) 
[H]C(=[C@]=C1C(C)(C)C[C@H](OC(C)=O)C[C@@]1(C)O)/C(C)=C/C=C/C(C)=C/C=C/C=C(C)/C=C/C=C(C)/C(=O)C[C@@]23O[C@]2(C)C[C@@H](O)CC3(C)C

>  <ChEMBL_id>  (29) 


>  <ZINC_id>  (29) 


>  <PubChem_id>  (29) 
 5281239

>  <DrugBank_id>  (29) 


>  <CAS_no>  (29) 
3351-86-8

>  <references>  (29) 
[{'journal': {'name': 'Narurforsch', 'id': 16}, 'title': 'Fucoxanthin, Tetraprenylated Toluquinone and Toluhydroquinone Metabolites from Sargassum heterophyllum Inhibit the in vitro Growth of the Malaria Parasite Plasmodium falciparum Anthonia', 'year': 2008, 'start_page': 848, 'volume': 63, 'issue': None, 'doi': '', 'isbn': '', 'despositor': {'code': 'DLP', 'first_name': 'David', 'last_name': 'Penkler', 'id': 23}, 'refauthors_set': [{'author': {'first_name': 'Anthonia ', 'initials': 'AF', 'last_name': 'Afolayan', 'id': 548}, 'first_author': True, 'id': 738}, {'author': {'first_name': 'John', 'initials': 'JJ', 'last_name': 'Bolton', 'id': 500}, 'first_author': False, 'id': 739}, {'author': {'first_name': 'Carmen', 'initials': 'CA', 'last_name': 'Lategan', 'id': 488}, 'first_author': False, 'id': 740}, {'author': {'first_name': 'Peter', 'initials': 'PJ', 'last_name': 'Smith', 'id': 490}, 'first_author': False, 'id': 741}, {'author': {'first_name': 'Denzil', 'initials': 'DR', 'last_name': 'Beukes', 'id': 453}, 'first_author': False, 'id': 742}], 'id': 265}]

>  <classifications>  (29) 
[{'classification': 'Xanthophyll', 'id': 847}, {'classification': 'Phenol lipids (Classyfire)', 'id': 951}]

>  <molecular_mass>  (29) 
658.9

>  <warheads>  (29) 
ab_unsat_carbonyl:1

>  <n_warheads>  (29) 
1

>  <max_tier>  (29) 
1

>  <pains_flag>  (29) 


>  <MW>  (29) 
658.9

>  <cLogP>  (29) 
8.69

>  <HBD>  (29) 
2

>  <HBA>  (29) 
6

>  <TPSA>  (29) 
96.4

>  <ArRings>  (29) 
0

$$$$
SANC00247_minRM1.pdb
     RDKit          3D

 31 31  0  0  0  0  0  0  0  0999 V2000
   -8.7820    1.6040   -1.6620 C   0  0  0  0  0  0  0  0  0  0  0  0
   -9.2910    0.8890   -0.4630 C   0  0  0  0  0  0  0  0  0  0  0  0
  -10.7410    1.0750   -0.1810 C   0  0  0  0  0  0  0  0  0  0  0  0
   -8.5240    0.1280    0.3190 C   0  0  0  0  0  0  0  0  0  0  0  0
   -7.0740   -0.1290    0.0990 C   0  0  0  0  0  0  0  0  0  0  0  0
   -6.3000    0.1330    1.3940 C   0  0  0  0  0  0  0  0  0  0  0  0
   -4.8430   -0.1020    1.1730 C   0  0  0  0  0  0  0  0  0  0  0  0
   -3.9600    0.8690    0.9460 C   0  0  0  0  0  0  0  0  0  0  0  0
   -2.5030    0.6500    0.7340 C   0  0  0  0  0  0  0  0  0  0  0  0
   -2.0920    1.1720   -0.6460 C   0  0  0  0  0  0  0  0  0  0  0  0
   -0.6150    1.0010   -0.8090 C   0  0  0  0  0  0  0  0  0  0  0  0
    0.2370    2.0290   -0.1570 C   0  0  0  0  0  0  0  0  0  0  0  0
   -0.1210   -0.0330   -1.4940 C   0  0  0  0  0  0  0  0  0  0  0  0
    1.3290   -0.3000   -1.7090 C   0  0  0  0  0  0  0  0  0  0  0  0
    1.6950   -1.6530   -1.0920 C   0  0  0  0  0  0  0  0  0  0  0  0
    3.1620   -1.8970   -1.2550 C   0  0  0  0  0  0  0  0  0  0  0  0
    3.6140   -2.2800   -2.6180 C   0  0  0  0  0  0  0  0  0  0  0  0
    3.9940   -1.7580   -0.2200 C   0  0  0  0  0  0  0  0  0  0  0  0
    5.4650   -1.9990   -0.2770 C   0  0  0  0  0  0  0  0  0  0  0  0
    6.1600   -0.7870    0.2550 C   0  0  0  0  0  0  0  0  0  0  0  0
    6.5290   -0.6880    1.5340 C   0  0  0  0  0  0  0  0  0  0  0  0
    7.1850    0.5270    2.0530 C   0  0  0  0  0  0  0  0  0  0  0  0
    7.6630    0.5610    3.1740 O   0  0  0  0  0  0  0  0  0  0  0  0
    7.2250    1.7040    1.1640 C   0  0  0  0  0  0  0  0  0  0  0  0
    6.8580    1.6150   -0.1160 C   0  0  0  0  0  0  0  0  0  0  0  0
    6.8850    2.7750   -1.0410 C   0  0  0  0  0  0  0  0  0  0  0  0
    6.4130    0.3220   -0.6960 C   0  0  0  0  0  0  0  0  0  0  0  0
    6.2790    0.1820   -1.8990 O   0  0  0  0  0  0  0  0  0  0  0  0
   -4.4570   -1.5220    1.2030 C   0  0  0  0  0  0  0  0  0  0  0  0
   -4.6890   -2.3860    0.3740 O   0  0  0  0  0  0  0  0  0  0  0  0
   -3.7830   -1.8500    2.3280 O   0  0  0  0  0  0  0  0  0  0  0  0
  1  2  1  0
  2  3  1  0
  2  4  2  3
  4  5  1  0
  5  6  1  0
  6  7  1  0
  7  8  2  0
  7 29  1  0
  8  9  1  0
  9 10  1  0
 10 11  1  0
 11 13  2  0
 11 12  1  0
 13 14  1  0
 14 15  1  0
 15 16  1  0
 16 17  1  0
 16 18  2  0
 18 19  1  0
 19 20  1  0
 20 27  1  0
 20 21  2  0
 21 22  1  0
 22 24  1  0
 22 23  2  0
 24 25  2  0
 25 26  1  0
 25 27  1  0
 27 28  2  0
 29 30  2  0
 29 31  1  0
M  END
>  <id>  (30) 
247

>  <scaffolds>  (30) 
[]

>  <name>  (30) 
Sargaquinoic acid

>  <formula>  (30) 
C27H36O4

>  <SMILES>  (30) 
C/C(C)=C\CC/C(=C/CC/C(C)=C/CC/C(C)=C/Cc1cc(=O)cc(C)c1=O)C(=O)O

>  <ChEMBL_id>  (30) 


>  <ZINC_id>  (30) 


>  <PubChem_id>  (30) 
 9802458

>  <DrugBank_id>  (30) 


>  <CAS_no>  (30) 
70363-87-0

>  <references>  (30) 
[{'journal': {'name': 'Narurforsch', 'id': 16}, 'title': 'Fucoxanthin, Tetraprenylated Toluquinone and Toluhydroquinone Metabolites from Sargassum heterophyllum Inhibit the in vitro Growth of the Malaria Parasite Plasmodium falciparum Anthonia', 'year': 2008, 'start_page': 848, 'volume': 63, 'issue': None, 'doi': '', 'isbn': '', 'despositor': {'code': 'DLP', 'first_name': 'David', 'last_name': 'Penkler', 'id': 23}, 'refauthors_set': [{'author': {'first_name': 'Anthonia ', 'initials': 'AF', 'last_name': 'Afolayan', 'id': 548}, 'first_author': True, 'id': 738}, {'author': {'first_name': 'John', 'initials': 'JJ', 'last_name': 'Bolton', 'id': 500}, 'first_author': False, 'id': 739}, {'author': {'first_name': 'Carmen', 'initials': 'CA', 'last_name': 'Lategan', 'id': 488}, 'first_author': False, 'id': 740}, {'author': {'first_name': 'Peter', 'initials': 'PJ', 'last_name': 'Smith', 'id': 490}, 'first_author': False, 'id': 741}, {'author': {'first_name': 'Denzil', 'initials': 'DR', 'last_name': 'Beukes', 'id': 453}, 'first_author': False, 'id': 742}], 'id': 265}]

>  <classifications>  (30) 
[{'classification': 'Tetraprenyltoluquinol', 'id': 840}, {'classification': 'Phenol lipids (Classyfire)', 'id': 951}]

>  <molecular_mass>  (30) 
424.57

>  <warheads>  (30) 
ab_unsat_carbonyl:5;para_quinone:1

>  <n_warheads>  (30) 
6

>  <max_tier>  (30) 
2

>  <pains_flag>  (30) 
quinone_A(370)

>  <MW>  (30) 
424.6

>  <cLogP>  (30) 
6.61

>  <HBD>  (30) 
1

>  <HBA>  (30) 
3

>  <TPSA>  (30) 
71.4

>  <ArRings>  (30) 
0

$$$$
SANC00248_minRM1.pdb
     RDKit          3D

 30 30  0  0  0  0  0  0  0  0999 V2000
   10.7350    0.9700    0.4160 C   0  0  0  0  0  0  0  0  0  0  0  0
    9.2520    0.8620    0.5400 C   0  0  0  0  0  0  0  0  0  0  0  0
    8.5830    1.9740    1.2620 C   0  0  0  0  0  0  0  0  0  0  0  0
    8.6020   -0.1810    0.0200 C   0  0  0  0  0  0  0  0  0  0  0  0
    7.1280   -0.3800    0.0850 C   0  0  0  0  0  0  0  0  0  0  0  0
    6.5240   -0.2720   -1.3180 C   0  0  0  0  0  0  0  0  0  0  0  0
    5.0460   -0.4740   -1.2250 C   0  0  0  0  0  0  0  0  0  0  0  0
    4.5630   -1.8700   -1.1900 C   0  0  0  0  0  0  0  0  0  0  0  0
    5.2770   -2.8170   -1.4550 O   0  0  0  0  0  0  0  0  0  0  0  0
    4.2090    0.5640   -1.1340 C   0  0  0  0  0  0  0  0  0  0  0  0
    2.7280    0.4510   -1.0140 C   0  0  0  0  0  0  0  0  0  0  0  0
    2.2460    1.2350    0.2090 C   0  0  0  0  0  0  0  0  0  0  0  0
    0.7670    1.0620    0.3580 C   0  0  0  0  0  0  0  0  0  0  0  0
   -0.0790    1.8470   -0.5770 C   0  0  0  0  0  0  0  0  0  0  0  0
    0.2670    0.2380    1.2810 C   0  0  0  0  0  0  0  0  0  0  0  0
   -1.1850   -0.0030    1.5110 C   0  0  0  0  0  0  0  0  0  0  0  0
   -1.5250   -1.4530    1.1540 C   0  0  0  0  0  0  0  0  0  0  0  0
   -2.9770   -1.7020    1.4120 C   0  0  0  0  0  0  0  0  0  0  0  0
   -3.3690   -1.8550    2.8380 C   0  0  0  0  0  0  0  0  0  0  0  0
   -3.8480   -1.7600    0.4030 C   0  0  0  0  0  0  0  0  0  0  0  0
   -5.3090   -2.0160    0.5570 C   0  0  0  0  0  0  0  0  0  0  0  0
   -6.0520   -0.8920   -0.0910 C   0  0  0  0  0  0  0  0  0  0  0  0
   -6.4430   -0.9440   -1.3640 C   0  0  0  0  0  0  0  0  0  0  0  0
   -7.1390    0.1920   -2.0000 C   0  0  0  0  0  0  0  0  0  0  0  0
   -7.6650    0.0840   -3.0920 O   0  0  0  0  0  0  0  0  0  0  0  0
   -7.1430    1.4730   -1.2640 C   0  0  0  0  0  0  0  0  0  0  0  0
   -6.7530    1.5340    0.0100 C   0  0  0  0  0  0  0  0  0  0  0  0
   -6.7310    2.8000    0.7860 C   0  0  0  0  0  0  0  0  0  0  0  0
   -6.3300    0.3080    0.7350 C   0  0  0  0  0  0  0  0  0  0  0  0
   -6.2310    0.2910    1.9490 O   0  0  0  0  0  0  0  0  0  0  0  0
  1  2  1  0
  2  4  2  3
  2  3  1  0
  4  5  1  0
  5  6  1  0
  6  7  1  0
  7  8  1  0
  7 10  2  0
  8  9  2  0
 10 11  1  0
 11 12  1  0
 12 13  1  0
 13 14  1  0
 13 15  2  0
 15 16  1  0
 16 17  1  0
 17 18  1  0
 18 20  2  0
 18 19  1  0
 20 21  1  0
 21 22  1  0
 22 23  2  0
 22 29  1  0
 23 24  1  0
 24 25  2  0
 24 26  1  0
 26 27  2  0
 27 29  1  0
 27 28  1  0
 29 30  2  0
M  END
>  <id>  (31) 
248

>  <scaffolds>  (31) 
[]

>  <name>  (31) 
Sargaquinal

>  <formula>  (31) 
C27H36O3

>  <SMILES>  (31) 
C/C(C)=C/CC/C(C=O)=C/CC/C(C)=C/CC/C(C)=C/Cc1cc(=O)cc(C)c1=O

>  <ChEMBL_id>  (31) 


>  <ZINC_id>  (31) 


>  <PubChem_id>  (31) 


>  <DrugBank_id>  (31) 


>  <CAS_no>  (31) 
70363-88-1

>  <references>  (31) 
[{'journal': {'name': 'Narurforsch', 'id': 16}, 'title': 'Fucoxanthin, Tetraprenylated Toluquinone and Toluhydroquinone Metabolites from Sargassum heterophyllum Inhibit the in vitro Growth of the Malaria Parasite Plasmodium falciparum Anthonia', 'year': 2008, 'start_page': 848, 'volume': 63, 'issue': None, 'doi': '', 'isbn': '', 'despositor': {'code': 'DLP', 'first_name': 'David', 'last_name': 'Penkler', 'id': 23}, 'refauthors_set': [{'author': {'first_name': 'Anthonia ', 'initials': 'AF', 'last_name': 'Afolayan', 'id': 548}, 'first_author': True, 'id': 738}, {'author': {'first_name': 'John', 'initials': 'JJ', 'last_name': 'Bolton', 'id': 500}, 'first_author': False, 'id': 739}, {'author': {'first_name': 'Carmen', 'initials': 'CA', 'last_name': 'Lategan', 'id': 488}, 'first_author': False, 'id': 740}, {'author': {'first_name': 'Peter', 'initials': 'PJ', 'last_name': 'Smith', 'id': 490}, 'first_author': False, 'id': 741}, {'author': {'first_name': 'Denzil', 'initials': 'DR', 'last_name': 'Beukes', 'id': 453}, 'first_author': False, 'id': 742}], 'id': 265}]

>  <classifications>  (31) 
[{'classification': 'Tetraprenyltoluquinol', 'id': 840}, {'classification': 'Phenol lipids (Classyfire)', 'id': 951}]

>  <molecular_mass>  (31) 
408.57

>  <warheads>  (31) 
ab_unsat_carbonyl:5;para_quinone:1

>  <n_warheads>  (31) 
6

>  <max_tier>  (31) 
2

>  <pains_flag>  (31) 
quinone_A(370)

>  <MW>  (31) 
408.6

>  <cLogP>  (31) 
6.73

>  <HBD>  (31) 
0

>  <HBA>  (31) 
3

>  <TPSA>  (31) 
51.2

>  <ArRings>  (31) 
0

$$$$
SANC00250_minRM1.pdb
     RDKit          3D

 31 31  0  0  0  0  0  0  0  0999 V2000
   10.7470    1.0460   -0.0180 C   0  0  0  0  0  0  0  0  0  0  0  0
    9.2830    0.9950    0.2490 C   0  0  0  0  0  0  0  0  0  0  0  0
    8.7270    2.1470    1.0050 C   0  0  0  0  0  0  0  0  0  0  0  0
    8.5410   -0.0300   -0.1740 C   0  0  0  0  0  0  0  0  0  0  0  0
    7.0740   -0.1380    0.0600 C   0  0  0  0  0  0  0  0  0  0  0  0
    6.3410   -0.2260   -1.2810 C   0  0  0  0  0  0  0  0  0  0  0  0
    4.8750   -0.3770   -1.0410 C   0  0  0  0  0  0  0  0  0  0  0  0
    4.0260    0.6480   -1.0110 C   0  0  0  0  0  0  0  0  0  0  0  0
    2.5620    0.5220   -0.7640 C   0  0  0  0  0  0  0  0  0  0  0  0
    2.1900    1.2640    0.5220 C   0  0  0  0  0  0  0  0  0  0  0  0
    0.7170    1.1390    0.7520 C   0  0  0  0  0  0  0  0  0  0  0  0
   -0.1460    2.0160   -0.0850 C   0  0  0  0  0  0  0  0  0  0  0  0
    0.2360    0.2530    1.6260 C   0  0  0  0  0  0  0  0  0  0  0  0
   -1.2100    0.0190    1.8960 C   0  0  0  0  0  0  0  0  0  0  0  0
   -1.5830   -1.3980    1.4460 C   0  0  0  0  0  0  0  0  0  0  0  0
   -3.0580   -1.5950    1.6050 C   0  0  0  0  0  0  0  0  0  0  0  0
   -3.5360   -1.8380    2.9910 C   0  0  0  0  0  0  0  0  0  0  0  0
   -3.8650   -1.5460    0.5440 C   0  0  0  0  0  0  0  0  0  0  0  0
   -5.3420   -1.7400    0.5800 C   0  0  0  0  0  0  0  0  0  0  0  0
   -6.0080   -0.5220    0.0230 C   0  0  0  0  0  0  0  0  0  0  0  0
   -6.2900    0.5330    0.8850 C   0  0  0  0  0  0  0  0  0  0  0  0
   -6.9250    1.6680    0.3880 C   0  0  0  0  0  0  0  0  0  0  0  0
   -7.2790    2.7070    1.1920 O   0  0  0  0  0  0  0  0  0  0  0  0
   -7.2950    1.7760   -0.9550 C   0  0  0  0  0  0  0  0  0  0  0  0
   -6.9920    0.7390   -1.8230 C   0  0  0  0  0  0  0  0  0  0  0  0
   -7.3410    0.8250   -3.2640 C   0  0  0  0  0  0  0  0  0  0  0  0
   -6.3360   -0.4000   -1.3280 C   0  0  0  0  0  0  0  0  0  0  0  0
   -6.1070   -1.3870   -2.2370 O   0  0  0  0  0  0  0  0  0  0  0  0
    4.4490   -1.7640   -0.7930 C   0  0  0  0  0  0  0  0  0  0  0  0
    4.6550   -2.4490    0.1950 O   0  0  0  0  0  0  0  0  0  0  0  0
    3.7670   -2.2920   -1.8330 O   0  0  0  0  0  0  0  0  0  0  0  0
  1  2  1  0
  2  4  2  3
  2  3  1  0
  4  5  1  0
  5  6  1  0
  6  7  1  0
  7  8  2  0
  7 29  1  0
  8  9  1  0
  9 10  1  0
 10 11  1  0
 11 12  1  0
 11 13  2  0
 13 14  1  0
 14 15  1  0
 15 16  1  0
 16 18  2  0
 16 17  1  0
 18 19  1  0
 19 20  1  0
 20 27  1  0
 20 21  2  0
 21 22  1  0
 22 24  2  0
 22 23  1  0
 24 25  1  0
 25 26  1  0
 25 27  2  0
 27 28  1  0
 29 31  1  0
 29 30  2  0
M  END
>  <id>  (32) 
250

>  <scaffolds>  (32) 
['c1ccccc1']

>  <name>  (32) 
Sargahydroquinoic acid

>  <formula>  (32) 
C27H38O4

>  <SMILES>  (32) 
C/C(C)=C/CC/C(=C/CC/C(C)=C/CC/C(C)=C/Cc1cc(O)cc(C)c1O)C(=O)O

>  <ChEMBL_id>  (32) 


>  <ZINC_id>  (32) 


>  <PubChem_id>  (32) 


>  <DrugBank_id>  (32) 


>  <CAS_no>  (32) 
110360-00-4

>  <references>  (32) 
[{'journal': {'name': 'Narurforsch', 'id': 16}, 'title': 'Fucoxanthin, Tetraprenylated Toluquinone and Toluhydroquinone Metabolites from Sargassum heterophyllum Inhibit the in vitro Growth of the Malaria Parasite Plasmodium falciparum Anthonia', 'year': 2008, 'start_page': 848, 'volume': 63, 'issue': None, 'doi': '', 'isbn': '', 'despositor': {'code': 'DLP', 'first_name': 'David', 'last_name': 'Penkler', 'id': 23}, 'refauthors_set': [{'author': {'first_name': 'Anthonia ', 'initials': 'AF', 'last_name': 'Afolayan', 'id': 548}, 'first_author': True, 'id': 738}, {'author': {'first_name': 'John', 'initials': 'JJ', 'last_name': 'Bolton', 'id': 500}, 'first_author': False, 'id': 739}, {'author': {'first_name': 'Carmen', 'initials': 'CA', 'last_name': 'Lategan', 'id': 488}, 'first_author': False, 'id': 740}, {'author': {'first_name': 'Peter', 'initials': 'PJ', 'last_name': 'Smith', 'id': 490}, 'first_author': False, 'id': 741}, {'author': {'first_name': 'Denzil', 'initials': 'DR', 'last_name': 'Beukes', 'id': 453}, 'first_author': False, 'id': 742}], 'id': 265}]

>  <classifications>  (32) 
[{'classification': 'Tetraprenyltoluquinol', 'id': 840}, {'classification': 'Phenol lipids (Classyfire)', 'id': 951}]

>  <molecular_mass>  (32) 
426.59

>  <warheads>  (32) 
ab_unsat_carbonyl:1

>  <n_warheads>  (32) 
1

>  <max_tier>  (32) 
1

>  <pains_flag>  (32) 


>  <MW>  (32) 
426.6

>  <cLogP>  (32) 
7.16

>  <HBD>  (32) 
3

>  <HBA>  (32) 
3

>  <TPSA>  (32) 
77.8

>  <ArRings>  (32) 
1

$$$$
SANC00251_minRM1.pdb
     RDKit          3D

 23 26  0  0  1  0  0  0  0  0999 V2000
   -3.6950   -2.8090   -0.3250 N   0  0  0  0  0  0  0  0  0  0  0  0
   -3.1250   -1.5570   -0.2320 C   0  0  0  0  0  0  0  0  0  0  0  0
   -3.8840   -0.4620    0.0480 C   0  0  0  0  0  0  0  0  0  0  0  0
   -3.3030    0.8720    0.1290 C   0  0  0  0  0  0  0  0  0  0  0  0
   -3.9830    1.9610    0.3210 N   0  0  0  0  0  0  0  0  0  0  0  0
   -3.2680    3.2440    0.2920 C   0  0  0  0  0  0  0  0  0  0  0  0
   -1.7290    3.3100    0.4750 C   0  0  0  0  0  0  0  0  0  0  0  0
   -1.0830    2.0490    0.0850 C   0  0  0  0  0  0  0  0  0  0  0  0
    0.2370    1.6540   -0.1520 C   0  0  0  0  0  0  0  0  0  0  0  0
    0.2330    0.2860   -0.4380 N   0  0  0  0  0  0  0  0  0  0  0  0
    1.3800   -0.6020   -0.6750 C   0  0  1  0  0  0  0  0  0  0  0  0
    2.5000    0.1830   -0.9840 O   0  0  0  0  0  0  0  0  0  0  0  0
    3.4650    0.1070    0.0430 C   0  0  2  0  0  0  0  0  0  0  0  0
    4.8390    0.2540   -0.6370 C   0  0  0  0  0  0  0  0  0  0  0  0
    5.0450    1.6150   -0.8500 O   0  0  0  0  0  0  0  0  0  0  0  0
    3.2770   -1.2920    0.6790 C   0  0  1  0  0  0  0  0  0  0  0  0
    3.5900   -1.3410    2.0320 O   0  0  0  0  0  0  0  0  0  0  0  0
    1.7410   -1.4990    0.5600 C   0  0  1  0  0  0  0  0  0  0  0  0
    1.0870   -0.9820    1.6650 O   0  0  0  0  0  0  0  0  0  0  0  0
   -1.0740   -0.1890   -0.3370 C   0  0  0  0  0  0  0  0  0  0  0  0
   -1.6340   -1.5140   -0.4540 C   0  0  0  0  0  0  0  0  0  0  0  0
   -0.9690   -2.5110   -0.6960 O   0  0  0  0  0  0  0  0  0  0  0  0
   -1.8750    0.8990   -0.0400 C   0  0  0  0  0  0  0  0  0  0  0  0
  1  2  1  0
  2 21  1  0
  2  3  2  0
  3  4  1  0
  4 23  1  0
  4  5  2  0
  5  6  1  0
  6  7  1  0
  7  8  1  0
  8  9  2  0
  8 23  1  0
  9 10  1  0
 11 10  1  1
 10 20  1  0
 11 12  1  0
 11 18  1  0
 12 13  1  0
 13 14  1  6
 13 16  1  0
 14 15  1  0
 16 18  1  0
 16 17  1  1
 18 19  1  1
 20 21  1  0
 20 23  2  0
 21 22  2  0
M  END
>  <id>  (33) 
251

>  <scaffolds>  (33) 
[]

>  <name>  (33) 
N-1-[beta]-D-ribofuranosyl makaluvamine I

>  <formula>  (33) 
C15H17N3O5

>  <SMILES>  (33) 
Nc2cc4=NCCc3cn(C1O[C@H](CO)[C@@H](O)[C@H]1O)c(c2=O)c34

>  <ChEMBL_id>  (33) 


>  <ZINC_id>  (33) 


>  <PubChem_id>  (33) 


>  <DrugBank_id>  (33) 


>  <CAS_no>  (33) 
823802-86-4

>  <references>  (33) 
[{'journal': {'name': 'Tetrahedron Letters', 'id': 3}, 'title': 'Novel pyrroloquinoline ribosides from the South African latrunculid sponge Strongylodesma aliwaliensis', 'year': 2004, 'start_page': 9415, 'volume': 45, 'issue': 51, 'doi': '10.1016/j.tetlet.2004.10.106', 'isbn': '', 'despositor': {'code': 'TMM', 'first_name': 'Thommas', 'last_name': 'Musyoka', 'id': 22}, 'refauthors_set': [{'author': {'first_name': '', 'initials': 'RA', 'last_name': 'Keyzers', 'id': 546}, 'first_author': True, 'id': 750}, {'author': {'first_name': 'Toufiek', 'initials': 'T', 'last_name': 'Samaai', 'id': 517}, 'first_author': False, 'id': 751}, {'author': {'first_name': 'Michael', 'initials': 'MT', 'last_name': 'Davies-Coleman', 'id': 449}, 'first_author': False, 'id': 752}], 'id': 268}]

>  <classifications>  (33) 
[{'classification': 'Pyrroloquinoline', 'id': 821}, {'classification': 'Riboside', 'id': 824}, {'classification': 'Quinolines and derivatives (Classyfire)', 'id': 948}]

>  <molecular_mass>  (33) 
319.31

>  <warheads>  (33) 
ab_unsat_carbonyl:1

>  <n_warheads>  (33) 
1

>  <max_tier>  (33) 
1

>  <pains_flag>  (33) 
quinone_A(370)

>  <MW>  (33) 
319.3

>  <cLogP>  (33) 
-1.52

>  <HBD>  (33) 
4

>  <HBA>  (33) 
7

>  <TPSA>  (33) 
130.3

>  <ArRings>  (33) 
1

$$$$
SANC00253_minRM1.pdb
     RDKit          3D

 23 25  0  0  0  0  0  0  0  0999 V2000
    4.2380   -1.5100   -1.8340 C   0  0  0  0  0  0  0  0  0  0  0  0
    4.3740   -0.9610   -0.5400 O   0  0  0  0  0  0  0  0  0  0  0  0
    3.3830   -0.0630   -0.2480 C   0  0  0  0  0  0  0  0  0  0  0  0
    3.7030    1.3070   -0.1870 C   0  0  0  0  0  0  0  0  0  0  0  0
    4.9040    1.8030   -0.5470 O   0  0  0  0  0  0  0  0  0  0  0  0
    2.7840    2.2490    0.2820 C   0  0  0  0  0  0  0  0  0  0  0  0
    1.5170    1.8010    0.6670 C   0  0  0  0  0  0  0  0  0  0  0  0
    0.6670    2.7400    1.0910 O   0  0  0  0  0  0  0  0  0  0  0  0
    1.1580    0.4430    0.5870 C   0  0  0  0  0  0  0  0  0  0  0  0
   -0.1910    0.0030    0.8950 C   0  0  0  0  0  0  0  0  0  0  0  0
   -1.0120    0.7780    1.3820 O   0  0  0  0  0  0  0  0  0  0  0  0
   -0.4650   -1.4010    0.5630 C   0  0  0  0  0  0  0  0  0  0  0  0
   -1.6300   -1.8650    0.1070 C   0  0  0  0  0  0  0  0  0  0  0  0
   -2.7830   -1.0190   -0.1640 C   0  0  0  0  0  0  0  0  0  0  0  0
   -4.0380   -1.3960    0.3090 C   0  0  0  0  0  0  0  0  0  0  0  0
   -5.1480   -0.6050    0.0600 C   0  0  0  0  0  0  0  0  0  0  0  0
   -4.9780    0.5750   -0.6640 C   0  0  0  0  0  0  0  0  0  0  0  0
   -6.1070    1.2970   -0.8990 O   0  0  0  0  0  0  0  0  0  0  0  0
   -3.7350    0.9480   -1.1780 C   0  0  0  0  0  0  0  0  0  0  0  0
   -2.6370    0.1390   -0.9250 C   0  0  0  0  0  0  0  0  0  0  0  0
    0.7280   -2.2780    0.7690 C   0  0  0  0  0  0  0  0  0  0  0  0
    1.8620   -1.8090    0.0660 O   0  0  0  0  0  0  0  0  0  0  0  0
    2.1170   -0.4810    0.1550 C   0  0  0  0  0  0  0  0  0  0  0  0
  1  2  1  0
  2  3  1  0
  3  4  1  0
  3 23  2  0
  4  5  1  0
  4  6  2  0
  6  7  1  0
  7  9  2  0
  7  8  1  0
  9 23  1  0
  9 10  1  0
 10 12  1  0
 10 11  2  0
 12 13  2  0
 12 21  1  0
 13 14  1  0
 14 20  2  0
 14 15  1  0
 15 16  2  0
 16 17  1  0
 17 19  2  0
 17 18  1  0
 19 20  1  0
 21 22  1  0
 22 23  1  0
M  END
>  <id>  (34) 
253

>  <scaffolds>  (34) 
['c1ccccc1', 'O=C1C(=Cc2ccccc2)COc2ccccc21', 'O=C(C=Cc1ccccc1)c1ccccc1', 'C(=Cc1ccccc1)Cc1ccccc1']

>  <name>  (34) 
5,7-dihydroxy-8-methoxy-3-(4'-hydroxybenzylidene)-4-chromanone

>  <formula>  (34) 
C17H14O6

>  <SMILES>  (34) 
COc2c(O)cc(O)c3C(=O)C(=Cc1ccc(O)cc1)COc23

>  <ChEMBL_id>  (34) 


>  <ZINC_id>  (34) 


>  <PubChem_id>  (34) 


>  <DrugBank_id>  (34) 


>  <CAS_no>  (34) 
27181-63-1

>  <references>  (34) 
[{'journal': {'name': 'Phytochemistry: Advances in Research (Book)', 'id': 13}, 'title': 'Chapter 3: The phytochemistry and ethnobotany of the southern African genus Eucomis (Hyacinthaceae: Hyacinthoideae)', 'year': 2006, 'start_page': 69, 'volume': None, 'issue': None, 'doi': '', 'isbn': '81-308-0034-9', 'despositor': {'code': 'rah', 'first_name': 'Rowan', 'last_name': 'Hatherley', 'id': 20}, 'refauthors_set': [{'author': {'first_name': 'Chantal', 'initials': 'C', 'last_name': 'Koorbanally', 'id': 523}, 'first_author': True, 'id': 851}, {'author': {'first_name': 'Neil', 'initials': 'NR', 'last_name': 'Crouch', 'id': 524}, 'first_author': False, 'id': 852}, {'author': {'first_name': 'Dulcie', 'initials': 'DA', 'last_name': 'Mulholland', 'id': 525}, 'first_author': False, 'id': 853}], 'id': 259}, {'journal': {'name': 'Experientia', 'id': 14}, 'title': "The homo-isoflavones III. isolation and structure of punctatin, 3,9-dihydro-punctatin, 4'-O-methyl-3,9-dihydro-punctatin, 4'-demethyl-eucomin and 4'-demethyl-5-O-methyl-3,9-dihydro-eucomin", 'year': 1970, 'start_page': 472, 'volume': 26, 'issue': 5, 'doi': '10.1007/BF01898447', 'isbn': '1420-9071', 'despositor': {'code': 'rah', 'first_name': 'Rowan', 'last_name': 'Hatherley', 'id': 20}, 'refauthors_set': [{'author': {'first_name': 'Christoph', 'initials': 'C', 'last_name': 'Tamm', 'id': 543}, 'first_author': False, 'id': 730}, {'author': {'first_name': '', 'initials': 'RE', 'last_name': 'Finckh', 'id': 545}, 'first_author': True, 'id': 731}], 'id': 263}]

>  <classifications>  (34) 
[{'classification': 'Flavonoids', 'id': 776}, {'classification': 'Homoisoflavonoid', 'id': 783}, {'classification': 'Homoisoflavonoids (Classyfire)', 'id': 964}]

>  <molecular_mass>  (34) 
314.29

>  <warheads>  (34) 
ab_unsat_carbonyl:1

>  <n_warheads>  (34) 
1

>  <max_tier>  (34) 
1

>  <pains_flag>  (34) 


>  <MW>  (34) 
314.3

>  <cLogP>  (34) 
2.47

>  <HBD>  (34) 
3

>  <HBA>  (34) 
6

>  <TPSA>  (34) 
96.2

>  <ArRings>  (34) 
2

$$$$
SANC00255_minRM1.pdb
     RDKit          3D

 14 13  0  0  1  0  0  0  0  0999 V2000
    4.5680   -0.6550    0.1030 C   0  0  0  0  0  0  0  0  0  0  0  0
    3.3200   -1.0970    0.0200 C   0  0  0  0  0  0  0  0  0  0  0  0
    2.1430   -0.2090   -0.1410 C   0  0  2  0  0  0  0  0  0  0  0  0
    1.7950    0.0520   -1.5840 C   0  0  0  0  0  0  0  0  0  0  0  0
    2.5760    1.4650    0.6120 Cl  0  0  0  0  0  0  0  0  0  0  0  0
    0.9520   -0.6330    0.7030 C   0  0  2  0  0  0  0  0  0  0  0  0
    0.5100   -2.3340    0.0500 Cl  0  0  0  0  0  0  0  0  0  0  0  0
   -0.2030    0.2810    0.5630 C   0  0  0  0  0  0  0  0  0  0  0  0
   -1.3920   -0.0690    0.0750 C   0  0  0  0  0  0  0  0  0  0  0  0
   -2.4770    0.8970   -0.0250 C   0  0  0  0  0  0  0  0  0  0  0  0
   -2.1380    2.2930   -0.4080 C   0  0  0  0  0  0  0  0  0  0  0  0
   -1.2170    2.5270   -1.1700 O   0  0  0  0  0  0  0  0  0  0  0  0
   -3.7510    0.5620    0.1700 C   0  0  0  0  0  0  0  0  0  0  0  0
   -4.1700   -1.0620    0.5700 Cl  0  0  0  0  0  0  0  0  0  0  0  0
  1  2  2  0
  2  3  1  0
  3  4  1  6
  3  5  1  0
  3  6  1  0
  6  7  1  6
  6  8  1  0
  8  9  2  0
  9 10  1  0
 10 11  1  0
 10 13  2  0
 11 12  2  0
 13 14  1  0
M  END
>  <id>  (35) 
255

>  <scaffolds>  (35) 
[]

>  <name>  (35) 
3,7-Octadienal, 5,6-dichloro-2-(chloromethylene)-6-methyl-, (2E,3E,5S,6R)-

>  <formula>  (35) 
C10H11Cl3O

>  <SMILES>  (35) 
C=C[C@](C)(Cl)[C@H](Cl)/C=C/C(C=O)=C\Cl

>  <ChEMBL_id>  (35) 


>  <ZINC_id>  (35) 


>  <PubChem_id>  (35) 


>  <DrugBank_id>  (35) 


>  <CAS_no>  (35) 
380416-19-3

>  <references>  (35) 
[{'journal': {'name': 'Phytochemistry', 'id': 10}, 'title': 'Antiplasmodial halogenated monoterpenes from the marine red alga Plocamium cornutum', 'year': 2009, 'start_page': 597, 'volume': 70, 'issue': None, 'doi': '10.1016/j.phytochem.2009.02.010', 'isbn': '', 'despositor': {'code': 'DLP', 'first_name': 'David', 'last_name': 'Penkler', 'id': 23}, 'refauthors_set': [{'author': {'first_name': 'Anthonia ', 'initials': 'AF', 'last_name': 'Afolayan', 'id': 548}, 'first_author': True, 'id': 744}, {'author': {'first_name': 'Maryssa ', 'initials': 'MGA', 'last_name': 'Manna', 'id': 550}, 'first_author': False, 'id': 745}, {'author': {'first_name': 'Carmen', 'initials': 'CA', 'last_name': 'Lategan', 'id': 488}, 'first_author': False, 'id': 746}, {'author': {'first_name': 'Peter', 'initials': 'PJ', 'last_name': 'Smith', 'id': 490}, 'first_author': False, 'id': 747}, {'author': {'first_name': 'John', 'initials': 'JJ', 'last_name': 'Bolton', 'id': 500}, 'first_author': False, 'id': 748}, {'author': {'first_name': 'Denzil', 'initials': 'DR', 'last_name': 'Beukes', 'id': 453}, 'first_author': False, 'id': 749}], 'id': 267}]

>  <classifications>  (35) 
[{'classification': 'Monoterpene', 'id': 795}, {'classification': 'Terpenoid', 'id': 839}, {'classification': 'Organooxygen compounds (Classyfire)', 'id': 954}]

>  <molecular_mass>  (35) 
253.55

>  <warheads>  (35) 
ab_unsat_carbonyl:1

>  <n_warheads>  (35) 
1

>  <max_tier>  (35) 
1

>  <pains_flag>  (35) 


>  <MW>  (35) 
253.6

>  <cLogP>  (35) 
3.66

>  <HBD>  (35) 
0

>  <HBA>  (35) 
1

>  <TPSA>  (35) 
17.1

>  <ArRings>  (35) 
0

$$$$
SANC00258_minRM1.pdb
     RDKit          3D

 21 23  0  0  0  0  0  0  0  0999 V2000
   -0.4050    0.5240    1.3400 O   0  0  0  0  0  0  0  0  0  0  0  0
    0.2920   -0.2830    0.7310 C   0  0  0  0  0  0  0  0  0  0  0  0
   -0.1530   -1.6160    0.3020 C   0  0  0  0  0  0  0  0  0  0  0  0
   -1.3810   -1.9080   -0.1300 C   0  0  0  0  0  0  0  0  0  0  0  0
   -2.4520   -0.9280   -0.2470 C   0  0  0  0  0  0  0  0  0  0  0  0
   -3.7140   -1.2480    0.2520 C   0  0  0  0  0  0  0  0  0  0  0  0
   -4.7470   -0.3240    0.1910 C   0  0  0  0  0  0  0  0  0  0  0  0
   -4.4930    0.9240   -0.3790 C   0  0  0  0  0  0  0  0  0  0  0  0
   -5.5510    1.7780   -0.4800 O   0  0  0  0  0  0  0  0  0  0  0  0
   -3.2470    1.2440   -0.9200 C   0  0  0  0  0  0  0  0  0  0  0  0
   -2.2260    0.3070   -0.8520 C   0  0  0  0  0  0  0  0  0  0  0  0
    0.9410   -2.6300    0.3900 C   0  0  0  0  0  0  0  0  0  0  0  0
    2.1030   -2.2400   -0.3120 O   0  0  0  0  0  0  0  0  0  0  0  0
    2.4980   -0.9490   -0.1750 C   0  0  0  0  0  0  0  0  0  0  0  0
    3.7800   -0.6640   -0.6300 C   0  0  0  0  0  0  0  0  0  0  0  0
    4.2020    0.6700   -0.5600 C   0  0  0  0  0  0  0  0  0  0  0  0
    5.4520    0.8950   -1.0100 O   0  0  0  0  0  0  0  0  0  0  0  0
    3.4140    1.6910   -0.0240 C   0  0  0  0  0  0  0  0  0  0  0  0
    2.1440    1.3530    0.4540 C   0  0  0  0  0  0  0  0  0  0  0  0
    1.4220    2.3480    0.9790 O   0  0  0  0  0  0  0  0  0  0  0  0
    1.6550    0.0380    0.3540 C   0  0  0  0  0  0  0  0  0  0  0  0
  1  2  2  0
  2  3  1  0
  2 21  1  0
  3  4  2  0
  3 12  1  0
  4  5  1  0
  5 11  2  0
  5  6  1  0
  6  7  2  0
  7  8  1  0
  8 10  2  0
  8  9  1  0
 10 11  1  0
 12 13  1  0
 13 14  1  0
 14 15  2  0
 14 21  1  0
 15 16  1  0
 16 17  1  0
 16 18  2  0
 18 19  1  0
 19 21  2  0
 19 20  1  0
M  END
>  <id>  (36) 
258

>  <scaffolds>  (36) 
['c1ccccc1', 'O=C1C(=Cc2ccccc2)COc2ccccc21', 'O=C(C=Cc1ccccc1)c1ccccc1', 'C(=Cc1ccccc1)Cc1ccccc1']

>  <name>  (36) 
4'-Demethyl-eucomin

>  <formula>  (36) 
C16H12O5

>  <SMILES>  (36) 
O=C2C(=Cc1ccc(O)cc1)COc3cc(O)cc(O)c23

>  <ChEMBL_id>  (36) 


>  <ZINC_id>  (36) 


>  <PubChem_id>  (36) 


>  <DrugBank_id>  (36) 


>  <CAS_no>  (36) 
27181-64-2

>  <references>  (36) 
[{'journal': {'name': 'Phytochemistry: Advances in Research (Book)', 'id': 13}, 'title': 'Chapter 3: The phytochemistry and ethnobotany of the southern African genus Eucomis (Hyacinthaceae: Hyacinthoideae)', 'year': 2006, 'start_page': 69, 'volume': None, 'issue': None, 'doi': '', 'isbn': '81-308-0034-9', 'despositor': {'code': 'rah', 'first_name': 'Rowan', 'last_name': 'Hatherley', 'id': 20}, 'refauthors_set': [{'author': {'first_name': 'Chantal', 'initials': 'C', 'last_name': 'Koorbanally', 'id': 523}, 'first_author': True, 'id': 851}, {'author': {'first_name': 'Neil', 'initials': 'NR', 'last_name': 'Crouch', 'id': 524}, 'first_author': False, 'id': 852}, {'author': {'first_name': 'Dulcie', 'initials': 'DA', 'last_name': 'Mulholland', 'id': 525}, 'first_author': False, 'id': 853}], 'id': 259}, {'journal': {'name': 'Experientia', 'id': 14}, 'title': "The homo-isoflavones III. isolation and structure of punctatin, 3,9-dihydro-punctatin, 4'-O-methyl-3,9-dihydro-punctatin, 4'-demethyl-eucomin and 4'-demethyl-5-O-methyl-3,9-dihydro-eucomin", 'year': 1970, 'start_page': 472, 'volume': 26, 'issue': 5, 'doi': '10.1007/BF01898447', 'isbn': '1420-9071', 'despositor': {'code': 'rah', 'first_name': 'Rowan', 'last_name': 'Hatherley', 'id': 20}, 'refauthors_set': [{'author': {'first_name': 'Christoph', 'initials': 'C', 'last_name': 'Tamm', 'id': 543}, 'first_author': False, 'id': 730}, {'author': {'first_name': '', 'initials': 'RE', 'last_name': 'Finckh', 'id': 545}, 'first_author': True, 'id': 731}], 'id': 263}]

>  <classifications>  (36) 
[{'classification': 'Flavonoids', 'id': 776}, {'classification': 'Homoisoflavonoid', 'id': 783}, {'classification': 'Homoisoflavonoids (Classyfire)', 'id': 964}]

>  <molecular_mass>  (36) 
284.26

>  <warheads>  (36) 
ab_unsat_carbonyl:1

>  <n_warheads>  (36) 
1

>  <max_tier>  (36) 
1

>  <pains_flag>  (36) 


>  <MW>  (36) 
284.3

>  <cLogP>  (36) 
2.46

>  <HBD>  (36) 
3

>  <HBA>  (36) 
5

>  <TPSA>  (36) 
87.0

>  <ArRings>  (36) 
2

$$$$
SANC00280_minRM1.pdb
     RDKit          3D

 24 28  0  0  1  0  0  0  0  0999 V2000
    3.8730    0.9860   -2.0590 O   0  0  0  0  0  0  0  0  0  0  0  0
    2.9180    0.3500   -1.6590 C   0  0  0  0  0  0  0  0  0  0  0  0
    2.1020   -0.5080   -2.5940 C   0  0  0  0  0  0  0  0  0  0  0  0
    0.6320   -0.5320   -2.1970 C   0  0  0  0  0  0  0  0  0  0  0  0
    0.4480   -0.9800   -0.7360 C   0  0  2  0  0  0  0  0  0  0  0  0
    0.8310   -2.4200   -0.6180 C   0  0  0  0  0  0  0  0  0  0  0  0
   -0.0640   -3.3830   -0.3420 C   0  0  0  0  0  0  0  0  0  0  0  0
   -1.4050   -3.0960   -0.0980 N   0  0  0  0  0  0  0  0  0  0  0  0
   -1.8300   -1.7710   -0.0380 C   0  0  0  0  0  0  0  0  0  0  0  0
   -0.9730   -0.7450   -0.3130 C   0  0  0  0  0  0  0  0  0  0  0  0
   -1.4140    0.6480   -0.1970 C   0  0  0  0  0  0  0  0  0  0  0  0
   -0.6420    1.6830   -0.3010 N   0  0  0  0  0  0  0  0  0  0  0  0
   -1.2180    3.0180   -0.0930 C   0  0  0  0  0  0  0  0  0  0  0  0
   -2.7440    3.2450   -0.2380 C   0  0  0  0  0  0  0  0  0  0  0  0
   -3.4930    2.0300    0.1060 C   0  0  0  0  0  0  0  0  0  0  0  0
   -4.8250    1.7430    0.4210 C   0  0  0  0  0  0  0  0  0  0  0  0
   -4.9510    0.3620    0.5750 N   0  0  0  0  0  0  0  0  0  0  0  0
   -3.7100   -0.2200    0.3550 C   0  0  0  0  0  0  0  0  0  0  0  0
   -3.2720   -1.6000    0.3560 C   0  0  0  0  0  0  0  0  0  0  0  0
   -3.9960   -2.5420    0.6440 O   0  0  0  0  0  0  0  0  0  0  0  0
   -2.8180    0.8000    0.0750 C   0  0  0  0  0  0  0  0  0  0  0  0
    1.3650   -0.2220    0.1820 C   0  0  0  0  0  0  0  0  0  0  0  0
    2.4820    0.3340   -0.2620 C   0  0  0  0  0  0  0  0  0  0  0  0
    3.6470    1.2130    1.0200 Br  0  0  0  0  0  0  0  0  0  0  0  0
  1  2  2  0
  2  3  1  0
  2 23  1  0
  3  4  1  0
  5  4  1  6
  5  6  1  0
  5 10  1  0
  5 22  1  0
  6  7  2  0
  7  8  1  0
  8  9  1  0
  9 10  2  0
  9 19  1  0
 10 11  1  0
 11 12  2  0
 11 21  1  0
 12 13  1  0
 13 14  1  0
 14 15  1  0
 15 21  1  0
 15 16  2  0
 16 17  1  0
 17 18  1  0
 18 21  2  0
 18 19  1  0
 19 20  2  0
 22 23  2  0
 23 24  1  0
M  END
>  <id>  (37) 
280

>  <scaffolds>  (37) 
['C1=CCCCC1', 'O=C1C=CCCC1']

>  <name>  (37) 
Discorhabdine G

>  <formula>  (37) 
C18H14BrN3O2

>  <SMILES>  (37) 
O=C5CC[C@@]1(C=CNc2c1c4=NCCc3c[nH]c(c2=O)c34)C=C5Br

>  <ChEMBL_id>  (37) 


>  <ZINC_id>  (37) 


>  <PubChem_id>  (37) 


>  <DrugBank_id>  (37) 


>  <CAS_no>  (37) 
172961-01-2

>  <references>  (37) 
[{'journal': {'name': 'Journal of Natural Products', 'id': 5}, 'title': 'Cytotoxic Pyrroloiminoquinones from Four New Species of South African Latrunculid Sponges', 'year': 2004, 'start_page': 1268, 'volume': 67, 'issue': 8, 'doi': '10.1021/np034084b', 'isbn': '', 'despositor': {'code': 'DLP', 'first_name': 'David', 'last_name': 'Penkler', 'id': 23}, 'refauthors_set': [{'author': {'first_name': 'Edith ', 'initials': 'EM', 'last_name': 'Antunes', 'id': 447}, 'first_author': True, 'id': 681}, {'author': {'first_name': 'Denzil', 'initials': 'DR', 'last_name': 'Beukes', 'id': 453}, 'first_author': False, 'id': 682}, {'author': {'first_name': 'Michelle', 'initials': 'M', 'last_name': 'Kelly', 'id': 516}, 'first_author': False, 'id': 683}, {'author': {'first_name': 'Toufiek', 'initials': 'T', 'last_name': 'Samaai', 'id': 517}, 'first_author': False, 'id': 684}, {'author': {'first_name': 'Louis ', 'initials': 'LR', 'last_name': 'Barrows', 'id': 518}, 'first_author': False, 'id': 685}, {'author': {'first_name': 'Kathryn ', 'initials': 'KM', 'last_name': 'Marshall', 'id': 519}, 'first_author': False, 'id': 686}, {'author': {'first_name': 'Catherine ', 'initials': 'C', 'last_name': 'Sincich', 'id': 520}, 'first_author': False, 'id': 687}, {'author': {'first_name': 'Michael', 'initials': 'MT', 'last_name': 'Davies-Coleman', 'id': 449}, 'first_author': False, 'id': 688}], 'id': 253}]

>  <classifications>  (37) 
[{'classification': 'Alkaloid', 'id': 738}, {'classification': 'Discorhabdin', 'id': 770}, {'classification': 'Pyrroloiminoquinone', 'id': 820}, {'classification': 'Phenanthrolines (Classyfire)', 'id': 946}]

>  <molecular_mass>  (37) 
384.23

>  <warheads>  (37) 
ab_unsat_carbonyl:2

>  <n_warheads>  (37) 
2

>  <max_tier>  (37) 
1

>  <pains_flag>  (37) 
quinone_A(370)

>  <MW>  (37) 
384.2

>  <cLogP>  (37) 
2.56

>  <HBD>  (37) 
2

>  <HBA>  (37) 
4

>  <TPSA>  (37) 
74.3

>  <ArRings>  (37) 
1

$$$$
SANC00281_minRM1.pdb
     RDKit          3D

 33 36  0  0  1  0  0  0  0  0999 V2000
    0.8050    3.3810   -0.4390 C   0  0  0  0  0  0  0  0  0  0  0  0
    0.8690    1.9850    0.1620 C   0  0  2  0  0  0  0  0  0  0  0  0
    2.3090    1.4630    0.0310 C   0  0  0  0  0  0  0  0  0  0  0  0
    2.4300   -0.0130    0.3070 C   0  0  2  0  0  0  0  0  0  0  0  0
    1.2210   -0.9010    0.5350 C   0  0  1  0  0  0  0  0  0  0  0  0
    2.1960   -0.6290    1.6810 C   0  0  0  0  0  0  0  0  0  0  0  0
    3.0610   -1.7810    2.1180 C   0  0  0  0  0  0  0  0  0  0  0  0
    1.8390    0.2550    2.8390 C   0  0  0  0  0  0  0  0  0  0  0  0
   -0.1490   -0.2650    0.5040 C   0  0  1  0  0  0  0  0  0  0  0  0
   -0.1200    0.9670   -0.4510 C   0  0  1  0  0  0  0  0  0  0  0  0
   -1.5790    1.4160   -0.6790 C   0  0  2  0  0  0  0  0  0  0  0  0
   -1.8490    2.6960   -1.4070 C   0  0  0  0  0  0  0  0  0  0  0  0
   -2.9530    3.3060   -0.9500 C   0  0  0  0  0  0  0  0  0  0  0  0
   -3.5010    2.5700    0.2040 C   0  0  0  0  0  0  0  0  0  0  0  0
   -4.5440    2.7620    0.7870 O   0  0  0  0  0  0  0  0  0  0  0  0
   -2.4460    1.5060    0.6000 C   0  0  1  0  0  0  0  0  0  0  0  0
   -3.0460    0.1610    1.0490 C   0  0  0  0  0  0  0  0  0  0  0  0
   -2.5040   -1.0370    0.3340 C   0  0  0  0  0  0  0  0  0  0  0  0
   -1.2070   -1.2320    0.0770 C   0  0  0  0  0  0  0  0  0  0  0  0
   -3.5770   -2.0090   -0.0650 C   0  0  0  0  0  0  0  0  0  0  0  0
   -2.9630   -3.2570   -0.3380 O   0  0  0  0  0  0  0  0  0  0  0  0
   -3.7670   -4.2720   -0.7450 C   0  0  0  0  0  0  0  0  0  0  0  0
   -4.9690   -4.1070   -0.8520 O   0  0  0  0  0  0  0  0  0  0  0  0
   -2.9850   -5.5180   -1.0120 C   0  0  0  0  0  0  0  0  0  0  0  0
   -1.6790    2.0930    1.6060 O   0  0  0  0  0  0  0  0  0  0  0  0
   -3.6000    4.5270   -1.4540 C   0  0  0  0  0  0  0  0  0  0  0  0
    0.3410    0.4830   -1.6800 O   0  0  0  0  0  0  0  0  0  0  0  0
    3.4000   -0.6130   -0.4990 O   0  0  0  0  0  0  0  0  0  0  0  0
    4.6980   -0.3810   -0.1740 C   0  0  0  0  0  0  0  0  0  0  0  0
    4.9910    0.3230    0.7730 O   0  0  0  0  0  0  0  0  0  0  0  0
    5.6520   -1.0890   -1.1060 C   0  0  0  0  0  0  0  0  0  0  0  0
    6.7260   -0.0990   -1.5400 C   0  0  0  0  0  0  0  0  0  0  0  0
    6.2640   -2.2550   -0.3390 C   0  0  0  0  0  0  0  0  0  0  0  0
  2  1  1  6
  2 10  1  0
  2  3  1  0
  3  4  1  0
  4 28  1  6
  4  5  1  0
  4  6  1  0
  5  9  1  0
  5  6  1  1
  6  7  1  0
  6  8  1  0
  9 10  1  0
  9 19  1  6
 10 27  1  6
 10 11  1  0
 11 12  1  1
 11 16  1  0
 12 13  2  0
 13 26  1  0
 13 14  1  0
 14 16  1  0
 14 15  2  0
 16 17  1  0
 16 25  1  1
 17 18  1  0
 18 20  1  0
 18 19  2  0
 20 21  1  0
 21 22  1  0
 22 24  1  0
 22 23  2  0
 28 29  1  0
 29 31  1  0
 29 30  2  0
 31 32  1  0
 31 33  1  0
M  END
>  <id>  (38) 
281

>  <scaffolds>  (38) 
['O=C1C=CC2C1CC=CC1C3CC3CCC21', 'C1CCCCC1']

>  <name>  (38) 
12-deoxyphorbol-13-isobutyrate-20-acetate

>  <formula>  (38) 
C26H36O7

>  <SMILES>  (38) 
C[C@@H]1C[C@@]2([C@@H](C2(C)C)[C@H]3[C@]1([C@@H]4C=C(C(=O)[C@]4(CC(=C3)COC(=O)C)O)C)O)OC(=O)C(C)C

>  <ChEMBL_id>  (38) 
CHEMBL486418

>  <ZINC_id>  (38) 


>  <PubChem_id>  (38) 
 3035003

>  <DrugBank_id>  (38) 


>  <CAS_no>  (38) 
25090-71-5

>  <references>  (38) 
[{'journal': {'name': 'South African Journal of Chemistry', 'id': 19}, 'title': 'Euphorbias of South Africa: two new phorbol esters from Euphorbia bothae', 'year': 2010, 'start_page': 175, 'volume': 63, 'issue': None, 'doi': '', 'isbn': '', 'despositor': {'code': 'TMM', 'first_name': 'Thommas', 'last_name': 'Musyoka', 'id': 22}, 'refauthors_set': [{'author': {'first_name': 'Wendy', 'initials': 'WL', 'last_name': 'Popplewell', 'id': 455}, 'first_author': True, 'id': 773}, {'author': {'first_name': '', 'initials': 'EA', 'last_name': 'Marais', 'id': 554}, 'first_author': False, 'id': 774}, {'author': {'first_name': '', 'initials': 'L', 'last_name': 'Brand', 'id': 558}, 'first_author': False, 'id': 775}, {'author': {'first_name': '', 'initials': 'BH', 'last_name': 'Harvey', 'id': 559}, 'first_author': False, 'id': 776}, {'author': {'first_name': 'Michael', 'initials': 'MT', 'last_name': 'Davies-Coleman', 'id': 449}, 'first_author': False, 'id': 777}], 'id': 273}]

>  <classifications>  (38) 
[{'classification': 'Phorbol', 'id': 807}, {'classification': 'Phenol lipids (Classyfire)', 'id': 951}]

>  <molecular_mass>  (38) 
460.56

>  <warheads>  (38) 
ab_unsat_carbonyl:1

>  <n_warheads>  (38) 
1

>  <max_tier>  (38) 
1

>  <pains_flag>  (38) 


>  <MW>  (38) 
460.6

>  <cLogP>  (38) 
2.74

>  <HBD>  (38) 
2

>  <HBA>  (38) 
7

>  <TPSA>  (38) 
110.1

>  <ArRings>  (38) 
0

$$$$
SANC00282_minRM1.pdb
     RDKit          3D

 34 37  0  0  1  0  0  0  0  0999 V2000
   -7.7470    0.5260   -1.8650 C   0  0  0  0  0  0  0  0  0  0  0  0
   -6.7400   -0.0330   -0.8750 C   0  0  0  0  0  0  0  0  0  0  0  0
   -5.4930    0.8500   -0.7860 C   0  0  1  0  0  0  0  0  0  0  0  0
   -5.8000    2.2140   -0.1820 C   0  0  0  0  0  0  0  0  0  0  0  0
   -4.4860    0.1760    0.1190 C   0  0  0  0  0  0  0  0  0  0  0  0
   -4.7140   -0.5530    1.0650 O   0  0  0  0  0  0  0  0  0  0  0  0
   -3.2120    0.4860   -0.2340 O   0  0  0  0  0  0  0  0  0  0  0  0
   -2.1850   -0.1040    0.5090 C   0  0  1  0  0  0  0  0  0  0  0  0
   -2.0290   -1.5660    0.1830 C   0  0  0  0  0  0  0  0  0  0  0  0
   -0.5680   -2.0420    0.2300 C   0  0  2  0  0  0  0  0  0  0  0  0
    0.3560   -0.9750   -0.4010 C   0  0  1  0  0  0  0  0  0  0  0  0
    0.3910    0.2320    0.5860 C   0  0  2  0  0  0  0  0  0  0  0  0
   -0.9960    0.8190    0.7040 C   0  0  2  0  0  0  0  0  0  0  0  0
   -1.9030    0.4800    1.8870 C   0  0  0  0  0  0  0  0  0  0  0  0
   -2.7830    1.5880    2.4010 C   0  0  0  0  0  0  0  0  0  0  0  0
   -1.4590   -0.4230    3.0000 C   0  0  0  0  0  0  0  0  0  0  0  0
    1.3930    1.2450    0.1330 C   0  0  0  0  0  0  0  0  0  0  0  0
    2.7070    1.0880    0.3190 C   0  0  0  0  0  0  0  0  0  0  0  0
    3.3230   -0.1090    0.9750 C   0  0  0  0  0  0  0  0  0  0  0  0
    2.7490   -1.4620    0.5170 C   0  0  1  0  0  0  0  0  0  0  0  0
    1.8140   -1.3670   -0.7140 C   0  0  1  0  0  0  0  0  0  0  0  0
    2.0900   -2.6160   -1.4910 C   0  0  0  0  0  0  0  0  0  0  0  0
    3.2380   -3.1960   -1.1110 C   0  0  0  0  0  0  0  0  0  0  0  0
    3.8190   -2.4730    0.0350 C   0  0  0  0  0  0  0  0  0  0  0  0
    4.8970   -2.6440    0.5560 O   0  0  0  0  0  0  0  0  0  0  0  0
    3.9000   -4.3760   -1.6890 C   0  0  0  0  0  0  0  0  0  0  0  0
    2.0550   -2.1060    1.5410 O   0  0  0  0  0  0  0  0  0  0  0  0
    3.7290    2.1010   -0.1130 C   0  0  0  0  0  0  0  0  0  0  0  0
    3.0620    3.3260   -0.3570 O   0  0  0  0  0  0  0  0  0  0  0  0
    3.8070    4.3580   -0.8300 C   0  0  0  0  0  0  0  0  0  0  0  0
    5.0040    4.2260   -1.0110 O   0  0  0  0  0  0  0  0  0  0  0  0
    2.9870    5.5840   -1.0590 C   0  0  0  0  0  0  0  0  0  0  0  0
   -0.1820   -0.4750   -1.5920 O   0  0  0  0  0  0  0  0  0  0  0  0
   -0.4870   -3.4180   -0.4110 C   0  0  0  0  0  0  0  0  0  0  0  0
  1  2  1  0
  2  3  1  0
  3  4  1  1
  3  5  1  0
  5  7  1  0
  5  6  2  0
  8  7  1  6
  8  9  1  0
  8 13  1  0
  8 14  1  0
  9 10  1  0
 10 34  1  6
 10 11  1  0
 11 33  1  6
 11 21  1  0
 11 12  1  0
 12 17  1  6
 12 13  1  0
 13 14  1  1
 14 15  1  0
 14 16  1  0
 17 18  2  0
 18 28  1  0
 18 19  1  0
 19 20  1  0
 20 21  1  0
 20 24  1  0
 20 27  1  1
 21 22  1  1
 22 23  2  0
 23 26  1  0
 23 24  1  0
 24 25  2  0
 28 29  1  0
 29 30  1  0
 30 32  1  0
 30 31  2  0
M  END
>  <id>  (39) 
282

>  <scaffolds>  (39) 
['O=C1C=CC2C1CC=CC1C3CC3CCC21', 'C1CCCCC1']

>  <name>  (39) 
12-deoxyphorbol-13-(2-methylbutyrate)-20-acetate

>  <formula>  (39) 
C27H38O7

>  <SMILES>  (39) 
CCC(C)C(=O)O[C@@]12C[C@H]([C@]3([C@H]([C@@H]1C2(C)C)C=C(C[C@]4([C@H]3C=C(C4=O)C)O)COC(=O)C)O)C

>  <ChEMBL_id>  (39) 
CHEMBL520853

>  <ZINC_id>  (39) 


>  <PubChem_id>  (39) 
 198036

>  <DrugBank_id>  (39) 


>  <CAS_no>  (39) 
25090-73-7

>  <references>  (39) 
[{'journal': {'name': 'South African Journal of Chemistry', 'id': 19}, 'title': 'Euphorbias of South Africa: two new phorbol esters from Euphorbia bothae', 'year': 2010, 'start_page': 175, 'volume': 63, 'issue': None, 'doi': '', 'isbn': '', 'despositor': {'code': 'TMM', 'first_name': 'Thommas', 'last_name': 'Musyoka', 'id': 22}, 'refauthors_set': [{'author': {'first_name': 'Wendy', 'initials': 'WL', 'last_name': 'Popplewell', 'id': 455}, 'first_author': True, 'id': 773}, {'author': {'first_name': '', 'initials': 'EA', 'last_name': 'Marais', 'id': 554}, 'first_author': False, 'id': 774}, {'author': {'first_name': '', 'initials': 'L', 'last_name': 'Brand', 'id': 558}, 'first_author': False, 'id': 775}, {'author': {'first_name': '', 'initials': 'BH', 'last_name': 'Harvey', 'id': 559}, 'first_author': False, 'id': 776}, {'author': {'first_name': 'Michael', 'initials': 'MT', 'last_name': 'Davies-Coleman', 'id': 449}, 'first_author': False, 'id': 777}], 'id': 273}]

>  <classifications>  (39) 
[{'classification': 'Phorbol', 'id': 807}, {'classification': 'Phenol lipids (Classyfire)', 'id': 951}]

>  <molecular_mass>  (39) 
474.58

>  <warheads>  (39) 
ab_unsat_carbonyl:1

>  <n_warheads>  (39) 
1

>  <max_tier>  (39) 
1

>  <pains_flag>  (39) 


>  <MW>  (39) 
474.6

>  <cLogP>  (39) 
3.13

>  <HBD>  (39) 
2

>  <HBA>  (39) 
7

>  <TPSA>  (39) 
110.1

>  <ArRings>  (39) 
0

$$$$
SANC00283_minRM1.pdb
     RDKit          3D

 40 43  0  0  1  0  0  0  0  0999 V2000
    0.7570    0.0040   -0.1240 C   0  0  2  0  0  0  0  0  0  0  0  0
    1.2960   -1.1910    0.5980 C   0  0  0  0  0  0  0  0  0  0  0  0
    2.3260   -1.9040    0.1330 C   0  0  0  0  0  0  0  0  0  0  0  0
    2.8920   -3.1070    0.8310 C   0  0  0  0  0  0  0  0  0  0  0  0
    2.0450   -3.4400    1.9150 O   0  0  0  0  0  0  0  0  0  0  0  0
    2.4260   -4.4720    2.7110 C   0  0  0  0  0  0  0  0  0  0  0  0
    1.4570   -4.6940    3.8250 C   0  0  0  0  0  0  0  0  0  0  0  0
    3.4490   -5.0890    2.4780 O   0  0  0  0  0  0  0  0  0  0  0  0
    3.0370   -1.6000   -1.1500 C   0  0  0  0  0  0  0  0  0  0  0  0
    3.3850   -0.1140   -1.3500 C   0  0  2  0  0  0  0  0  0  0  0  0
    2.6780    0.4480   -2.4120 O   0  0  0  0  0  0  0  0  0  0  0  0
    4.8810    0.1530   -1.6540 C   0  0  0  0  0  0  0  0  0  0  0  0
    5.5750   -0.5290   -2.3710 O   0  0  0  0  0  0  0  0  0  0  0  0
    5.2420    1.4010   -0.9570 C   0  0  0  0  0  0  0  0  0  0  0  0
    6.5270    2.0830   -1.1830 C   0  0  0  0  0  0  0  0  0  0  0  0
    4.2510    1.7740   -0.1330 C   0  0  0  0  0  0  0  0  0  0  0  0
    3.1470    0.7630   -0.0960 C   0  0  1  0  0  0  0  0  0  0  0  0
    1.6920    1.2320    0.1060 C   0  0  2  0  0  0  0  0  0  0  0  0
    1.5610    1.5540    1.4620 O   0  0  0  0  0  0  0  0  0  0  0  0
    1.1600    2.3730   -0.7900 C   0  0  2  0  0  0  0  0  0  0  0  0
    2.1080    3.5480   -0.9670 C   0  0  0  0  0  0  0  0  0  0  0  0
   -0.1690    2.9010   -0.2240 C   0  0  0  0  0  0  0  0  0  0  0  0
   -1.0780    1.8040    0.2650 C   0  0  1  0  0  0  0  0  0  0  0  0
   -1.8160    2.1940    1.3840 O   0  0  0  0  0  0  0  0  0  0  0  0
   -2.8170    3.0930    1.1850 C   0  0  0  0  0  0  0  0  0  0  0  0
   -3.0680    3.5090    0.0700 O   0  0  0  0  0  0  0  0  0  0  0  0
   -3.5270    3.4380    2.4730 C   0  0  0  0  0  0  0  0  0  0  0  0
   -3.8810    4.9200    2.4560 C   0  0  0  0  0  0  0  0  0  0  0  0
   -4.7810    2.5750    2.5470 C   0  0  0  0  0  0  0  0  0  0  0  0
   -1.7200    0.7860   -0.6720 C   0  0  2  0  0  0  0  0  0  0  0  0
   -1.4740    0.8730   -2.1480 C   0  0  0  0  0  0  0  0  0  0  0  0
   -3.1430    0.3600   -0.3570 C   0  0  0  0  0  0  0  0  0  0  0  0
   -3.3020   -0.9020   -0.9830 O   0  0  0  0  0  0  0  0  0  0  0  0
   -4.5420   -1.4600   -0.9450 C   0  0  0  0  0  0  0  0  0  0  0  0
   -5.4220   -0.9120   -0.2990 O   0  0  0  0  0  0  0  0  0  0  0  0
   -4.6390   -2.6990   -1.7290 C   0  0  0  0  0  0  0  0  0  0  0  0
   -3.5240   -2.9940   -2.6690 C   0  0  0  0  0  0  0  0  0  0  0  0
   -5.6860   -3.5260   -1.6020 C   0  0  0  0  0  0  0  0  0  0  0  0
   -6.8280   -3.3110   -0.6860 C   0  0  0  0  0  0  0  0  0  0  0  0
   -0.6440    0.3510    0.3230 C   0  0  1  0  0  0  0  0  0  0  0  0
  1 18  1  0
  1 40  1  0
  1  2  1  1
  2  3  2  0
  3  9  1  0
  3  4  1  0
  4  5  1  0
  5  6  1  0
  6  8  2  0
  6  7  1  0
  9 10  1  0
 10 11  1  6
 10 12  1  0
 10 17  1  0
 12 13  2  0
 12 14  1  0
 14 15  1  0
 14 16  2  0
 17 16  1  6
 17 18  1  0
 18 20  1  0
 18 19  1  1
 20 21  1  1
 20 22  1  0
 22 23  1  0
 23 30  1  0
 23 40  1  0
 23 24  1  1
 24 25  1  0
 25 26  2  0
 25 27  1  0
 27 28  1  0
 27 29  1  0
 30 31  1  6
 30 32  1  0
 40 30  1  6
 32 33  1  0
 33 34  1  0
 34 36  1  0
 34 35  2  0
 36 37  1  0
 36 38  2  0
 38 39  1  0
M  END
>  <id>  (40) 
283

>  <scaffolds>  (40) 
['O=C1C=CC2C1CC=CC1C3CC3CCC21', 'C1CCCCC1']

>  <name>  (40) 
12-deoxyphorbol-13-isobutyrate-16-angelate-20-acetate

>  <formula>  (40) 
C31H42O9

>  <SMILES>  (40) 
[H][C@@]23C=C(COC(C)=O)C[C@]1(O)C(=O)C(C)=C[C@@]1([H])[C@@]2(O)[C@H](C)C[C@@]4(OC(=O)C(C)C)[C@](C)(COC(=O)/C(C)=C\C)[C@@]34[H]

>  <ChEMBL_id>  (40) 


>  <ZINC_id>  (40) 


>  <PubChem_id>  (40) 


>  <DrugBank_id>  (40) 


>  <CAS_no>  (40) 
1255339-15-1

>  <references>  (40) 
[{'journal': {'name': 'South African Journal of Chemistry', 'id': 19}, 'title': 'Euphorbias of South Africa: two new phorbol esters from Euphorbia bothae', 'year': 2010, 'start_page': 175, 'volume': 63, 'issue': None, 'doi': '', 'isbn': '', 'despositor': {'code': 'TMM', 'first_name': 'Thommas', 'last_name': 'Musyoka', 'id': 22}, 'refauthors_set': [{'author': {'first_name': 'Wendy', 'initials': 'WL', 'last_name': 'Popplewell', 'id': 455}, 'first_author': True, 'id': 773}, {'author': {'first_name': '', 'initials': 'EA', 'last_name': 'Marais', 'id': 554}, 'first_author': False, 'id': 774}, {'author': {'first_name': '', 'initials': 'L', 'last_name': 'Brand', 'id': 558}, 'first_author': False, 'id': 775}, {'author': {'first_name': '', 'initials': 'BH', 'last_name': 'Harvey', 'id': 559}, 'first_author': False, 'id': 776}, {'author': {'first_name': 'Michael', 'initials': 'MT', 'last_name': 'Davies-Coleman', 'id': 449}, 'first_author': False, 'id': 777}], 'id': 273}]

>  <classifications>  (40) 
[{'classification': 'Phorbol', 'id': 807}, {'classification': 'Phenol lipids (Classyfire)', 'id': 951}]

>  <molecular_mass>  (40) 
558.66

>  <warheads>  (40) 
ab_unsat_carbonyl:2

>  <n_warheads>  (40) 
2

>  <max_tier>  (40) 
1

>  <pains_flag>  (40) 


>  <MW>  (40) 
558.7

>  <cLogP>  (40) 
3.23

>  <HBD>  (40) 
2

>  <HBA>  (40) 
9

>  <TPSA>  (40) 
136.4

>  <ArRings>  (40) 
0

$$$$
SANC00285_minRM1.pdb
     RDKit          3D

 41 44  0  0  1  0  0  0  0  0999 V2000
   -0.8660   -0.1000    0.1840 C   0  0  2  0  0  0  0  0  0  0  0  0
   -1.4930   -1.1260   -0.7060 C   0  0  0  0  0  0  0  0  0  0  0  0
   -2.6080   -1.7820   -0.3700 C   0  0  0  0  0  0  0  0  0  0  0  0
   -3.2760   -2.8010   -1.2480 C   0  0  0  0  0  0  0  0  0  0  0  0
   -2.4300   -3.0740   -2.3500 O   0  0  0  0  0  0  0  0  0  0  0  0
   -2.9120   -3.8920   -3.3200 C   0  0  0  0  0  0  0  0  0  0  0  0
   -1.9280   -4.0740   -4.4270 C   0  0  0  0  0  0  0  0  0  0  0  0
   -4.0200   -4.3850   -3.2210 O   0  0  0  0  0  0  0  0  0  0  0  0
   -3.3330   -1.5810    0.9250 C   0  0  0  0  0  0  0  0  0  0  0  0
   -3.5410   -0.1060    1.3150 C   0  0  2  0  0  0  0  0  0  0  0  0
   -2.8250    0.2340    2.4620 O   0  0  0  0  0  0  0  0  0  0  0  0
   -5.0140    0.2710    1.6130 C   0  0  0  0  0  0  0  0  0  0  0  0
   -5.8000   -0.4240    2.2130 O   0  0  0  0  0  0  0  0  0  0  0  0
   -5.2220    1.6310    1.0830 C   0  0  0  0  0  0  0  0  0  0  0  0
   -6.4400    2.4080    1.3670 C   0  0  0  0  0  0  0  0  0  0  0  0
   -4.1670    2.0040    0.3430 C   0  0  0  0  0  0  0  0  0  0  0  0
   -3.1680    0.8990    0.1990 C   0  0  1  0  0  0  0  0  0  0  0  0
   -1.6670    1.2370    0.1000 C   0  0  2  0  0  0  0  0  0  0  0  0
   -1.4520    1.7230   -1.1950 O   0  0  0  0  0  0  0  0  0  0  0  0
   -1.0630    2.1880    1.1570 C   0  0  2  0  0  0  0  0  0  0  0  0
   -1.8980    3.4200    1.4680 C   0  0  0  0  0  0  0  0  0  0  0  0
    0.3320    2.6480    0.7040 C   0  0  0  0  0  0  0  0  0  0  0  0
    1.1500    1.5390    0.0950 C   0  0  1  0  0  0  0  0  0  0  0  0
    1.9690    1.9880   -0.9450 O   0  0  0  0  0  0  0  0  0  0  0  0
    3.0040    2.8070   -0.6170 C   0  0  0  0  0  0  0  0  0  0  0  0
    3.2030    3.1070    0.5460 O   0  0  0  0  0  0  0  0  0  0  0  0
    3.8170    3.2180   -1.8250 C   0  0  1  0  0  0  0  0  0  0  0  0
    2.9010    3.6160   -2.9770 C   0  0  0  0  0  0  0  0  0  0  0  0
    4.7440    4.3750   -1.4300 C   0  0  0  0  0  0  0  0  0  0  0  0
    5.7290    4.7080   -2.5370 C   0  0  0  0  0  0  0  0  0  0  0  0
    1.6520    0.3420    0.8970 C   0  0  2  0  0  0  0  0  0  0  0  0
    1.3470    0.2430    2.3610 C   0  0  0  0  0  0  0  0  0  0  0  0
    3.0460   -0.1630    0.5650 C   0  0  0  0  0  0  0  0  0  0  0  0
    3.0870   -1.4980    1.0410 O   0  0  0  0  0  0  0  0  0  0  0  0
    4.2860   -2.1380    0.9880 C   0  0  0  0  0  0  0  0  0  0  0  0
    5.2370   -1.5850    0.4550 O   0  0  0  0  0  0  0  0  0  0  0  0
    4.2540   -3.4650    1.6160 C   0  0  0  0  0  0  0  0  0  0  0  0
    3.0950   -3.7660    2.4990 C   0  0  0  0  0  0  0  0  0  0  0  0
    5.2250   -4.3610    1.4030 C   0  0  0  0  0  0  0  0  0  0  0  0
    6.4030   -4.1400    0.5350 C   0  0  0  0  0  0  0  0  0  0  0  0
    0.5790    0.1590   -0.1780 C   0  0  1  0  0  0  0  0  0  0  0  0
  1  2  1  6
  1 41  1  0
  1 18  1  0
  2  3  2  0
  3  4  1  0
  3  9  1  0
  4  5  1  0
  5  6  1  0
  6  7  1  0
  6  8  2  0
  9 10  1  0
 10 17  1  0
 10 12  1  0
 10 11  1  1
 12 14  1  0
 12 13  2  0
 14 16  2  0
 14 15  1  0
 17 16  1  1
 17 18  1  0
 18 19  1  6
 18 20  1  0
 20 22  1  0
 20 21  1  6
 22 23  1  0
 23 24  1  6
 23 41  1  0
 23 31  1  0
 24 25  1  0
 25 27  1  0
 25 26  2  0
 27 28  1  6
 27 29  1  0
 29 30  1  0
 41 31  1  1
 31 33  1  0
 31 32  1  1
 33 34  1  0
 34 35  1  0
 35 36  2  0
 35 37  1  0
 37 39  2  0
 37 38  1  0
 39 40  1  0
M  END
>  <id>  (41) 
285

>  <scaffolds>  (41) 
['O=C1C=CC2C1CC=CC1C3CC3CCC21', 'C1CCCCC1']

>  <name>  (41) 
12-deoxyphorbol-13-(2-methylbutyrate)-16-angelate-20-acetate

>  <formula>  (41) 
C32H44O9

>  <SMILES>  (41) 
[H][C@@]23C=C(COC(C)=O)C[C@]1(O)C(=O)C(C)=C[C@@]1([H])[C@@]2(O)[C@H](C)C[C@@]4(OC(=O)C(C)CC)[C@](C)(COC(=O)/C(C)=C\C)[C@@]34[H]

>  <ChEMBL_id>  (41) 


>  <ZINC_id>  (41) 


>  <PubChem_id>  (41) 


>  <DrugBank_id>  (41) 


>  <CAS_no>  (41) 
1255705-74-8

>  <references>  (41) 
[{'journal': {'name': 'South African Journal of Chemistry', 'id': 19}, 'title': 'Euphorbias of South Africa: two new phorbol esters from Euphorbia bothae', 'year': 2010, 'start_page': 175, 'volume': 63, 'issue': None, 'doi': '', 'isbn': '', 'despositor': {'code': 'TMM', 'first_name': 'Thommas', 'last_name': 'Musyoka', 'id': 22}, 'refauthors_set': [{'author': {'first_name': 'Wendy', 'initials': 'WL', 'last_name': 'Popplewell', 'id': 455}, 'first_author': True, 'id': 773}, {'author': {'first_name': '', 'initials': 'EA', 'last_name': 'Marais', 'id': 554}, 'first_author': False, 'id': 774}, {'author': {'first_name': '', 'initials': 'L', 'last_name': 'Brand', 'id': 558}, 'first_author': False, 'id': 775}, {'author': {'first_name': '', 'initials': 'BH', 'last_name': 'Harvey', 'id': 559}, 'first_author': False, 'id': 776}, {'author': {'first_name': 'Michael', 'initials': 'MT', 'last_name': 'Davies-Coleman', 'id': 449}, 'first_author': False, 'id': 777}], 'id': 273}]

>  <classifications>  (41) 
[{'classification': 'Phorbol', 'id': 807}, {'classification': 'Phenol lipids (Classyfire)', 'id': 951}]

>  <molecular_mass>  (41) 
572.68

>  <warheads>  (41) 
ab_unsat_carbonyl:2

>  <n_warheads>  (41) 
2

>  <max_tier>  (41) 
1

>  <pains_flag>  (41) 


>  <MW>  (41) 
572.7

>  <cLogP>  (41) 
3.62

>  <HBD>  (41) 
2

>  <HBA>  (41) 
9

>  <TPSA>  (41) 
136.4

>  <ArRings>  (41) 
0

$$$$
SANC00292_minRM1.pdb
     RDKit          3D

 44 47  0  0  1  0  0  0  0  0999 V2000
    2.0690   -0.3160    2.7530 C   0  0  1  0  0  0  0  0  0  0  0  0
    1.6460   -1.6380    2.0780 C   0  0  0  0  0  0  0  0  0  0  0  0
    0.4530   -1.4810    1.1980 C   0  0  0  0  0  0  0  0  0  0  0  0
   -0.7140   -2.0830    1.4420 C   0  0  0  0  0  0  0  0  0  0  0  0
   -1.7910   -1.9650    0.4510 C   0  0  0  0  0  0  0  0  0  0  0  0
   -1.7290   -1.4340   -0.6450 O   0  0  0  0  0  0  0  0  0  0  0  0
   -2.9460   -2.5440    0.8720 O   0  0  0  0  0  0  0  0  0  0  0  0
   -3.9990   -2.6900   -0.0650 C   0  0  1  0  0  0  0  0  0  0  0  0
   -4.7930   -3.9010    0.4760 C   0  0  0  0  0  0  0  0  0  0  0  0
   -3.8680   -4.9520    0.4980 O   0  0  0  0  0  0  0  0  0  0  0  0
   -4.8310   -1.3970   -0.0660 C   0  0  0  0  0  0  0  0  0  0  0  0
   -5.8410   -1.3790   -1.2180 C   0  0  1  0  0  0  0  0  0  0  0  0
   -6.8730   -2.2950   -1.0130 O   0  0  0  0  0  0  0  0  0  0  0  0
   -6.4420    0.0340   -1.4760 C   0  0  1  0  0  0  0  0  0  0  0  0
   -7.2450    0.6190   -0.3000 C   0  0  0  0  0  0  0  0  0  0  0  0
   -6.8440    2.0980   -0.2600 C   0  0  1  0  0  0  0  0  0  0  0  0
   -6.5020    2.5260    1.1570 C   0  0  0  0  0  0  0  0  0  0  0  0
   -5.6900    2.2110   -1.2900 C   0  0  1  0  0  0  0  0  0  0  0  0
   -4.3850    2.8190   -0.7610 C   0  0  0  0  0  0  0  0  0  0  0  0
   -3.4140    3.1010   -1.8620 C   0  0  0  0  0  0  0  0  0  0  0  0
   -2.0940    3.1660   -1.6680 C   0  0  0  0  0  0  0  0  0  0  0  0
   -1.4640    2.8740   -0.3890 C   0  0  0  0  0  0  0  0  0  0  0  0
   -0.3730    3.5180    0.0360 C   0  0  0  0  0  0  0  0  0  0  0  0
    0.2860    3.1860    1.3400 C   0  0  2  0  0  0  0  0  0  0  0  0
    0.0990    4.3580    2.3000 C   0  0  0  0  0  0  0  0  0  0  0  0
    1.7770    2.9090    1.0950 C   0  0  0  0  0  0  0  0  0  0  0  0
    2.3510    1.9550    2.1560 C   0  0  2  0  0  0  0  0  0  0  0  0
    3.8880    1.9010    2.1000 C   0  0  0  0  0  0  0  0  0  0  0  0
    4.3950    0.4520    2.1300 C   0  0  2  0  0  0  0  0  0  0  0  0
    4.1700   -0.0530    0.8330 O   0  0  0  0  0  0  0  0  0  0  0  0
    5.1190   -0.9680    0.3570 C   0  0  2  0  0  0  0  0  0  0  0  0
    6.2990   -0.2770    0.0920 O   0  0  0  0  0  0  0  0  0  0  0  0
    6.2470    0.6930   -0.9280 C   0  0  1  0  0  0  0  0  0  0  0  0
    7.6800    1.2130   -1.0430 C   0  0  0  0  0  0  0  0  0  0  0  0
    5.7830    0.0460   -2.2550 C   0  0  2  0  0  0  0  0  0  0  0  0
    5.5910    1.0410   -3.2180 O   0  0  0  0  0  0  0  0  0  0  0  0
    4.3800   -0.5670   -2.0320 C   0  0  1  0  0  0  0  0  0  0  0  0
    3.9630   -1.2770   -3.1570 O   0  0  0  0  0  0  0  0  0  0  0  0
    4.4720   -1.6120   -0.9000 C   0  0  1  0  0  0  0  0  0  0  0  0
    5.3570   -2.6180   -1.3210 O   0  0  0  0  0  0  0  0  0  0  0  0
    4.8910   -3.9240   -1.1040 C   0  0  0  0  0  0  0  0  0  0  0  0
    3.5600   -0.3460    3.1390 C   0  0  0  0  0  0  0  0  0  0  0  0
    1.7940    0.7040    1.8280 O   0  0  0  0  0  0  0  0  0  0  0  0
   -5.3710    0.9070   -1.7350 O   0  0  0  0  0  0  0  0  0  0  0  0
  1 43  1  0
  1  2  1  6
  1 42  1  0
  2  3  1  0
  3  4  2  0
  4  5  1  0
  5  6  2  0
  5  7  1  0
  7  8  1  0
  8 11  1  0
  8  9  1  1
  9 10  1  0
 11 12  1  0
 12 14  1  0
 12 13  1  1
 14 44  1  0
 14 15  1  1
 15 16  1  0
 16 18  1  0
 16 17  1  1
 18 44  1  0
 18 19  1  1
 19 20  1  0
 20 21  2  0
 21 22  1  0
 22 23  2  0
 23 24  1  0
 24 26  1  0
 24 25  1  1
 27 26  1  6
 27 43  1  0
 27 28  1  0
 28 29  1  0
 29 30  1  6
 29 42  1  0
 31 30  1  6
 31 39  1  0
 31 32  1  0
 32 33  1  0
 33 35  1  0
 33 34  1  6
 35 36  1  6
 35 37  1  0
 37 38  1  6
 37 39  1  0
 39 40  1  6
 40 41  1  0
M  END
>  <id>  (42) 
292

>  <scaffolds>  (42) 
['C1CCOCC1']

>  <name>  (42) 
Mandelalide A

>  <formula>  (42) 
C33H52O11

>  <SMILES>  (42) 
[H][C@]23CC=CC(=O)O[C@@H](CO)C[C@@H](O)C4C[C@@H](C)[C@@]([H])(CC=CC=C[C@H](C)C[C@]([H])(C[C@H](O[C@]1([H])O[C@@H](C)[C@H](O)[C@@H](O)[C@H]1OC)C2)O3)O4

>  <ChEMBL_id>  (42) 


>  <ZINC_id>  (42) 


>  <PubChem_id>  (42) 


>  <DrugBank_id>  (42) 


>  <CAS_no>  (42) 
1384352-14-0

>  <references>  (42) 
[{'journal': {'name': 'The Journal of Organic Chemistry', 'id': 21}, 'title': 'Mandelalides A-D, Cytotoxic Macrolides from a New Lissoclinum Species of South African Tunicate', 'year': 2012, 'start_page': 6066, 'volume': 77, 'issue': 14, 'doi': '10.1021/jo3008622', 'isbn': '', 'despositor': {'code': 'TMM', 'first_name': 'Thommas', 'last_name': 'Musyoka', 'id': 22}, 'refauthors_set': [{'author': {'first_name': '', 'initials': 'J', 'last_name': 'Sikorska', 'id': 571}, 'first_author': True, 'id': 798}, {'author': {'first_name': '', 'initials': 'AM', 'last_name': 'Hau', 'id': 584}, 'first_author': False, 'id': 799}, {'author': {'first_name': '', 'initials': 'C', 'last_name': 'Anklin', 'id': 585}, 'first_author': False, 'id': 800}, {'author': {'first_name': '', 'initials': 'S', 'last_name': 'Parker-Nance', 'id': 572}, 'first_author': False, 'id': 801}, {'author': {'first_name': 'Michael', 'initials': 'MT', 'last_name': 'Davies-Coleman', 'id': 449}, 'first_author': False, 'id': 802}, {'author': {'first_name': '', 'initials': 'JE', 'last_name': 'Ishmael', 'id': 586}, 'first_author': False, 'id': 803}, {'author': {'first_name': 'Kerry', 'initials': 'KL', 'last_name': 'McPhail', 'id': 483}, 'first_author': False, 'id': 804}], 'id': 279}]

>  <classifications>  (42) 
[{'classification': 'Polyketide', 'id': 810}, {'classification': 'Macrolides and analogues (Classyfire)', 'id': 945}]

>  <molecular_mass>  (42) 
624.76

>  <warheads>  (42) 
ab_unsat_carbonyl:1

>  <n_warheads>  (42) 
1

>  <max_tier>  (42) 
1

>  <pains_flag>  (42) 


>  <MW>  (42) 
624.8

>  <cLogP>  (42) 
2.34

>  <HBD>  (42) 
4

>  <HBA>  (42) 
11

>  <TPSA>  (42) 
153.4

>  <ArRings>  (42) 
0

$$$$
SANC00297_minRM1.pdb
     RDKit          3D

 18 19  0  0  1  0  0  0  0  0999 V2000
   -0.9670   -0.8130   -0.4140 C   0  0  2  0  0  0  0  0  0  0  0  0
   -0.2850   -2.1180    0.0040 C   0  0  0  0  0  0  0  0  0  0  0  0
    1.1960   -2.0580   -0.0430 C   0  0  0  0  0  0  0  0  0  0  0  0
    1.8870   -0.9250   -0.1650 C   0  0  0  0  0  0  0  0  0  0  0  0
    3.3650   -0.9480   -0.1910 C   0  0  0  0  0  0  0  0  0  0  0  0
    3.9990   -0.1020   -0.7950 O   0  0  0  0  0  0  0  0  0  0  0  0
    1.2190    0.4080   -0.3350 C   0  0  2  0  0  0  0  0  0  0  0  0
    1.1440    0.7210   -1.6940 O   0  0  0  0  0  0  0  0  0  0  0  0
    1.9990    1.5130    0.3950 C   0  0  0  0  0  0  0  0  0  0  0  0
    2.5550    1.2990    1.4500 O   0  0  0  0  0  0  0  0  0  0  0  0
   -0.2370    0.3880    0.2140 C   0  0  2  0  0  0  0  0  0  0  0  0
   -0.1960    0.2410    1.7340 C   0  0  0  0  0  0  0  0  0  0  0  0
   -0.9470    1.6940   -0.1640 C   0  0  0  0  0  0  0  0  0  0  0  0
   -2.4190    1.6540    0.2220 C   0  0  0  0  0  0  0  0  0  0  0  0
   -3.1080    0.4840   -0.4840 C   0  0  2  0  0  0  0  0  0  0  0  0
   -4.6040    0.5260   -0.1980 C   0  0  0  0  0  0  0  0  0  0  0  0
   -2.4270   -0.7830   -0.0530 C   0  0  0  0  0  0  0  0  0  0  0  0
   -3.0610   -1.7780    0.5570 C   0  0  0  0  0  0  0  0  0  0  0  0
  1 17  1  0
  1  2  1  1
  1 11  1  0
  2  3  1  0
  3  4  2  0
  4  7  1  0
  4  5  1  0
  5  6  2  0
  7  8  1  6
  7 11  1  0
  7  9  1  0
  9 10  2  0
 11 13  1  0
 11 12  1  1
 13 14  1  0
 14 15  1  0
 15 16  1  1
 15 17  1  0
 17 18  2  0
M  END
>  <id>  (43) 
297

>  <scaffolds>  (43) 
['C1=CCCCC1', 'C1=CCC2CCCCC2C1', 'C1CCCCC1', 'C=C1CCCC2CC=CCC12']

>  <name>  (43) 
Muzigadial

>  <formula>  (43) 
C15H20O3

>  <SMILES>  (43) 
[H][C@@]12CC=C(C=O)[C@](O)(C=O)[C@@]1(C)CC[C@H](C)C2=C

>  <ChEMBL_id>  (43) 


>  <ZINC_id>  (43) 


>  <PubChem_id>  (43) 
442346

>  <DrugBank_id>  (43) 


>  <CAS_no>  (43) 
66550-09-2

>  <references>  (43) 
[{'journal': {'name': 'Journal of Ethnopharmacology', 'id': 7}, 'title': 'Isolation of an antibacterial sesquiterpenoid from Warburgia salutaris', 'year': 2000, 'start_page': 171, 'volume': 73, 'issue': None, 'doi': '10.1016/S0378-8741(00)00293-2', 'isbn': '', 'despositor': {'code': 'DLP', 'first_name': 'David', 'last_name': 'Penkler', 'id': 23}, 'refauthors_set': [{'author': {'first_name': 'T', 'initials': 'T', 'last_name': 'Rabe', 'id': 592}, 'first_author': True, 'id': 812}, {'author': {'first_name': 'Johannes', 'initials': 'J', 'last_name': 'Van Staden', 'id': 489}, 'first_author': False, 'id': 813}], 'id': 281}]

>  <classifications>  (43) 
[{'classification': 'Sesquiterpene', 'id': 828}, {'classification': 'Terpenoid', 'id': 839}, {'classification': 'Phenol lipids (Classyfire)', 'id': 951}]

>  <molecular_mass>  (43) 
248.32

>  <warheads>  (43) 
ab_unsat_carbonyl:1

>  <n_warheads>  (43) 
1

>  <max_tier>  (43) 
1

>  <pains_flag>  (43) 


>  <MW>  (43) 
248.3

>  <cLogP>  (43) 
2.05

>  <HBD>  (43) 
1

>  <HBA>  (43) 
3

>  <TPSA>  (43) 
54.4

>  <ArRings>  (43) 
0

$$$$
SANC00298_minRM1.pdb
     RDKit          3D

 26 29  0  0  1  0  0  0  0  0999 V2000
   -0.4240   -1.8280    0.6160 C   0  0  2  0  0  0  0  0  0  0  0  0
   -1.7760   -1.8360   -0.0130 C   0  0  0  0  0  0  0  0  0  0  0  0
   -2.8150   -1.1350    0.4380 C   0  0  0  0  0  0  0  0  0  0  0  0
   -4.0510   -1.0120   -0.3920 C   0  0  0  0  0  0  0  0  0  0  0  0
   -4.0660    0.4050   -0.9680 C   0  0  0  0  0  0  0  0  0  0  0  0
   -2.6700    0.7880   -1.3980 C   0  0  1  0  0  0  0  0  0  0  0  0
   -2.3660    2.1690   -1.3780 O   0  0  0  0  0  0  0  0  0  0  0  0
   -1.6220    1.3660   -0.4750 C   0  0  2  0  0  0  0  0  0  0  0  0
   -0.1550    1.2990   -0.8570 C   0  0  0  0  0  0  0  0  0  0  0  0
    0.7280    0.3880    0.0190 C   0  0  2  0  0  0  0  0  0  0  0  0
    2.0730    0.7140   -0.3110 O   0  0  0  0  0  0  0  0  0  0  0  0
    2.6280    1.8130    0.2660 C   0  0  0  0  0  0  0  0  0  0  0  0
    1.9750    2.4990    1.0350 O   0  0  0  0  0  0  0  0  0  0  0  0
    4.0270    2.0450   -0.1360 C   0  0  0  0  0  0  0  0  0  0  0  0
    4.6270    3.1700    0.2530 C   0  0  0  0  0  0  0  0  0  0  0  0
    4.7030    1.0120   -0.9610 C   0  0  0  0  0  0  0  0  0  0  0  0
    0.5840   -1.1060   -0.3310 C   0  0  1  0  0  0  0  0  0  0  0  0
    1.8560   -1.9530   -0.1600 C   0  0  2  0  0  0  0  0  0  0  0  0
    2.6200   -2.1610   -1.4540 C   0  0  0  0  0  0  0  0  0  0  0  0
    1.3150   -3.2750    0.3340 C   0  0  0  0  0  0  0  0  0  0  0  0
    1.8490   -4.3560    0.4250 O   0  0  0  0  0  0  0  0  0  0  0  0
    0.0090   -3.1770    0.7230 O   0  0  0  0  0  0  0  0  0  0  0  0
   -1.8380    1.6910    1.0000 C   0  0  1  0  0  0  0  0  0  0  0  0
   -3.0690    2.3160    1.1320 O   0  0  0  0  0  0  0  0  0  0  0  0
   -1.8090    0.5690    1.8340 O   0  0  0  0  0  0  0  0  0  0  0  0
   -2.8370   -0.3790    1.7300 C   0  0  0  0  0  0  0  0  0  0  0  0
  1 17  1  0
  1  2  1  0
  1 22  1  6
  2  3  2  0
  3  4  1  0
  3 26  1  0
  4  5  1  0
  5  6  1  0
  6  7  1  6
  6  8  1  0
  8  7  1  6
  8  9  1  0
  8 23  1  0
  9 10  1  0
 10 17  1  0
 10 11  1  6
 11 12  1  0
 12 14  1  0
 12 13  2  0
 14 16  1  0
 14 15  2  0
 17 18  1  1
 18 19  1  6
 18 20  1  0
 20 21  2  0
 20 22  1  0
 23 24  1  6
 23 25  1  0
 25 26  1  0
M  END
>  <id>  (44) 
298

>  <scaffolds>  (44) 
['O=C1CCCO1', 'O=C1CC2CCC34COCC(=CC2O1)CCC3O4']

>  <name>  (44) 
11[beta],13-Dihydrovernolide

>  <formula>  (44) 
C19H24O7

>  <SMILES>  (44) 
[H][C@@]23C=C4CC[C@H]1OC1(C[C@H](OC(=O)C(=C)C)C2[C@H](C)C(=O)O3)C(O)OC4

>  <ChEMBL_id>  (44) 


>  <ZINC_id>  (44) 


>  <PubChem_id>  (44) 


>  <DrugBank_id>  (44) 


>  <CAS_no>  (44) 
105229-54-7

>  <references>  (44) 
[{'journal': {'name': 'Journal of Ethnopharmacology', 'id': 7}, 'title': 'Isolation and identification of antibacterial compounds from Vernonia colorata leaves', 'year': 2002, 'start_page': 91, 'volume': 80, 'issue': 1, 'doi': '10.1016/S0378-8741(02)00010-7', 'isbn': '', 'despositor': {'code': 'DLP', 'first_name': 'David', 'last_name': 'Penkler', 'id': 23}, 'refauthors_set': [{'author': {'first_name': 'T', 'initials': 'T', 'last_name': 'Rabe', 'id': 592}, 'first_author': True, 'id': 814}, {'author': {'first_name': 'Dulcie', 'initials': 'DA', 'last_name': 'Mulholland', 'id': 525}, 'first_author': False, 'id': 815}, {'author': {'first_name': 'Johannes', 'initials': 'J', 'last_name': 'Van Staden', 'id': 489}, 'first_author': False, 'id': 816}], 'id': 282}]

>  <classifications>  (44) 
[{'classification': 'Sesquiterpene', 'id': 828}, {'classification': 'Terpenoid', 'id': 839}, {'classification': 'Lactones (Classyfire)', 'id': 952}]

>  <molecular_mass>  (44) 
364.39

>  <warheads>  (44) 
ab_unsat_carbonyl:1;exo_methylene_carbonyl:1

>  <n_warheads>  (44) 
2

>  <max_tier>  (44) 
1

>  <pains_flag>  (44) 


>  <MW>  (44) 
364.4

>  <cLogP>  (44) 
1.25

>  <HBD>  (44) 
1

>  <HBA>  (44) 
7

>  <TPSA>  (44) 
94.6

>  <ArRings>  (44) 
0

$$$$
SANC00299_minRM1.pdb
     RDKit          3D

 26 28  0  0  1  0  0  0  0  0999 V2000
   -0.2610   -1.0360    0.4050 C   0  0  1  0  0  0  0  0  0  0  0  0
   -0.6340   -2.4260    0.0250 C   0  0  0  0  0  0  0  0  0  0  0  0
   -1.7850   -2.9230   -0.3910 C   0  0  0  0  0  0  0  0  0  0  0  0
    0.6080   -3.2060    0.2540 C   0  0  0  0  0  0  0  0  0  0  0  0
    0.8050   -4.3940    0.3180 O   0  0  0  0  0  0  0  0  0  0  0  0
    1.6820   -2.3590    0.4430 O   0  0  0  0  0  0  0  0  0  0  0  0
    1.2500   -1.0590    0.0800 C   0  0  2  0  0  0  0  0  0  0  0  0
    1.9440    0.0590    0.8480 C   0  0  1  0  0  0  0  0  0  0  0  0
    3.4120   -0.0190    0.5910 C   0  0  0  0  0  0  0  0  0  0  0  0
    4.1710   -0.8920    1.2480 C   0  0  0  0  0  0  0  0  0  0  0  0
    4.0260    0.8680   -0.4150 C   0  0  0  0  0  0  0  0  0  0  0  0
    5.2120    0.9220   -0.6820 O   0  0  0  0  0  0  0  0  0  0  0  0
    3.2670    1.7390   -1.1410 O   0  0  0  0  0  0  0  0  0  0  0  0
    1.8720    1.5680   -1.1050 C   0  0  0  0  0  0  0  0  0  0  0  0
    1.3580    1.3920    0.3310 C   0  0  2  0  0  0  0  0  0  0  0  0
    1.8150    2.4900    1.2480 C   0  0  0  0  0  0  0  0  0  0  0  0
    2.2760    3.6730    0.8650 C   0  0  0  0  0  0  0  0  0  0  0  0
   -0.1810    1.4270    0.3220 C   0  0  0  0  0  0  0  0  0  0  0  0
   -0.8370    0.1820   -0.3060 C   0  0  2  0  0  0  0  0  0  0  0  0
   -2.2150    0.1720    0.0140 O   0  0  0  0  0  0  0  0  0  0  0  0
   -3.0540    0.9840   -0.6860 C   0  0  0  0  0  0  0  0  0  0  0  0
   -2.6100    1.6940   -1.5700 O   0  0  0  0  0  0  0  0  0  0  0  0
   -4.4600    0.8700   -0.2650 C   0  0  0  0  0  0  0  0  0  0  0  0
   -5.3940    1.4870   -0.9880 C   0  0  0  0  0  0  0  0  0  0  0  0
   -4.7270    0.0670    0.9730 C   0  0  0  0  0  0  0  0  0  0  0  0
   -6.0980    0.1460    1.2500 O   0  0  0  0  0  0  0  0  0  0  0  0
  1 19  1  0
  1  2  1  6
  1  7  1  0
  2  3  2  0
  2  4  1  0
  4  5  2  0
  4  6  1  0
  7  6  1  1
  7  8  1  0
  8 15  1  0
  8  9  1  6
  9 11  1  0
  9 10  2  0
 11 13  1  0
 11 12  2  0
 13 14  1  0
 14 15  1  0
 15 18  1  0
 15 16  1  1
 16 17  2  0
 18 19  1  0
 19 20  1  1
 20 21  1  0
 21 22  2  0
 21 23  1  0
 23 24  2  0
 23 25  1  0
 25 26  1  0
M  END
>  <id>  (45) 
299

>  <scaffolds>  (45) 
['C1CCOCC1', 'C1CCCCC1', 'C=C1C(=O)OCC2CCCCC12', 'O=C1CCCO1', 'C=C1C(=O)OC2CCCCC12', 'C=C1C(=O)OC2C1CCC1COC(=O)C(=C)C12']

>  <name>  (45) 
Vernodalin

>  <formula>  (45) 
C19H20O7

>  <SMILES>  (45) 
[H][C@]13C(=C)C(=O)O[C@]1([H])[C@@]2([H])C(=C)C(=O)OC[C@@]2(C=C)C[C@@H]3OC(=O)C(=C)CO

>  <ChEMBL_id>  (45) 
CHEMBL251225

>  <ZINC_id>  (45) 


>  <PubChem_id>  (45) 
179375

>  <DrugBank_id>  (45) 


>  <CAS_no>  (45) 
21871-10-3

>  <references>  (45) 
[{'journal': {'name': 'Journal of Ethnopharmacology', 'id': 7}, 'title': 'Isolation and identification of antibacterial compounds from Vernonia colorata leaves', 'year': 2002, 'start_page': 91, 'volume': 80, 'issue': 1, 'doi': '10.1016/S0378-8741(02)00010-7', 'isbn': '', 'despositor': {'code': 'DLP', 'first_name': 'David', 'last_name': 'Penkler', 'id': 23}, 'refauthors_set': [{'author': {'first_name': 'T', 'initials': 'T', 'last_name': 'Rabe', 'id': 592}, 'first_author': True, 'id': 814}, {'author': {'first_name': 'Dulcie', 'initials': 'DA', 'last_name': 'Mulholland', 'id': 525}, 'first_author': False, 'id': 815}, {'author': {'first_name': 'Johannes', 'initials': 'J', 'last_name': 'Van Staden', 'id': 489}, 'first_author': False, 'id': 816}], 'id': 282}]

>  <classifications>  (45) 
[{'classification': 'Sesquiterpene', 'id': 828}, {'classification': 'Terpenoid', 'id': 839}, {'classification': 'Carboxylic acids and derivatives (Classyfire)', 'id': 950}]

>  <molecular_mass>  (45) 
360.36

>  <warheads>  (45) 
ab_unsat_carbonyl:3;exo_methylene_carbonyl:3

>  <n_warheads>  (45) 
6

>  <max_tier>  (45) 
1

>  <pains_flag>  (45) 


>  <MW>  (45) 
360.4

>  <cLogP>  (45) 
0.85

>  <HBD>  (45) 
1

>  <HBA>  (45) 
7

>  <TPSA>  (45) 
99.1

>  <ArRings>  (45) 
0

$$$$
SANC00300_minRM1.pdb
     RDKit          3D

 26 29  0  0  1  0  0  0  0  0999 V2000
   -0.4200   -1.8250    0.6470 C   0  0  2  0  0  0  0  0  0  0  0  0
   -1.7700   -1.8780    0.0170 C   0  0  0  0  0  0  0  0  0  0  0  0
   -2.8110   -1.1540    0.4240 C   0  0  0  0  0  0  0  0  0  0  0  0
   -4.0200   -1.0340   -0.4450 C   0  0  0  0  0  0  0  0  0  0  0  0
   -4.0090    0.3810   -1.0280 C   0  0  0  0  0  0  0  0  0  0  0  0
   -2.6000    0.7640   -1.4190 C   0  0  1  0  0  0  0  0  0  0  0  0
   -2.3130    2.1490   -1.4070 O   0  0  0  0  0  0  0  0  0  0  0  0
   -1.5840    1.3650   -0.4750 C   0  0  2  0  0  0  0  0  0  0  0  0
   -0.1060    1.3180   -0.8160 C   0  0  0  0  0  0  0  0  0  0  0  0
    0.7480    0.3690    0.0500 C   0  0  2  0  0  0  0  0  0  0  0  0
    2.1000    0.6770   -0.2410 O   0  0  0  0  0  0  0  0  0  0  0  0
    2.6710    1.7560    0.3540 C   0  0  0  0  0  0  0  0  0  0  0  0
    2.0380    2.4360    1.1430 O   0  0  0  0  0  0  0  0  0  0  0  0
    4.0730    1.9640   -0.0540 C   0  0  0  0  0  0  0  0  0  0  0  0
    4.8850    2.6210    0.7740 C   0  0  0  0  0  0  0  0  0  0  0  0
    4.4960    1.4520   -1.3820 C   0  0  0  0  0  0  0  0  0  0  0  0
    0.5590   -1.1100   -0.3480 C   0  0  1  0  0  0  0  0  0  0  0  0
    1.7470   -2.0170   -0.3250 C   0  0  0  0  0  0  0  0  0  0  0  0
    2.9380   -1.9010   -0.8930 C   0  0  0  0  0  0  0  0  0  0  0  0
    1.3340   -3.2510    0.3730 C   0  0  0  0  0  0  0  0  0  0  0  0
    1.9290   -4.2870    0.5690 O   0  0  0  0  0  0  0  0  0  0  0  0
    0.0490   -3.1530    0.8270 O   0  0  0  0  0  0  0  0  0  0  0  0
   -1.8470    1.6920    0.9910 C   0  0  1  0  0  0  0  0  0  0  0  0
   -3.0790    2.3200    1.0800 O   0  0  0  0  0  0  0  0  0  0  0  0
   -1.8460    0.5730    1.8290 O   0  0  0  0  0  0  0  0  0  0  0  0
   -2.8710   -0.3750    1.7010 C   0  0  0  0  0  0  0  0  0  0  0  0
  1 17  1  0
  1  2  1  0
  1 22  1  6
  2  3  2  0
  3  4  1  0
  3 26  1  0
  4  5  1  0
  5  6  1  0
  6  7  1  6
  6  8  1  0
  8  7  1  6
  8  9  1  0
  8 23  1  0
  9 10  1  0
 10 17  1  0
 10 11  1  6
 11 12  1  0
 12 14  1  0
 12 13  2  0
 14 16  1  0
 14 15  2  0
 17 18  1  1
 18 19  2  0
 18 20  1  0
 20 21  2  0
 20 22  1  0
 23 24  1  6
 23 25  1  0
 25 26  1  0
M  END
>  <id>  (46) 
300

>  <scaffolds>  (46) 
['O=C1CCCO1', 'C=C1C(=O)OC2C=C3CCC4OC4(CCC12)COC3', 'O=C1CC2CCC34COCC(=CC2O1)CCC3O4']

>  <name>  (46) 
Vernolide

>  <formula>  (46) 
C19H22O7

>  <SMILES>  (46) 
[H][C@@]23C=C4CC[C@H]1OC1(C[C@H](OC(=O)C(=C)C)[C@@]2([H])C(=C)C(=O)O3)C(O)OC4

>  <ChEMBL_id>  (46) 


>  <ZINC_id>  (46) 


>  <PubChem_id>  (46) 
 5381813

>  <DrugBank_id>  (46) 


>  <CAS_no>  (46) 
27428-86-0

>  <references>  (46) 
[{'journal': {'name': 'Journal of Ethnopharmacology', 'id': 7}, 'title': 'Isolation and identification of antibacterial compounds from Vernonia colorata leaves', 'year': 2002, 'start_page': 91, 'volume': 80, 'issue': 1, 'doi': '10.1016/S0378-8741(02)00010-7', 'isbn': '', 'despositor': {'code': 'DLP', 'first_name': 'David', 'last_name': 'Penkler', 'id': 23}, 'refauthors_set': [{'author': {'first_name': 'T', 'initials': 'T', 'last_name': 'Rabe', 'id': 592}, 'first_author': True, 'id': 814}, {'author': {'first_name': 'Dulcie', 'initials': 'DA', 'last_name': 'Mulholland', 'id': 525}, 'first_author': False, 'id': 815}, {'author': {'first_name': 'Johannes', 'initials': 'J', 'last_name': 'Van Staden', 'id': 489}, 'first_author': False, 'id': 816}], 'id': 282}, {'journal': {'name': 'Journal of Ethnopharmacology', 'id': 7}, 'title': 'Bioactive sesquiterpene lactones from the leaves of Vernonia amygdalina', 'year': 2006, 'start_page': 117, 'volume': 106, 'issue': None, 'doi': '10.1016/j.jep.2005.12.016', 'isbn': '', 'despositor': {'code': 'DLP', 'first_name': 'David', 'last_name': 'Penkler', 'id': 23}, 'refauthors_set': [{'author': {'first_name': '', 'initials': 'P', 'last_name': 'Erasto', 'id': 611}, 'first_author': True, 'id': 836}, {'author': {'first_name': '', 'initials': 'DS', 'last_name': 'Grierson', 'id': 612}, 'first_author': False, 'id': 837}, {'author': {'first_name': 'Anthonia ', 'initials': 'AF', 'last_name': 'Afolayan', 'id': 548}, 'first_author': False, 'id': 838}], 'id': 289}]

>  <classifications>  (46) 
[{'classification': 'Sesquiterpene', 'id': 828}, {'classification': 'Terpenoid', 'id': 839}, {'classification': 'Lactones (Classyfire)', 'id': 952}]

>  <molecular_mass>  (46) 
362.37

>  <warheads>  (46) 
ab_unsat_carbonyl:2;exo_methylene_carbonyl:2

>  <n_warheads>  (46) 
4

>  <max_tier>  (46) 
1

>  <pains_flag>  (46) 


>  <MW>  (46) 
362.4

>  <cLogP>  (46) 
1.17

>  <HBD>  (46) 
1

>  <HBA>  (46) 
7

>  <TPSA>  (46) 
94.6

>  <ArRings>  (46) 
0

$$$$
SANC00308_minRM1.pdb
     RDKit          3D

 24 28  0  0  1  0  0  0  0  0999 V2000
    0.4180    3.9490   -0.1070 C   0  0  0  0  0  0  0  0  0  0  0  0
    0.6900    2.5100    0.3360 C   0  0  2  0  0  0  0  0  0  0  0  0
    2.1710    2.1570    0.1430 C   0  0  0  0  0  0  0  0  0  0  0  0
    2.4110    0.8150   -0.4990 C   0  0  1  0  0  0  0  0  0  0  0  0
    3.1180   -0.2830    0.3000 C   0  0  0  0  0  0  0  0  0  0  0  0
    4.1270   -1.1230   -0.4350 C   0  0  0  0  0  0  0  0  0  0  0  0
    3.4870   -0.0790    1.7420 C   0  0  0  0  0  0  0  0  0  0  0  0
    1.6420   -0.4070   -0.0560 C   0  0  2  0  0  0  0  0  0  0  0  0
    1.3370   -1.3560   -1.0390 O   0  0  0  0  0  0  0  0  0  0  0  0
    0.3100   -2.2010   -0.5480 C   0  0  2  0  0  0  0  0  0  0  0  0
    0.6450   -3.6270   -0.9330 C   0  0  0  0  0  0  0  0  0  0  0  0
   -1.0080   -1.7240   -1.0900 C   0  0  0  0  0  0  0  0  0  0  0  0
   -1.4560   -0.5650   -0.6210 C   0  0  0  0  0  0  0  0  0  0  0  0
   -2.8250   -0.0300   -0.7390 C   0  0  0  0  0  0  0  0  0  0  0  0
   -3.6570   -0.3610   -1.5530 O   0  0  0  0  0  0  0  0  0  0  0  0
   -3.0280    0.9680    0.3870 C   0  0  1  0  0  0  0  0  0  0  0  0
   -4.3270    0.7070    1.1220 C   0  0  0  0  0  0  0  0  0  0  0  0
   -1.7930    0.7890    1.2890 C   0  0  0  0  0  0  0  0  0  0  0  0
   -0.6900    0.3250    0.3170 C   0  0  2  0  0  0  0  0  0  0  0  0
   -0.2060    1.5630   -0.4350 C   0  0  0  0  0  0  0  0  0  0  0  0
   -0.5600    1.7970   -1.5720 O   0  0  0  0  0  0  0  0  0  0  0  0
    0.5060   -0.4010    0.9510 C   0  0  1  0  0  0  0  0  0  0  0  0
    0.2760   -1.9340    0.9990 C   0  0  1  0  0  0  0  0  0  0  0  0
   -0.9260   -2.2140    1.6300 O   0  0  0  0  0  0  0  0  0  0  0  0
  2  1  1  6
  2 20  1  0
  2  3  1  0
  4  3  1  1
  4  8  1  0
  4  5  1  0
  5  6  1  0
  5  8  1  0
  5  7  1  0
  8  9  1  6
  8 22  1  0
  9 10  1  0
 10 12  1  0
 10 11  1  1
 10 23  1  0
 12 13  2  0
 13 14  1  0
 14 15  2  0
 14 16  1  0
 16 17  1  1
 16 18  1  0
 19 18  1  1
 19 13  1  0
 19 20  1  0
 22 19  1  6
 20 21  2  0
 22 23  1  0
 23 24  1  6
M  END
>  <id>  (47) 
308

>  <scaffolds>  (47) 
['C1=CCCCC1', 'O=C1CCC23C(=O)CCC4CC45OC(C=C12)CC35']

>  <name>  (47) 
Steenkrotin A

>  <formula>  (47) 
C20H26O4

>  <SMILES>  (47) 
C[C@@H]3CC1C(C)(C)C14O[C@]5(C)C=C2C(=O)[C@@H](C)CC2(C3=O)C4C5O

>  <ChEMBL_id>  (47) 


>  <ZINC_id>  (47) 


>  <PubChem_id>  (47) 


>  <DrugBank_id>  (47) 


>  <CAS_no>  (47) 
1067547-81-2

>  <references>  (47) 
[{'journal': {'name': 'Journal of Natural Products', 'id': 5}, 'title': 'Bioactive Diterpenes and Other Constituents of Croton steenkampianus', 'year': 2008, 'start_page': 1919, 'volume': 71, 'issue': 11, 'doi': '10.1021/np800333r', 'isbn': '', 'despositor': {'code': 'NFA', 'first_name': 'Ngonidzashe', 'last_name': 'Faya', 'id': 21}, 'refauthors_set': [{'author': {'first_name': 'Adeboye', 'initials': 'AM', 'last_name': 'Adelekan', 'id': 461}, 'first_author': True, 'id': 631}, {'author': {'first_name': 'Erwin', 'initials': 'EA', 'last_name': 'Prozesky', 'id': 462}, 'first_author': None, 'id': 1224}, {'author': {'first_name': 'Ahmed', 'initials': 'AA', 'last_name': 'Hussein', 'id': 440}, 'first_author': None, 'id': 1225}, {'author': {'first_name': 'Luis', 'initials': 'D', 'last_name': 'Urena', 'id': 464}, 'first_author': None, 'id': 1226}, {'author': {'first_name': 'David', 'initials': 'DC', 'last_name': 'Liles', 'id': 466}, 'first_author': None, 'id': 1227}, {'author': {'first_name': 'Jacobus', 'initials': 'JM', 'last_name': 'Meyer', 'id': 716}, 'first_author': None, 'id': 1228}, {'author': {'first_name': 'Benjamin', 'initials': 'B', 'last_name': 'Rodriguez', 'id': 472}, 'first_author': None, 'id': 1229}], 'id': 237}]

>  <classifications>  (47) 
[{'classification': 'Diterpene', 'id': 771}, {'classification': 'Steenkrotin', 'id': 834}, {'classification': 'Terpenoid', 'id': 839}, {'classification': 'Phenol lipids (Classyfire)', 'id': 951}]

>  <molecular_mass>  (47) 
330.42

>  <warheads>  (47) 
ab_unsat_carbonyl:1

>  <n_warheads>  (47) 
1

>  <max_tier>  (47) 
1

>  <pains_flag>  (47) 


>  <MW>  (47) 
330.4

>  <cLogP>  (47) 
2.29

>  <HBD>  (47) 
1

>  <HBA>  (47) 
4

>  <TPSA>  (47) 
63.6

>  <ArRings>  (47) 
0

$$$$
SANC00314_minRM1.pdb
     RDKit          3D

 27 30  0  0  1  0  0  0  0  0999 V2000
   -0.1750   -0.5590    1.1570 C   0  0  2  0  0  0  0  0  0  0  0  0
   -0.6900   -2.0200    1.1650 C   0  0  1  0  0  0  0  0  0  0  0  0
   -1.9690   -2.0260    1.7140 O   0  0  0  0  0  0  0  0  0  0  0  0
   -0.7130   -2.4630   -0.3290 C   0  0  1  0  0  0  0  0  0  0  0  0
   -0.9100   -3.9620   -0.4840 C   0  0  0  0  0  0  0  0  0  0  0  0
   -1.7550   -1.6580   -1.0460 C   0  0  0  0  0  0  0  0  0  0  0  0
   -1.9100   -0.3880   -0.6930 C   0  0  0  0  0  0  0  0  0  0  0  0
   -3.0890    0.4340   -1.0320 C   0  0  0  0  0  0  0  0  0  0  0  0
   -3.7650    0.3470   -2.0320 O   0  0  0  0  0  0  0  0  0  0  0  0
   -3.3370    1.3680    0.1380 C   0  0  1  0  0  0  0  0  0  0  0  0
   -4.7660    1.2490    0.6340 C   0  0  0  0  0  0  0  0  0  0  0  0
   -2.3040    0.9380    1.2000 C   0  0  0  0  0  0  0  0  0  0  0  0
   -1.1320    0.3370    0.3650 C   0  0  1  0  0  0  0  0  0  0  0  0
   -0.4530    1.5820   -0.1780 C   0  0  0  0  0  0  0  0  0  0  0  0
   -0.6950    2.0250   -1.2820 O   0  0  0  0  0  0  0  0  0  0  0  0
    0.4800    2.2790    0.7860 C   0  0  2  0  0  0  0  0  0  0  0  0
    0.4140    3.7890    0.5930 C   0  0  0  0  0  0  0  0  0  0  0  0
    1.9010    1.7530    0.5720 C   0  0  0  0  0  0  0  0  0  0  0  0
    1.9470    0.4260   -0.1800 C   0  0  1  0  0  0  0  0  0  0  0  0
    3.4200    0.1620   -0.6270 C   0  0  0  0  0  0  0  0  0  0  0  0
    4.4890    0.4110    0.4510 C   0  0  0  0  0  0  0  0  0  0  0  0
    3.7320    1.0720   -1.8290 C   0  0  0  0  0  0  0  0  0  0  0  0
    3.4620   -1.1830   -0.9950 O   0  0  0  0  0  0  0  0  0  0  0  0
    1.3110   -0.7050    0.6540 C   0  0  1  0  0  0  0  0  0  0  0  0
    2.0120   -0.9660    1.8230 O   0  0  0  0  0  0  0  0  0  0  0  0
    1.4620   -1.9320   -0.0800 O   0  0  0  0  0  0  0  0  0  0  0  0
    0.5210   -2.0970   -0.9520 O   0  0  0  0  0  0  0  0  0  0  0  0
  1 13  1  6
  1 24  1  0
  1  2  1  0
  2  4  1  0
  2  3  1  6
  4  6  1  0
  4 27  1  0
  4  5  1  1
  6  7  2  0
  7  8  1  0
  8  9  2  0
  8 10  1  0
 10 11  1  1
 10 12  1  0
 13 12  1  1
 13  7  1  0
 13 14  1  0
 14 15  2  0
 14 16  1  0
 16 18  1  0
 16 17  1  6
 18 19  1  0
 19 20  1  1
 19 24  1  0
 20 22  1  0
 20 23  1  0
 20 21  1  0
 24 26  1  0
 24 25  1  1
 26 27  1  0
M  END
>  <id>  (48) 
314

>  <scaffolds>  (48) 
['C1=CCCCC1', 'O=C1CCC23C(=O)CCCC4OOC(C=C12)CC43']

>  <name>  (48) 
Steenkrotin B

>  <formula>  (48) 
C20H28O7

>  <SMILES>  (48) 
[H][C@@]23[C@@H](O)[C@@]4(C)C=C1C(=O)[C@@H](C)C[C@]12C(=O)[C@H](C)CC([C@](C)(C)O)[C@]3(O)OO4

>  <ChEMBL_id>  (48) 


>  <ZINC_id>  (48) 


>  <PubChem_id>  (48) 


>  <DrugBank_id>  (48) 


>  <CAS_no>  (48) 
1067547-85-6

>  <references>  (48) 
[{'journal': {'name': 'Journal of Natural Products', 'id': 5}, 'title': 'Bioactive Diterpenes and Other Constituents of Croton steenkampianus', 'year': 2008, 'start_page': 1919, 'volume': 71, 'issue': 11, 'doi': '10.1021/np800333r', 'isbn': '', 'despositor': {'code': 'NFA', 'first_name': 'Ngonidzashe', 'last_name': 'Faya', 'id': 21}, 'refauthors_set': [{'author': {'first_name': 'Adeboye', 'initials': 'AM', 'last_name': 'Adelekan', 'id': 461}, 'first_author': True, 'id': 631}, {'author': {'first_name': 'Erwin', 'initials': 'EA', 'last_name': 'Prozesky', 'id': 462}, 'first_author': None, 'id': 1224}, {'author': {'first_name': 'Ahmed', 'initials': 'AA', 'last_name': 'Hussein', 'id': 440}, 'first_author': None, 'id': 1225}, {'author': {'first_name': 'Luis', 'initials': 'D', 'last_name': 'Urena', 'id': 464}, 'first_author': None, 'id': 1226}, {'author': {'first_name': 'David', 'initials': 'DC', 'last_name': 'Liles', 'id': 466}, 'first_author': None, 'id': 1227}, {'author': {'first_name': 'Jacobus', 'initials': 'JM', 'last_name': 'Meyer', 'id': 716}, 'first_author': None, 'id': 1228}, {'author': {'first_name': 'Benjamin', 'initials': 'B', 'last_name': 'Rodriguez', 'id': 472}, 'first_author': None, 'id': 1229}], 'id': 237}]

>  <classifications>  (48) 
[{'classification': 'Diterpene', 'id': 771}, {'classification': 'Terpenoid', 'id': 839}, {'classification': 'Dioxanes (Classyfire)', 'id': 972}]

>  <molecular_mass>  (48) 
380.43

>  <warheads>  (48) 
ab_unsat_carbonyl:1

>  <n_warheads>  (48) 
1

>  <max_tier>  (48) 
1

>  <pains_flag>  (48) 


>  <MW>  (48) 
380.4

>  <cLogP>  (48) 
0.9

>  <HBD>  (48) 
3

>  <HBA>  (48) 
7

>  <TPSA>  (48) 
113.3

>  <ArRings>  (48) 
0

$$$$
SANC00341_minRM1.pdb
     RDKit          3D

 28 29  0  0  1  0  0  0  0  0999 V2000
   -2.0860    0.4820   -1.0820 C   0  0  1  0  0  0  0  0  0  0  0  0
   -3.5470    0.2680   -0.8570 C   0  0  0  0  0  0  0  0  0  0  0  0
   -4.3390   -0.1790   -1.8260 C   0  0  0  0  0  0  0  0  0  0  0  0
   -4.1170    0.5340    0.4700 C   0  0  0  0  0  0  0  0  0  0  0  0
   -5.2680    0.2940    0.7880 O   0  0  0  0  0  0  0  0  0  0  0  0
   -3.3820    1.1170    1.4610 O   0  0  0  0  0  0  0  0  0  0  0  0
   -1.9890    1.1620    1.3050 C   0  0  0  0  0  0  0  0  0  0  0  0
   -1.5710    1.5570   -0.1140 C   0  0  2  0  0  0  0  0  0  0  0  0
   -2.1480    2.8770   -0.5380 C   0  0  0  0  0  0  0  0  0  0  0  0
   -2.7920    3.7410    0.2350 C   0  0  0  0  0  0  0  0  0  0  0  0
   -0.0470    1.6850   -0.1890 C   0  0  0  0  0  0  0  0  0  0  0  0
    0.6430    0.3360    0.0390 C   0  0  2  0  0  0  0  0  0  0  0  0
    2.0290    0.4850   -0.2160 O   0  0  0  0  0  0  0  0  0  0  0  0
    2.8060    1.0750    0.7320 C   0  0  0  0  0  0  0  0  0  0  0  0
    2.3090    1.4480    1.7820 O   0  0  0  0  0  0  0  0  0  0  0  0
    4.2250    1.1770    0.3450 C   0  0  0  0  0  0  0  0  0  0  0  0
    5.1080    1.5510    1.2690 C   0  0  0  0  0  0  0  0  0  0  0  0
    4.5610    0.8410   -1.0760 C   0  0  0  0  0  0  0  0  0  0  0  0
    5.8990    1.1810   -1.2920 O   0  0  0  0  0  0  0  0  0  0  0  0
    0.1720   -0.6750   -1.0170 C   0  0  1  0  0  0  0  0  0  0  0  0
    0.8680   -1.9920   -0.9030 C   0  0  0  0  0  0  0  0  0  0  0  0
    1.2920   -2.6650   -1.9710 C   0  0  0  0  0  0  0  0  0  0  0  0
    1.1350   -2.5870    0.4220 C   0  0  0  0  0  0  0  0  0  0  0  0
    2.1230   -3.2290    0.7420 O   0  0  0  0  0  0  0  0  0  0  0  0
    0.1220   -2.4040    1.3090 O   0  0  0  0  0  0  0  0  0  0  0  0
    0.2720   -2.9820    2.5890 C   0  0  0  0  0  0  0  0  0  0  0  0
   -1.3570   -0.8660   -0.8850 C   0  0  2  0  0  0  0  0  0  0  0  0
   -1.8020   -1.6760   -1.9370 O   0  0  0  0  0  0  0  0  0  0  0  0
  1 27  1  0
  1  2  1  1
  1  8  1  0
  2  3  2  0
  2  4  1  0
  4  5  2  0
  4  6  1  0
  6  7  1  0
  7  8  1  0
  8  9  1  6
  8 11  1  0
  9 10  2  0
 11 12  1  0
 12 20  1  0
 12 13  1  6
 13 14  1  0
 14 16  1  0
 14 15  2  0
 16 18  1  0
 16 17  2  0
 18 19  1  0
 20 21  1  1
 20 27  1  0
 21 22  2  0
 21 23  1  0
 23 24  2  0
 23 25  1  0
 25 26  1  0
 27 28  1  6
M  END
>  <id>  (49) 
341

>  <scaffolds>  (49) 
['C1CCOCC1', 'C1CCCCC1', 'C=C1C(=O)OCC2CCCCC12']

>  <name>  (49) 
Vernodalol

>  <formula>  (49) 
C20H24O8

>  <SMILES>  (49) 
[H][C@]12C(=C)C(=O)OC[C@@]1(C=C)C[C@H](OC(=O)C(=C)CO)[C@@H](C(=C)C(=O)OC)[C@@H]2O

>  <ChEMBL_id>  (49) 


>  <ZINC_id>  (49) 


>  <PubChem_id>  (49) 
442318

>  <DrugBank_id>  (49) 


>  <CAS_no>  (49) 
65388-17-2

>  <references>  (49) 
[{'journal': {'name': 'Journal of Ethnopharmacology', 'id': 7}, 'title': 'Bioactive sesquiterpene lactones from the leaves of Vernonia amygdalina', 'year': 2006, 'start_page': 117, 'volume': 106, 'issue': None, 'doi': '10.1016/j.jep.2005.12.016', 'isbn': '', 'despositor': {'code': 'DLP', 'first_name': 'David', 'last_name': 'Penkler', 'id': 23}, 'refauthors_set': [{'author': {'first_name': '', 'initials': 'P', 'last_name': 'Erasto', 'id': 611}, 'first_author': True, 'id': 836}, {'author': {'first_name': '', 'initials': 'DS', 'last_name': 'Grierson', 'id': 612}, 'first_author': False, 'id': 837}, {'author': {'first_name': 'Anthonia ', 'initials': 'AF', 'last_name': 'Afolayan', 'id': 548}, 'first_author': False, 'id': 838}], 'id': 289}]

>  <classifications>  (49) 
[{'classification': 'Diterpene', 'id': 771}, {'classification': 'Terpenoid', 'id': 839}, {'classification': 'Phenol lipids (Classyfire)', 'id': 951}]

>  <molecular_mass>  (49) 
392.4

>  <warheads>  (49) 
ab_unsat_carbonyl:3;exo_methylene_carbonyl:3

>  <n_warheads>  (49) 
6

>  <max_tier>  (49) 
1

>  <pains_flag>  (49) 


>  <MW>  (49) 
392.4

>  <cLogP>  (49) 
0.46

>  <HBD>  (49) 
2

>  <HBA>  (49) 
8

>  <TPSA>  (49) 
119.4

>  <ArRings>  (49) 
0

$$$$
SANC00349_minRM1.pdb
     RDKit          3D

 18 20  0  0  1  0  0  0  0  0999 V2000
   -1.1330   -1.0640   -0.1170 C   0  0  1  0  0  0  0  0  0  0  0  0
   -2.3570   -1.9070    0.2450 C   0  0  0  0  0  0  0  0  0  0  0  0
   -3.6050   -1.3450   -0.3360 C   0  0  0  0  0  0  0  0  0  0  0  0
   -3.7090   -0.0830   -0.7460 C   0  0  0  0  0  0  0  0  0  0  0  0
   -2.5820    0.8610   -0.6590 C   0  0  0  0  0  0  0  0  0  0  0  0
   -2.6260    1.9480   -1.2050 O   0  0  0  0  0  0  0  0  0  0  0  0
   -1.3870    0.4220    0.1810 C   0  0  1  0  0  0  0  0  0  0  0  0
   -1.7860    0.6720    1.6320 C   0  0  0  0  0  0  0  0  0  0  0  0
   -0.1650    1.2620   -0.2100 C   0  0  0  0  0  0  0  0  0  0  0  0
    1.0900    0.7450    0.4870 C   0  0  2  0  0  0  0  0  0  0  0  0
    1.0720    1.1430    1.8080 O   0  0  0  0  0  0  0  0  0  0  0  0
    2.2680    1.3160   -0.0790 O   0  0  0  0  0  0  0  0  0  0  0  0
    3.1090    0.3000   -0.4710 C   0  0  0  0  0  0  0  0  0  0  0  0
    4.1880    0.5890   -0.9260 O   0  0  0  0  0  0  0  0  0  0  0  0
    2.4390   -1.0110   -0.2500 C   0  0  0  0  0  0  0  0  0  0  0  0
    3.0740   -2.2800   -0.6220 C   0  0  0  0  0  0  0  0  0  0  0  0
    1.2450   -0.7580    0.2940 C   0  0  0  0  0  0  0  0  0  0  0  0
    0.0970   -1.6120    0.6190 C   0  0  0  0  0  0  0  0  0  0  0  0
  1  7  1  0
  1  2  1  1
  1 18  1  0
  2  3  1  0
  3  4  2  0
  4  5  1  0
  5  6  2  0
  5  7  1  0
  7  9  1  0
  7  8  1  1
  9 10  1  0
 10 12  1  0
 10 17  1  0
 10 11  1  1
 12 13  1  0
 13 14  2  0
 13 15  1  0
 15 16  1  0
 15 17  2  0
 17 18  1  0
M  END
>  <id>  (50) 
349

>  <scaffolds>  (50) 
['C1=CCCCC1', 'C1=CCC2CCCCC2C1', 'C1CCCCC1', 'O=C1C=CCCC1']

>  <name>  (50) 
9a[beta]-hydroxy- 4a[alpha]H-3,5[alpha],8[beta]a- trimethyl-4,4a,8a,9-tetrahydronaphtho-([2,3b]-dihydrofuran-2-one)-8-one

>  <formula>  (50) 
C14H16O4

>  <SMILES>  (50) 
[H][C@]13CC=CC(=O)[C@]1(C)C[C@]2(O)OC(=O)C(C)=C2C3

>  <ChEMBL_id>  (50) 


>  <ZINC_id>  (50) 


>  <PubChem_id>  (50) 


>  <DrugBank_id>  (50) 


>  <CAS_no>  (50) 
1187534-32-2

>  <references>  (50) 
[{'journal': {'name': 'Journal of Ethnopharmacology', 'id': 7}, 'title': 'The bioactivity of novel furanoterpenoids isolated from Siphonochilus aethiopicus', 'year': 2009, 'start_page': 92, 'volume': 121, 'issue': None, 'doi': '10.1016/j.jep.2008.10.007', 'isbn': '', 'despositor': {'code': 'DLP', 'first_name': 'David', 'last_name': 'Penkler', 'id': 23}, 'refauthors_set': [{'author': {'first_name': 'Carmen', 'initials': 'CA', 'last_name': 'Lategan', 'id': 488}, 'first_author': True, 'id': 846}, {'author': {'first_name': 'William', 'initials': 'WE', 'last_name': 'Campbell', 'id': 621}, 'first_author': False, 'id': 847}, {'author': {'first_name': 'Tracy', 'initials': 'T', 'last_name': 'Seaman', 'id': 622}, 'first_author': False, 'id': 848}, {'author': {'first_name': 'Peter', 'initials': 'PJ', 'last_name': 'Smith', 'id': 490}, 'first_author': False, 'id': 849}], 'id': 293}]

>  <classifications>  (50) 
[{'classification': 'Furanoterpenoid', 'id': 779}, {'classification': 'Terpenoid', 'id': 839}, {'classification': 'Naphthofurans (Classyfire)', 'id': 974}]

>  <molecular_mass>  (50) 
248.27

>  <warheads>  (50) 
ab_unsat_carbonyl:2

>  <n_warheads>  (50) 
2

>  <max_tier>  (50) 
1

>  <pains_flag>  (50) 


>  <MW>  (50) 
248.3

>  <cLogP>  (50) 
1.49

>  <HBD>  (50) 
1

>  <HBA>  (50) 
4

>  <TPSA>  (50) 
63.6

>  <ArRings>  (50) 
0

$$$$
SANC00350_minRM1.pdb
     RDKit          3D

 22 24  0  0  0  0  0  0  0  0999 V2000
    6.4680    1.2490    0.1210 C   0  0  0  0  0  0  0  0  0  0  0  0
    5.1900    1.5360    0.6250 O   0  0  0  0  0  0  0  0  0  0  0  0
    4.2230    0.5900    0.4540 C   0  0  0  0  0  0  0  0  0  0  0  0
    4.3980   -0.6410   -0.1700 C   0  0  0  0  0  0  0  0  0  0  0  0
    3.3090   -1.4970   -0.2810 C   0  0  0  0  0  0  0  0  0  0  0  0
    2.0650   -1.1290    0.2140 C   0  0  0  0  0  0  0  0  0  0  0  0
    0.9450   -2.0510    0.0960 C   0  0  0  0  0  0  0  0  0  0  0  0
   -0.2730   -1.6870   -0.3070 C   0  0  0  0  0  0  0  0  0  0  0  0
   -1.4250   -2.6370   -0.3720 C   0  0  0  0  0  0  0  0  0  0  0  0
   -2.5440   -2.1750    0.3560 O   0  0  0  0  0  0  0  0  0  0  0  0
   -2.8770   -0.8670    0.2060 C   0  0  0  0  0  0  0  0  0  0  0  0
   -4.1390   -0.5070    0.6590 C   0  0  0  0  0  0  0  0  0  0  0  0
   -4.4940    0.8460    0.5560 C   0  0  0  0  0  0  0  0  0  0  0  0
   -5.7270    1.1370    1.0250 O   0  0  0  0  0  0  0  0  0  0  0  0
   -3.6620    1.8120   -0.0110 C   0  0  0  0  0  0  0  0  0  0  0  0
   -2.4110    1.3990   -0.4790 C   0  0  0  0  0  0  0  0  0  0  0  0
   -1.6470    2.3450   -1.0360 O   0  0  0  0  0  0  0  0  0  0  0  0
   -1.9880    0.0640   -0.3480 C   0  0  0  0  0  0  0  0  0  0  0  0
   -0.6450   -0.3290   -0.7250 C   0  0  0  0  0  0  0  0  0  0  0  0
    0.0910    0.4360   -1.3410 O   0  0  0  0  0  0  0  0  0  0  0  0
    1.9090    0.1000    0.8610 C   0  0  0  0  0  0  0  0  0  0  0  0
    2.9800    0.9660    0.9860 C   0  0  0  0  0  0  0  0  0  0  0  0
  1  2  1  0
  2  3  1  0
  3  4  1  0
  3 22  2  0
  4  5  2  0
  5  6  1  0
  6  7  1  0
  6 21  2  0
  7  8  2  0
  8 19  1  0
  8  9  1  0
  9 10  1  0
 10 11  1  0
 11 18  1  0
 11 12  2  0
 12 13  1  0
 13 15  2  0
 13 14  1  0
 15 16  1  0
 16 17  1  0
 16 18  2  0
 18 19  1  0
 19 20  2  0
 21 22  1  0
M  END
>  <id>  (51) 
350

>  <scaffolds>  (51) 
['c1ccccc1', 'O=C1C(=Cc2ccccc2)COc2ccccc21', 'O=C(C=Cc1ccccc1)c1ccccc1', 'C(=Cc1ccccc1)Cc1ccccc1']

>  <name>  (51) 
Eucomin

>  <formula>  (51) 
C17H14O5

>  <SMILES>  (51) 
COc3ccc(C=C2COc1cc(O)cc(O)c1C2=O)cc3

>  <ChEMBL_id>  (51) 


>  <ZINC_id>  (51) 


>  <PubChem_id>  (51) 


>  <DrugBank_id>  (51) 


>  <CAS_no>  (51) 
27589-19-1

>  <references>  (51) 
[{'journal': {'name': 'Biochemical Systematics and Ecology', 'id': 24}, 'title': 'Coincident isolation of a novel homoisoflavonoid from Resnova humifusa and Eucomis montana (Hyacinthoideae: Hyacinthaceae)', 'year': 2006, 'start_page': 114, 'volume': 34, 'issue': None, 'doi': '10.1016/j.bse.2005.08.003', 'isbn': '', 'despositor': {'code': 'rah', 'first_name': 'Rowan', 'last_name': 'Hatherley', 'id': 20}, 'refauthors_set': [{'author': {'first_name': 'Chantal', 'initials': 'C', 'last_name': 'Koorbanally', 'id': 523}, 'first_author': True, 'id': 854}, {'author': {'first_name': 'Neil', 'initials': 'NR', 'last_name': 'Crouch', 'id': 524}, 'first_author': False, 'id': 855}, {'author': {'first_name': 'Avinash', 'initials': 'A', 'last_name': 'Harilal', 'id': 624}, 'first_author': False, 'id': 856}, {'author': {'first_name': 'Bavani', 'initials': 'B', 'last_name': 'Pillay', 'id': 625}, 'first_author': False, 'id': 857}, {'author': {'first_name': 'Dulcie', 'initials': 'DA', 'last_name': 'Mulholland', 'id': 525}, 'first_author': False, 'id': 858}], 'id': 286}]

>  <classifications>  (51) 
[{'classification': 'Flavonoids', 'id': 776}, {'classification': 'Homoisoflavonoid', 'id': 783}, {'classification': 'Homoisoflavonoids (Classyfire)', 'id': 964}]

>  <molecular_mass>  (51) 
298.29

>  <warheads>  (51) 
ab_unsat_carbonyl:1

>  <n_warheads>  (51) 
1

>  <max_tier>  (51) 
1

>  <pains_flag>  (51) 


>  <MW>  (51) 
298.3

>  <cLogP>  (51) 
2.77

>  <HBD>  (51) 
2

>  <HBA>  (51) 
5

>  <TPSA>  (51) 
76.0

>  <ArRings>  (51) 
2

$$$$
SANC00353_minRM1.pdb
     RDKit          3D

 17 19  0  0  1  0  0  0  0  0999 V2000
   -1.0580   -1.0040   -0.1590 C   0  0  1  0  0  0  0  0  0  0  0  0
   -2.2790   -1.8900    0.0870 C   0  0  0  0  0  0  0  0  0  0  0  0
   -3.5260   -1.2650   -0.4260 C   0  0  0  0  0  0  0  0  0  0  0  0
   -3.6330    0.0380   -0.6780 C   0  0  0  0  0  0  0  0  0  0  0  0
   -2.5120    0.9690   -0.4700 C   0  0  0  0  0  0  0  0  0  0  0  0
   -2.5580    2.1150   -0.8750 O   0  0  0  0  0  0  0  0  0  0  0  0
   -1.3200    0.4340    0.3150 C   0  0  1  0  0  0  0  0  0  0  0  0
   -1.7200    0.5130    1.7840 C   0  0  0  0  0  0  0  0  0  0  0  0
   -0.0880    1.3080    0.0410 C   0  0  0  0  0  0  0  0  0  0  0  0
    1.1220    0.7290    0.7670 C   0  0  2  0  0  0  0  0  0  0  0  0
    2.3070    1.4000    0.3550 O   0  0  0  0  0  0  0  0  0  0  0  0
    3.1750    0.4720   -0.1760 C   0  0  0  0  0  0  0  0  0  0  0  0
    4.2620    0.8490   -0.5410 O   0  0  0  0  0  0  0  0  0  0  0  0
    2.5250   -0.8630   -0.1850 C   0  0  0  0  0  0  0  0  0  0  0  0
    3.1960   -2.0510   -0.7240 C   0  0  0  0  0  0  0  0  0  0  0  0
    1.3090   -0.7120    0.3530 C   0  0  0  0  0  0  0  0  0  0  0  0
    0.1730   -1.6310    0.5090 C   0  0  0  0  0  0  0  0  0  0  0  0
  1  2  1  1
  1  7  1  0
  1 17  1  0
  2  3  1  0
  3  4  2  0
  4  5  1  0
  5  6  2  0
  5  7  1  0
  7  9  1  0
  7  8  1  1
 10  9  1  6
 10 16  1  0
 10 11  1  0
 11 12  1  0
 12 13  2  0
 12 14  1  0
 14 15  1  0
 14 16  2  0
 16 17  1  0
M  END
>  <id>  (52) 
353

>  <scaffolds>  (52) 
['C1=CCCCC1', 'C1=CCC2CCCCC2C1', 'C1CCCCC1', 'O=C1C=CCCC1']

>  <name>  (52) 
4a[alpha]H-3,5[alpha],8[beta]a- trimethyl-4,4a,8a,9-tetrahydronaphtho-([2,3b]-dihydrofuran-2-one)-8-one

>  <formula>  (52) 
C14H16O3

>  <SMILES>  (52) 
[H][C@]13CC=CC(=O)[C@]1(C)C[C@]2([H])OC(=O)C(C)=C2C3

>  <ChEMBL_id>  (52) 


>  <ZINC_id>  (52) 


>  <PubChem_id>  (52) 


>  <DrugBank_id>  (52) 


>  <CAS_no>  (52) 
1187534-33-3

>  <references>  (52) 
[{'journal': {'name': 'Journal of Ethnopharmacology', 'id': 7}, 'title': 'The bioactivity of novel furanoterpenoids isolated from Siphonochilus aethiopicus', 'year': 2009, 'start_page': 92, 'volume': 121, 'issue': None, 'doi': '10.1016/j.jep.2008.10.007', 'isbn': '', 'despositor': {'code': 'DLP', 'first_name': 'David', 'last_name': 'Penkler', 'id': 23}, 'refauthors_set': [{'author': {'first_name': 'Carmen', 'initials': 'CA', 'last_name': 'Lategan', 'id': 488}, 'first_author': True, 'id': 846}, {'author': {'first_name': 'William', 'initials': 'WE', 'last_name': 'Campbell', 'id': 621}, 'first_author': False, 'id': 847}, {'author': {'first_name': 'Tracy', 'initials': 'T', 'last_name': 'Seaman', 'id': 622}, 'first_author': False, 'id': 848}, {'author': {'first_name': 'Peter', 'initials': 'PJ', 'last_name': 'Smith', 'id': 490}, 'first_author': False, 'id': 849}], 'id': 293}]

>  <classifications>  (52) 
[{'classification': 'Furanoterpenoid', 'id': 779}, {'classification': 'Terpenoid', 'id': 839}, {'classification': 'Naphthofurans (Classyfire)', 'id': 974}]

>  <molecular_mass>  (52) 
232.27

>  <warheads>  (52) 
ab_unsat_carbonyl:2

>  <n_warheads>  (52) 
2

>  <max_tier>  (52) 
1

>  <pains_flag>  (52) 


>  <MW>  (52) 
232.3

>  <cLogP>  (52) 
2.17

>  <HBD>  (52) 
0

>  <HBA>  (52) 
3

>  <TPSA>  (52) 
43.4

>  <ArRings>  (52) 
0

$$$$
SANC00354_minRM1.pdb
     RDKit          3D

 17 19  0  0  1  0  0  0  0  0999 V2000
   -1.0880   -0.9530   -0.3490 C   0  0  1  0  0  0  0  0  0  0  0  0
   -2.2590   -1.9190   -0.1750 C   0  0  0  0  0  0  0  0  0  0  0  0
   -3.5580   -1.2710   -0.4930 C   0  0  0  0  0  0  0  0  0  0  0  0
   -3.7230    0.0490   -0.5220 C   0  0  0  0  0  0  0  0  0  0  0  0
   -2.6200    0.9840   -0.2410 C   0  0  0  0  0  0  0  0  0  0  0  0
   -2.7360    2.1770   -0.4500 O   0  0  0  0  0  0  0  0  0  0  0  0
   -1.3610    0.3820    0.3690 C   0  0  1  0  0  0  0  0  0  0  0  0
   -1.6390    0.2200    1.8620 C   0  0  0  0  0  0  0  0  0  0  0  0
   -0.1910    1.3090    0.2290 C   0  0  0  0  0  0  0  0  0  0  0  0
    1.0180    0.7680    0.1080 C   0  0  0  0  0  0  0  0  0  0  0  0
    2.1910    1.4930    0.0160 O   0  0  0  0  0  0  0  0  0  0  0  0
    3.2240    0.5660   -0.0940 C   0  0  0  0  0  0  0  0  0  0  0  0
    4.3480    0.9910   -0.1850 O   0  0  0  0  0  0  0  0  0  0  0  0
    2.6530   -0.8060   -0.0740 C   0  0  0  0  0  0  0  0  0  0  0  0
    3.4970   -2.0000   -0.1670 C   0  0  0  0  0  0  0  0  0  0  0  0
    1.3210   -0.6680    0.0460 C   0  0  0  0  0  0  0  0  0  0  0  0
    0.2080   -1.6260    0.1250 C   0  0  0  0  0  0  0  0  0  0  0  0
  1  2  1  1
  1 17  1  0
  1  7  1  0
  2  3  1  0
  3  4  2  0
  4  5  1  0
  5  6  2  0
  5  7  1  0
  7  9  1  0
  7  8  1  1
  9 10  2  0
 10 11  1  0
 10 16  1  0
 11 12  1  0
 12 13  2  0
 12 14  1  0
 14 15  1  0
 14 16  2  0
 16 17  1  0
M  END
>  <id>  (53) 
354

>  <scaffolds>  (53) 
['C1=CCCCC1', 'O=C1C=CCCC1', 'C=C1C=CCCC1']

>  <name>  (53) 
4a[alpha]H-3,5[alpha],8[beta]a- trimethyl-4,4a,8a-trihydronaphtho-([2,3b]-dihydrofuran-2- one)-8-one

>  <formula>  (53) 
C14H16O3

>  <SMILES>  (53) 
[H][C@]13CC=CC(=O)[C@]1(C)C=c2oc(=O)c(C)c2C3

>  <ChEMBL_id>  (53) 


>  <ZINC_id>  (53) 


>  <PubChem_id>  (53) 


>  <DrugBank_id>  (53) 


>  <CAS_no>  (53) 
1187534-34-4

>  <references>  (53) 
[{'journal': {'name': 'Journal of Ethnopharmacology', 'id': 7}, 'title': 'The bioactivity of novel furanoterpenoids isolated from Siphonochilus aethiopicus', 'year': 2009, 'start_page': 92, 'volume': 121, 'issue': None, 'doi': '10.1016/j.jep.2008.10.007', 'isbn': '', 'despositor': {'code': 'DLP', 'first_name': 'David', 'last_name': 'Penkler', 'id': 23}, 'refauthors_set': [{'author': {'first_name': 'Carmen', 'initials': 'CA', 'last_name': 'Lategan', 'id': 488}, 'first_author': True, 'id': 846}, {'author': {'first_name': 'William', 'initials': 'WE', 'last_name': 'Campbell', 'id': 621}, 'first_author': False, 'id': 847}, {'author': {'first_name': 'Tracy', 'initials': 'T', 'last_name': 'Seaman', 'id': 622}, 'first_author': False, 'id': 848}, {'author': {'first_name': 'Peter', 'initials': 'PJ', 'last_name': 'Smith', 'id': 490}, 'first_author': False, 'id': 849}], 'id': 293}]

>  <classifications>  (53) 
[{'classification': 'Furanoterpenoid', 'id': 779}, {'classification': 'Terpenoid', 'id': 839}, {'classification': 'Naphthofurans (Classyfire)', 'id': 974}]

>  <molecular_mass>  (53) 
232.27

>  <warheads>  (53) 
ab_unsat_carbonyl:2

>  <n_warheads>  (53) 
2

>  <max_tier>  (53) 
1

>  <pains_flag>  (53) 


>  <MW>  (53) 
230.3

>  <cLogP>  (53) 
2.3

>  <HBD>  (53) 
0

>  <HBA>  (53) 
3

>  <TPSA>  (53) 
43.4

>  <ArRings>  (53) 
0

$$$$
SANC00364_minRM1.pdb
     RDKit          3D

 28 30  0  0  1  0  0  0  0  0999 V2000
   -0.0800   -4.2480   -1.4250 C   0  0  0  0  0  0  0  0  0  0  0  0
    5.2230   -0.4470    0.6280 C   0  0  0  0  0  0  0  0  0  0  0  0
    4.0860   -1.2610   -1.4630 C   0  0  0  0  0  0  0  0  0  0  0  0
   -4.4130    0.6560    0.8050 C   0  0  0  0  0  0  0  0  0  0  0  0
   -4.0400   -0.8670   -1.0840 C   0  0  0  0  0  0  0  0  0  0  0  0
   -1.5810    2.0930    1.6880 C   0  0  0  0  0  0  0  0  0  0  0  0
   -0.9850   -3.9310    0.8150 O   0  0  0  0  0  0  0  0  0  0  0  0
    2.4850   -1.5420    1.2330 O   0  0  0  0  0  0  0  0  0  0  0  0
    1.0780    3.2400    0.8580 O   0  0  0  0  0  0  0  0  0  0  0  0
    3.3390    2.6080   -0.7390 O   0  0  0  0  0  0  0  0  0  0  0  0
   -2.1020   -0.5530    2.2030 O   0  0  0  0  0  0  0  0  0  0  0  0
   -2.8820    2.8010   -0.9720 C   0  0  0  0  0  0  0  0  0  0  0  0
   -3.6380    1.5570   -1.4090 C   0  0  0  0  0  0  0  0  0  0  0  0
   -1.4040    2.4860   -0.7810 C   0  0  0  0  0  0  0  0  0  0  0  0
   -0.0700   -2.1950   -0.2650 O   0  0  0  0  0  0  0  0  0  0  0  0
   -0.4310   -3.5030   -0.1790 C   0  0  0  0  0  0  0  0  0  0  0  0
    2.5680    1.6930   -0.1120 C   0  0  0  0  0  0  0  0  0  0  0  0
    2.9860    0.4180   -0.0090 C   0  0  0  0  0  0  0  0  0  0  0  0
    0.6350   -0.2060    0.6450 C   0  0  0  0  0  0  0  0  0  0  0  0
    0.2180    1.0490    0.4560 C   0  0  0  0  0  0  0  0  0  0  0  0
    2.0870   -0.5370    0.6700 C   0  0  0  0  0  0  0  0  0  0  0  0
    1.2440    2.1120    0.4330 C   0  0  0  0  0  0  0  0  0  0  0  0
    4.3000   -0.0710   -0.5300 C   0  0  0  0  0  0  0  0  0  0  0  0
   -1.7910   -0.9610    0.9090 C   0  0  2  0  0  0  0  0  0  0  0  0
   -0.2890   -1.3670    0.8640 C   0  0  1  0  0  0  0  0  0  0  0  0
   -3.5130    0.4080   -0.3990 C   0  0  0  0  0  0  0  0  0  0  0  0
   -1.2280    1.4540    0.3450 C   0  0  1  0  0  0  0  0  0  0  0  0
   -2.0230    0.1990   -0.0690 C   0  0  1  0  0  0  0  0  0  0  0  0
  1 16  1  0
  2 23  1  0
  3 23  1  0
 26  4  1  0
  5 26  1  0
  7 16  2  0
  8 21  2  0
  9 22  2  0
 10 17  1  0
 24 11  1  1
 12 13  1  0
 12 14  1  0
 13 26  1  0
 14 27  1  0
 15 16  1  0
 25 15  1  6
 17 18  2  0
 17 22  1  0
 18 23  1  0
 18 21  1  0
 19 20  2  0
 19 21  1  0
 19 25  1  0
 20 27  1  0
 20 22  1  0
 24 28  1  0
 24 25  1  0
 28 26  1  1
 27  6  1  1
 27 28  1  0
M  END
>  <id>  (54) 
364

>  <scaffolds>  (54) 
['C1=CC2CCCCC2CC1', 'C1=CCCCC1', 'C1CCCCC1']

>  <name>  (54) 
7[alpha]-Acetoxy-6[beta],12-dihydroxy-abieta-8,12-diene-11,14-dione

>  <formula>  (54) 
C22H30O6

>  <SMILES>  (54) 
[H][C@@]23[C@H](O)[C@@H](OC(C)=O)c1c(c(=O)c(O)c(C(C)C)c1=O)[C@@]2(C)CCCC3(C)C

>  <ChEMBL_id>  (54) 


>  <ZINC_id>  (54) 


>  <PubChem_id>  (54) 
 2751798

>  <DrugBank_id>  (54) 


>  <CAS_no>  (54) 
57932-74-8

>  <references>  (54) 
[{'journal': {'name': 'South African Journal of Science', 'id': 6}, 'title': 'Antiplasmodial activities of some abietane diterpenes from the leaves of five Plectranthus species', 'year': 2008, 'start_page': 62, 'volume': 104, 'issue': 1, 'doi': '', 'isbn': '', 'despositor': {'code': 'TMM', 'first_name': 'Thommas', 'last_name': 'Musyoka', 'id': 22}, 'refauthors_set': [{'author': {'first_name': '', 'initials': 'RL', 'last_name': 'Van Zyl', 'id': 626}, 'first_author': True, 'id': 859}, {'author': {'first_name': 'Fatima', 'initials': 'F', 'last_name': 'Khan', 'id': 623}, 'first_author': False, 'id': 860}, {'author': {'first_name': 'Trevor', 'initials': 'TJ', 'last_name': 'Edwards', 'id': 627}, 'first_author': False, 'id': 861}, {'author': {'first_name': 'Siegfried', 'initials': 'SE', 'last_name': 'Drewes', 'id': 613}, 'first_author': False, 'id': 862}], 'id': 295}]

>  <classifications>  (54) 
[{'classification': 'Diterpene', 'id': 771}, {'classification': 'Terpenoid', 'id': 839}, {'classification': 'Phenol lipids (Classyfire)', 'id': 951}]

>  <molecular_mass>  (54) 
390.47

>  <warheads>  (54) 
ab_unsat_carbonyl:4;para_quinone:1

>  <n_warheads>  (54) 
5

>  <max_tier>  (54) 
2

>  <pains_flag>  (54) 
quinone_A(370)

>  <MW>  (54) 
390.5

>  <cLogP>  (54) 
3.04

>  <HBD>  (54) 
2

>  <HBA>  (54) 
6

>  <TPSA>  (54) 
100.9

>  <ArRings>  (54) 
0

$$$$
SANC00365_minRM1.pdb
     RDKit          3D

 27 29  0  0  1  0  0  0  0  0999 V2000
   -5.1760    0.1370   -0.7790 C   0  0  0  0  0  0  0  0  0  0  0  0
   -4.2160   -0.8380    1.3270 C   0  0  0  0  0  0  0  0  0  0  0  0
    4.5130   -0.1170   -0.7460 C   0  0  0  0  0  0  0  0  0  0  0  0
    3.8870   -1.6130    1.0990 C   0  0  0  0  0  0  0  0  0  0  0  0
    1.9360    1.7500   -1.6250 C   0  0  0  0  0  0  0  0  0  0  0  0
   -1.1370   -4.0880    0.9780 O   0  0  0  0  0  0  0  0  0  0  0  0
   -0.5500    3.2300   -0.8050 O   0  0  0  0  0  0  0  0  0  0  0  0
   -2.6010   -1.3320   -1.2860 O   0  0  0  0  0  0  0  0  0  0  0  0
   -2.9300    2.8910    0.6910 O   0  0  0  0  0  0  0  0  0  0  0  0
    2.0790   -0.9310   -2.2170 O   0  0  0  0  0  0  0  0  0  0  0  0
   -0.9700   -3.4220   -0.0230 C   0  0  0  0  0  0  0  0  0  0  0  0
    3.2700    2.1840    1.0710 C   0  0  0  0  0  0  0  0  0  0  0  0
    3.8350    0.8330    1.4810 C   0  0  0  0  0  0  0  0  0  0  0  0
    1.7660    2.0850    0.8520 C   0  0  0  0  0  0  0  0  0  0  0  0
   -0.1100   -2.3700    0.1710 O   0  0  0  0  0  0  0  0  0  0  0  0
   -2.2710    1.8880    0.0760 C   0  0  0  0  0  0  0  0  0  0  0  0
   -2.8620    0.6870   -0.0690 C   0  0  0  0  0  0  0  0  0  0  0  0
   -0.6040   -0.2500   -0.6920 C   0  0  0  0  0  0  0  0  0  0  0  0
   -0.0190    0.9290   -0.4610 C   0  0  0  0  0  0  0  0  0  0  0  0
   -0.8860    2.1250   -0.4250 C   0  0  0  0  0  0  0  0  0  0  0  0
   -2.0860   -0.3760   -0.7320 C   0  0  0  0  0  0  0  0  0  0  0  0
   -4.2460    0.3760    0.4060 C   0  0  0  0  0  0  0  0  0  0  0  0
    1.6970   -1.3300   -0.9390 C   0  0  2  0  0  0  0  0  0  0  0  0
    0.1500   -1.5250   -0.9280 C   0  0  1  0  0  0  0  0  0  0  0  0
    3.5650   -0.2600    0.4390 C   0  0  0  0  0  0  0  0  0  0  0  0
    1.4680    1.1240   -0.3110 C   0  0  1  0  0  0  0  0  0  0  0  0
    2.0680   -0.2420    0.0780 C   0  0  1  0  0  0  0  0  0  0  0  0
  1 22  1  0
  2 22  1  0
 25  3  1  0
  4 25  1  0
  6 11  2  0
  7 20  2  0
  8 21  2  0
  9 16  1  0
 23 10  1  6
 11 15  1  0
 12 14  1  0
 12 13  1  0
 13 25  1  0
 14 26  1  0
 24 15  1  1
 16 20  1  0
 16 17  2  0
 17 21  1  0
 17 22  1  0
 18 24  1  0
 18 21  1  0
 18 19  2  0
 19 20  1  0
 19 26  1  0
 23 24  1  0
 23 27  1  0
 27 25  1  6
 26  5  1  6
 26 27  1  0
M  END
>  <id>  (55) 
365

>  <scaffolds>  (55) 
['C1=CC2CCCCC2CC1', 'C1=CCCCC1', 'C1CCCCC1']

>  <name>  (55) 
7[alpha]-Formyloxy-6[beta],12-dihydroxy-abieta-8,12-diene-11,14-dione

>  <formula>  (55) 
C21H28O6

>  <SMILES>  (55) 
[H][C@@]23[C@H](O)[C@@H](OC=O)c1c(c(=O)c(O)c(C(C)C)c1=O)[C@@]2(C)CCCC3(C)C

>  <ChEMBL_id>  (55) 


>  <ZINC_id>  (55) 


>  <PubChem_id>  (55) 
 462176

>  <DrugBank_id>  (55) 


>  <CAS_no>  (55) 
65714-77-4

>  <references>  (55) 
[{'journal': {'name': 'South African Journal of Science', 'id': 6}, 'title': 'Antiplasmodial activities of some abietane diterpenes from the leaves of five Plectranthus species', 'year': 2008, 'start_page': 62, 'volume': 104, 'issue': 1, 'doi': '', 'isbn': '', 'despositor': {'code': 'TMM', 'first_name': 'Thommas', 'last_name': 'Musyoka', 'id': 22}, 'refauthors_set': [{'author': {'first_name': '', 'initials': 'RL', 'last_name': 'Van Zyl', 'id': 626}, 'first_author': True, 'id': 859}, {'author': {'first_name': 'Fatima', 'initials': 'F', 'last_name': 'Khan', 'id': 623}, 'first_author': False, 'id': 860}, {'author': {'first_name': 'Trevor', 'initials': 'TJ', 'last_name': 'Edwards', 'id': 627}, 'first_author': False, 'id': 861}, {'author': {'first_name': 'Siegfried', 'initials': 'SE', 'last_name': 'Drewes', 'id': 613}, 'first_author': False, 'id': 862}], 'id': 295}]

>  <classifications>  (55) 
[{'classification': 'Diterpene', 'id': 771}, {'classification': 'Terpenoid', 'id': 839}, {'classification': 'Phenol lipids (Classyfire)', 'id': 951}]

>  <molecular_mass>  (55) 
376.44

>  <warheads>  (55) 
ab_unsat_carbonyl:4;para_quinone:1

>  <n_warheads>  (55) 
5

>  <max_tier>  (55) 
2

>  <pains_flag>  (55) 
quinone_A(370)

>  <MW>  (55) 
376.4

>  <cLogP>  (55) 
2.65

>  <HBD>  (55) 
2

>  <HBA>  (55) 
6

>  <TPSA>  (55) 
100.9

>  <ArRings>  (55) 
0

$$$$
SANC00367_minRM1.pdb
     RDKit          3D

 32 35  0  0  1  0  0  0  0  0999 V2000
   -7.2840   -1.4860    0.2180 C   0  0  0  0  0  0  0  0  0  0  0  0
   -6.0900   -2.2180   -0.3890 C   0  0  0  0  0  0  0  0  0  0  0  0
   -6.3110   -2.4590   -1.8790 C   0  0  0  0  0  0  0  0  0  0  0  0
   -4.8490   -1.4100   -0.1710 C   0  0  0  0  0  0  0  0  0  0  0  0
   -4.6920   -0.1930   -0.7070 C   0  0  0  0  0  0  0  0  0  0  0  0
   -3.5020    0.6100   -0.4900 C   0  0  0  0  0  0  0  0  0  0  0  0
   -3.4620    1.8700   -0.9680 C   0  0  0  0  0  0  0  0  0  0  0  0
   -2.2870    2.6860   -0.8300 C   0  0  0  0  0  0  0  0  0  0  0  0
   -1.1750    2.2430   -0.2240 C   0  0  0  0  0  0  0  0  0  0  0  0
    0.0700    3.0970   -0.2120 C   0  0  0  0  0  0  0  0  0  0  0  0
    0.0400    4.1730   -1.3110 C   0  0  0  0  0  0  0  0  0  0  0  0
    0.1790    3.8350    1.1250 C   0  0  0  0  0  0  0  0  0  0  0  0
    1.3240    2.2530   -0.4760 C   0  0  0  0  0  0  0  0  0  0  0  0
    1.3360    0.9880    0.3730 C   0  0  2  0  0  0  0  0  0  0  0  0
    2.4430    0.1870   -0.0120 O   0  0  0  0  0  0  0  0  0  0  0  0
    3.6680    0.5250    0.4640 C   0  0  0  0  0  0  0  0  0  0  0  0
    3.7920    1.4840    1.2120 O   0  0  0  0  0  0  0  0  0  0  0  0
    4.7540   -0.3490    0.0070 C   0  0  0  0  0  0  0  0  0  0  0  0
    4.5660   -1.3330   -0.9640 C   0  0  0  0  0  0  0  0  0  0  0  0
    5.6290   -2.1210   -1.3720 C   0  0  0  0  0  0  0  0  0  0  0  0
    6.8850   -1.9200   -0.7890 C   0  0  0  0  0  0  0  0  0  0  0  0
    7.8750   -2.7300   -1.2200 O   0  0  0  0  0  0  0  0  0  0  0  0
    7.0810   -0.9530    0.1990 C   0  0  0  0  0  0  0  0  0  0  0  0
    6.0080   -0.1690    0.5920 C   0  0  0  0  0  0  0  0  0  0  0  0
    0.0980    0.1440    0.0650 C   0  0  0  0  0  0  0  0  0  0  0  0
   -1.1600    0.9140    0.4920 C   0  0  1  0  0  0  0  0  0  0  0  0
   -1.1590    1.2080    1.9990 C   0  0  0  0  0  0  0  0  0  0  0  0
   -2.3840    0.0590    0.2510 C   0  0  0  0  0  0  0  0  0  0  0  0
   -2.5300   -1.1810    0.7710 C   0  0  0  0  0  0  0  0  0  0  0  0
   -1.4960   -1.8140    1.3790 O   0  0  0  0  0  0  0  0  0  0  0  0
   -3.7840   -1.9670    0.6660 C   0  0  0  0  0  0  0  0  0  0  0  0
   -3.8920   -3.0150    1.2880 O   0  0  0  0  0  0  0  0  0  0  0  0
  1  2  1  0
  2  3  1  0
  2  4  1  0
  4  5  2  0
  4 31  1  0
  5  6  1  0
  6  7  2  0
  6 28  1  0
  7  8  1  0
  8  9  2  0
  9 10  1  0
  9 26  1  0
 10 11  1  0
 10 13  1  0
 10 12  1  0
 13 14  1  0
 14 15  1  6
 14 25  1  0
 15 16  1  0
 16 18  1  0
 16 17  2  0
 18 19  1  0
 18 24  2  0
 19 20  2  0
 20 21  1  0
 21 22  1  0
 21 23  2  0
 23 24  1  0
 25 26  1  0
 26 28  1  0
 26 27  1  1
 28 29  2  0
 29 31  1  0
 29 30  1  0
 31 32  2  0
M  END
>  <id>  (56) 
367

>  <scaffolds>  (56) 
['c1ccccc1', 'C1CCCCC1']

>  <name>  (56) 
Parviflorone D

>  <formula>  (56) 
C27H30O5

>  <SMILES>  (56) 
CC(C)c4cc3=CC=C2C(C)(C)C[C@H](OC(=O)c1ccc(O)cc1)C[C@]2(C)c3c(O)c4=O

>  <ChEMBL_id>  (56) 


>  <ZINC_id>  (56) 


>  <PubChem_id>  (56) 


>  <DrugBank_id>  (56) 


>  <CAS_no>  (56) 
66656-57-3

>  <references>  (56) 
[{'journal': {'name': 'South African Journal of Science', 'id': 6}, 'title': 'Antiplasmodial activities of some abietane diterpenes from the leaves of five Plectranthus species', 'year': 2008, 'start_page': 62, 'volume': 104, 'issue': 1, 'doi': '', 'isbn': '', 'despositor': {'code': 'TMM', 'first_name': 'Thommas', 'last_name': 'Musyoka', 'id': 22}, 'refauthors_set': [{'author': {'first_name': '', 'initials': 'RL', 'last_name': 'Van Zyl', 'id': 626}, 'first_author': True, 'id': 859}, {'author': {'first_name': 'Fatima', 'initials': 'F', 'last_name': 'Khan', 'id': 623}, 'first_author': False, 'id': 860}, {'author': {'first_name': 'Trevor', 'initials': 'TJ', 'last_name': 'Edwards', 'id': 627}, 'first_author': False, 'id': 861}, {'author': {'first_name': 'Siegfried', 'initials': 'SE', 'last_name': 'Drewes', 'id': 613}, 'first_author': False, 'id': 862}], 'id': 295}]

>  <classifications>  (56) 
[{'classification': 'Diterpene', 'id': 771}, {'classification': 'Terpenoid', 'id': 839}, {'classification': 'Phenol lipids (Classyfire)', 'id': 951}]

>  <molecular_mass>  (56) 
434.52

>  <warheads>  (56) 
ab_unsat_carbonyl:2

>  <n_warheads>  (56) 
2

>  <max_tier>  (56) 
1

>  <pains_flag>  (56) 


>  <MW>  (56) 
434.5

>  <cLogP>  (56) 
5.59

>  <HBD>  (56) 
2

>  <HBA>  (56) 
5

>  <TPSA>  (56) 
83.8

>  <ArRings>  (56) 
1

$$$$
SANC00369_minRM1.pdb
     RDKit          3D

 33 36  0  0  1  0  0  0  0  0999 V2000
    7.5490    1.5550    0.3030 C   0  0  0  0  0  0  0  0  0  0  0  0
    6.3600    2.2710   -0.3320 C   0  0  0  0  0  0  0  0  0  0  0  0
    6.6060    2.5050   -1.8190 C   0  0  0  0  0  0  0  0  0  0  0  0
    5.1240    1.4500   -0.1320 C   0  0  0  0  0  0  0  0  0  0  0  0
    4.9950    0.2250   -0.6580 C   0  0  0  0  0  0  0  0  0  0  0  0
    3.8100   -0.5910   -0.4600 C   0  0  0  0  0  0  0  0  0  0  0  0
    3.7930   -1.8530   -0.9330 C   0  0  0  0  0  0  0  0  0  0  0  0
    2.6260   -2.6810   -0.8120 C   0  0  0  0  0  0  0  0  0  0  0  0
    1.4970   -2.2480   -0.2290 C   0  0  0  0  0  0  0  0  0  0  0  0
    0.2650   -3.1210   -0.2230 C   0  0  0  0  0  0  0  0  0  0  0  0
    0.3320   -4.2240   -1.2940 C   0  0  0  0  0  0  0  0  0  0  0  0
    0.1280   -3.8250    1.1300 C   0  0  0  0  0  0  0  0  0  0  0  0
   -0.9900   -2.2970   -0.5390 C   0  0  0  0  0  0  0  0  0  0  0  0
   -1.0410   -1.0300    0.3050 C   0  0  2  0  0  0  0  0  0  0  0  0
   -2.1500   -0.2430   -0.1080 O   0  0  0  0  0  0  0  0  0  0  0  0
   -3.3770   -0.6000    0.3470 C   0  0  0  0  0  0  0  0  0  0  0  0
   -3.5030   -1.5660    1.0840 O   0  0  0  0  0  0  0  0  0  0  0  0
   -4.4670    0.2690   -0.1190 C   0  0  0  0  0  0  0  0  0  0  0  0
   -4.2800    1.2510   -1.0890 C   0  0  0  0  0  0  0  0  0  0  0  0
   -5.3470    2.0360   -1.5060 C   0  0  0  0  0  0  0  0  0  0  0  0
   -6.6120    1.8300   -0.9540 C   0  0  0  0  0  0  0  0  0  0  0  0
   -7.6020    2.6130   -1.4340 O   0  0  0  0  0  0  0  0  0  0  0  0
   -6.7950    0.8350    0.0230 C   0  0  0  0  0  0  0  0  0  0  0  0
   -8.0490    0.7230    0.5420 O   0  0  0  0  0  0  0  0  0  0  0  0
   -5.7270    0.0550    0.4440 C   0  0  0  0  0  0  0  0  0  0  0  0
    0.1900   -0.1650    0.0160 C   0  0  0  0  0  0  0  0  0  0  0  0
    1.4510   -0.9130    0.4740 C   0  0  1  0  0  0  0  0  0  0  0  0
    1.4290   -1.1910    1.9860 C   0  0  0  0  0  0  0  0  0  0  0  0
    2.6680   -0.0450    0.2480 C   0  0  0  0  0  0  0  0  0  0  0  0
    2.7880    1.2020    0.7590 C   0  0  0  0  0  0  0  0  0  0  0  0
    1.7360    1.8370    1.3380 O   0  0  0  0  0  0  0  0  0  0  0  0
    4.0340    2.0020    0.6770 C   0  0  0  0  0  0  0  0  0  0  0  0
    4.1150    3.0560    1.2900 O   0  0  0  0  0  0  0  0  0  0  0  0
  1  2  1  0
  2  3  1  0
  2  4  1  0
  4  5  2  0
  4 32  1  0
  5  6  1  0
  6  7  2  0
  6 29  1  0
  7  8  1  0
  8  9  2  0
  9 10  1  0
  9 27  1  0
 10 11  1  0
 10 13  1  0
 10 12  1  0
 13 14  1  0
 14 15  1  6
 14 26  1  0
 15 16  1  0
 16 18  1  0
 16 17  2  0
 18 19  1  0
 18 25  2  0
 19 20  2  0
 20 21  1  0
 21 22  1  0
 21 23  2  0
 23 25  1  0
 23 24  1  0
 26 27  1  0
 27 29  1  0
 27 28  1  1
 29 30  2  0
 30 32  1  0
 30 31  1  0
 32 33  2  0
M  END
>  <id>  (57) 
369

>  <scaffolds>  (57) 
['c1ccccc1', 'C1CCCCC1']

>  <name>  (57) 
Parviflorone F

>  <formula>  (57) 
C27H30O6

>  <SMILES>  (57) 
CC(C)c4cc3=CC=C2C(C)(C)C[C@H](OC(=O)c1ccc(O)c(O)c1)C[C@]2(C)c3c(O)c4=O

>  <ChEMBL_id>  (57) 


>  <ZINC_id>  (57) 


>  <PubChem_id>  (57) 


>  <DrugBank_id>  (57) 


>  <CAS_no>  (57) 
66656-58-4

>  <references>  (57) 
[{'journal': {'name': 'South African Journal of Science', 'id': 6}, 'title': 'Antiplasmodial activities of some abietane diterpenes from the leaves of five Plectranthus species', 'year': 2008, 'start_page': 62, 'volume': 104, 'issue': 1, 'doi': '', 'isbn': '', 'despositor': {'code': 'TMM', 'first_name': 'Thommas', 'last_name': 'Musyoka', 'id': 22}, 'refauthors_set': [{'author': {'first_name': '', 'initials': 'RL', 'last_name': 'Van Zyl', 'id': 626}, 'first_author': True, 'id': 859}, {'author': {'first_name': 'Fatima', 'initials': 'F', 'last_name': 'Khan', 'id': 623}, 'first_author': False, 'id': 860}, {'author': {'first_name': 'Trevor', 'initials': 'TJ', 'last_name': 'Edwards', 'id': 627}, 'first_author': False, 'id': 861}, {'author': {'first_name': 'Siegfried', 'initials': 'SE', 'last_name': 'Drewes', 'id': 613}, 'first_author': False, 'id': 862}], 'id': 295}]

>  <classifications>  (57) 
[{'classification': 'Diterpene', 'id': 771}, {'classification': 'Terpenoid', 'id': 839}, {'classification': 'Phenol lipids (Classyfire)', 'id': 951}]

>  <molecular_mass>  (57) 
450.52

>  <warheads>  (57) 
ab_unsat_carbonyl:2

>  <n_warheads>  (57) 
2

>  <max_tier>  (57) 
1

>  <pains_flag>  (57) 
catechol_A(92)

>  <MW>  (57) 
450.5

>  <cLogP>  (57) 
5.29

>  <HBD>  (57) 
3

>  <HBA>  (57) 
6

>  <TPSA>  (57) 
104.1

>  <ArRings>  (57) 
1

$$$$
SANC00370_minRM1.pdb
     RDKit          3D

 44 47  0  0  1  0  0  0  0  0999 V2000
   -0.8060    3.6000    0.1580 C   0  0  2  0  0  0  0  0  0  0  0  0
   -0.5490    2.4220   -0.5650 O   0  0  0  0  0  0  0  0  0  0  0  0
    0.3800    1.5470    0.0160 C   0  0  2  0  0  0  0  0  0  0  0  0
    1.8100    1.8680   -0.5000 C   0  0  1  0  0  0  0  0  0  0  0  0
    2.1710    3.0960    0.0480 O   0  0  0  0  0  0  0  0  0  0  0  0
    2.7570    0.7650    0.0620 C   0  0  2  0  0  0  0  0  0  0  0  0
    3.9910    0.9670   -0.5620 O   0  0  0  0  0  0  0  0  0  0  0  0
    5.0240    0.1400   -0.0600 C   0  0  0  0  0  0  0  0  0  0  0  0
    6.3020    0.5930   -0.7800 C   0  0  0  0  0  0  0  0  0  0  0  0
    7.4120   -0.2520   -0.2450 C   0  0  0  0  0  0  0  0  0  0  0  0
    8.1340    0.1700    0.8680 C   0  0  0  0  0  0  0  0  0  0  0  0
    9.1190   -0.6390    1.4190 C   0  0  0  0  0  0  0  0  0  0  0  0
    9.3790   -1.8810    0.8460 C   0  0  0  0  0  0  0  0  0  0  0  0
   10.4100   -2.6150    1.3480 O   0  0  0  0  0  0  0  0  0  0  0  0
    8.6620   -2.3010   -0.2830 C   0  0  0  0  0  0  0  0  0  0  0  0
    8.9390   -3.4610   -0.9370 O   0  0  0  0  0  0  0  0  0  0  0  0
    7.6680   -1.4900   -0.8260 C   0  0  0  0  0  0  0  0  0  0  0  0
    2.3450   -0.5010   -0.3980 O   0  0  0  0  0  0  0  0  0  0  0  0
    1.0710   -0.8570    0.0760 C   0  0  2  0  0  0  0  0  0  0  0  0
    0.8500   -2.2980   -0.4270 C   0  0  0  0  0  0  0  0  0  0  0  0
    1.7850   -3.0740    0.2630 O   0  0  0  0  0  0  0  0  0  0  0  0
    0.0430    0.1340   -0.5330 C   0  0  1  0  0  0  0  0  0  0  0  0
   -1.2310   -0.1980   -0.0350 O   0  0  0  0  0  0  0  0  0  0  0  0
   -2.0470   -0.9680   -0.8110 C   0  0  0  0  0  0  0  0  0  0  0  0
   -1.6720   -1.3590   -1.9030 O   0  0  0  0  0  0  0  0  0  0  0  0
   -3.3340   -1.2530   -0.1660 C   0  0  0  0  0  0  0  0  0  0  0  0
   -4.1130   -2.2020   -0.7020 C   0  0  0  0  0  0  0  0  0  0  0  0
   -5.4290   -2.5730   -0.2020 C   0  0  0  0  0  0  0  0  0  0  0  0
   -5.9590   -2.0350    0.9700 C   0  0  0  0  0  0  0  0  0  0  0  0
   -7.2330   -2.3860    1.3950 C   0  0  0  0  0  0  0  0  0  0  0  0
   -7.9810   -3.2880    0.6450 C   0  0  0  0  0  0  0  0  0  0  0  0
   -9.2230   -3.7070    1.0080 O   0  0  0  0  0  0  0  0  0  0  0  0
   -7.4470   -3.8540   -0.5230 C   0  0  0  0  0  0  0  0  0  0  0  0
   -8.0830   -4.7750   -1.2870 O   0  0  0  0  0  0  0  0  0  0  0  0
   -6.1670   -3.5000   -0.9430 C   0  0  0  0  0  0  0  0  0  0  0  0
   -1.4260    3.2750    1.3590 O   0  0  0  0  0  0  0  0  0  0  0  0
   -2.6960    2.6720    1.2680 C   0  0  1  0  0  0  0  0  0  0  0  0
   -3.1410    2.4730    2.7150 C   0  0  0  0  0  0  0  0  0  0  0  0
   -3.6710    3.6140    0.5220 C   0  0  2  0  0  0  0  0  0  0  0  0
   -4.8630    2.9030    0.3590 O   0  0  0  0  0  0  0  0  0  0  0  0
   -3.1120    3.8870   -0.8950 C   0  0  1  0  0  0  0  0  0  0  0  0
   -4.0000    4.8050   -1.4530 O   0  0  0  0  0  0  0  0  0  0  0  0
   -1.6840    4.4740   -0.7790 C   0  0  1  0  0  0  0  0  0  0  0  0
   -1.8540    5.7420   -0.2260 O   0  0  0  0  0  0  0  0  0  0  0  0
  1 43  1  0
  1  2  1  6
  1 36  1  0
  3  2  1  6
  3 22  1  0
  3  4  1  0
  4  5  1  1
  4  6  1  0
  6  7  1  6
  6 18  1  0
  7  8  1  0
  8  9  1  0
  9 10  1  0
 10 17  2  0
 10 11  1  0
 11 12  2  0
 12 13  1  0
 13 15  2  0
 13 14  1  0
 15 16  1  0
 15 17  1  0
 18 19  1  0
 19 22  1  0
 19 20  1  6
 20 21  1  0
 22 23  1  1
 23 24  1  0
 24 25  2  0
 24 26  1  0
 26 27  2  0
 27 28  1  0
 28 35  2  0
 28 29  1  0
 29 30  2  0
 30 31  1  0
 31 33  2  0
 31 32  1  0
 33 34  1  0
 33 35  1  0
 36 37  1  0
 37 39  1  0
 37 38  1  1
 39 41  1  0
 39 40  1  6
 41 42  1  1
 41 43  1  0
 43 44  1  1
M  END
>  <id>  (58) 
370

>  <scaffolds>  (58) 
['c1ccccc1', 'C1CCOCC1', 'O=C(C=Cc1ccccc1)OC1COC(OCCc2ccccc2)CC1OC1CCCCO1']

>  <name>  (58) 
Acteoside

>  <formula>  (58) 
C29H36O15

>  <SMILES>  (58) 
[H][C@@]4(O[C@@H]2[C@@H](O)[C@H](OCCc1ccc(O)c(O)c1)O[C@H](CO)[C@H]2OC(=O)/C=C/c3ccc(O)c(O)c3)O[C@@H](C)[C@H](O)[C@@H](O)[C@H]4O

>  <ChEMBL_id>  (58) 
CHEMBL444478

>  <ZINC_id>  (58) 


>  <PubChem_id>  (58) 
 5281800

>  <DrugBank_id>  (58) 


>  <CAS_no>  (58) 
61276-17-3

>  <references>  (58) 
[{'journal': {'name': 'Journal of Ethnopharmacology', 'id': 7}, 'title': 'Antimicrobial and acetylcholinesterase inhibitory activities of Buddleja salviifolia (L.) Lam. leaf extracts and isolated compounds', 'year': 2013, 'start_page': 515, 'volume': 148, 'issue': None, 'doi': '10.1016/j.jep.2013.04.047', 'isbn': '', 'despositor': {'code': 'DLP', 'first_name': 'David', 'last_name': 'Penkler', 'id': 23}, 'refauthors_set': [{'author': {'first_name': 'S', 'initials': 'SC', 'last_name': 'Pendota', 'id': 631}, 'first_author': True, 'id': 869}, {'author': {'first_name': '', 'initials': 'MA', 'last_name': 'Aderogba', 'id': 442}, 'first_author': False, 'id': 870}, {'author': {'first_name': 'A', 'initials': 'AR', 'last_name': 'Ndhlala', 'id': 632}, 'first_author': False, 'id': 871}, {'author': {'first_name': 'Johannes', 'initials': 'J', 'last_name': 'Van Staden', 'id': 489}, 'first_author': False, 'id': 872}], 'id': 297}]

>  <classifications>  (58) 
[{'classification': 'Phenol', 'id': 805}, {'classification': 'Cinnamic acids and derivatives (Classyfire)', 'id': 975}]

>  <molecular_mass>  (58) 
624.59

>  <warheads>  (58) 
ab_unsat_carbonyl:1

>  <n_warheads>  (58) 
1

>  <max_tier>  (58) 
1

>  <pains_flag>  (58) 
catechol_A(92)

>  <MW>  (58) 
624.6

>  <cLogP>  (58) 
-1.02

>  <HBD>  (58) 
9

>  <HBA>  (58) 
15

>  <TPSA>  (58) 
245.3

>  <ArRings>  (58) 
2

$$$$
SANC00371_minRM1.pdb
     RDKit          3D

 29 31  0  0  1  0  0  0  0  0999 V2000
    7.0840   -1.7350    1.2660 C   0  0  0  0  0  0  0  0  0  0  0  0
    7.1610   -0.4070    0.6150 C   0  0  0  0  0  0  0  0  0  0  0  0
    8.5090    0.0520    0.1570 C   0  0  0  0  0  0  0  0  0  0  0  0
    6.0860    0.3620    0.3980 C   0  0  0  0  0  0  0  0  0  0  0  0
    4.7460   -0.0340    0.8250 C   0  0  0  0  0  0  0  0  0  0  0  0
    4.4320   -0.8350    1.6930 O   0  0  0  0  0  0  0  0  0  0  0  0
    3.7790    0.6290    0.1330 O   0  0  0  0  0  0  0  0  0  0  0  0
    2.4330    0.3400    0.4610 C   0  0  0  0  0  0  0  0  0  0  0  0
    1.5580    1.1640   -0.5080 C   0  0  1  0  0  0  0  0  0  0  0  0
    1.9680    2.6420   -0.3970 C   0  0  0  0  0  0  0  0  0  0  0  0
    1.7910    0.7630   -1.9650 C   0  0  0  0  0  0  0  0  0  0  0  0
    1.1730   -0.5780   -2.3000 C   0  0  0  0  0  0  0  0  0  0  0  0
   -0.3210   -0.5420   -2.0260 C   0  0  0  0  0  0  0  0  0  0  0  0
   -0.6350   -0.2720   -0.5510 C   0  0  1  0  0  0  0  0  0  0  0  0
   -0.2010   -1.4480    0.3340 C   0  0  0  0  0  0  0  0  0  0  0  0
    0.1180    0.9560   -0.0950 C   0  0  0  0  0  0  0  0  0  0  0  0
   -0.4600    1.8490    0.7210 C   0  0  0  0  0  0  0  0  0  0  0  0
   -1.8530    1.7810    1.0640 C   0  0  0  0  0  0  0  0  0  0  0  0
   -2.6600    0.8480    0.5310 C   0  0  0  0  0  0  0  0  0  0  0  0
   -4.0710    0.8500    0.8740 C   0  0  0  0  0  0  0  0  0  0  0  0
   -4.9460    0.0100    0.3200 C   0  0  0  0  0  0  0  0  0  0  0  0
   -6.3960   -0.0070    0.6930 C   0  0  0  0  0  0  0  0  0  0  0  0
   -6.5460   -0.1530    2.2030 C   0  0  0  0  0  0  0  0  0  0  0  0
   -7.0630    1.2760    0.2080 C   0  0  0  0  0  0  0  0  0  0  0  0
   -4.4840   -0.9090   -0.7220 C   0  0  0  0  0  0  0  0  0  0  0  0
   -5.2370   -1.5250   -1.4610 O   0  0  0  0  0  0  0  0  0  0  0  0
   -3.0160   -1.0520   -0.8800 C   0  0  0  0  0  0  0  0  0  0  0  0
   -2.6090   -2.1710   -1.5310 O   0  0  0  0  0  0  0  0  0  0  0  0
   -2.1340   -0.1720   -0.3600 C   0  0  0  0  0  0  0  0  0  0  0  0
  1  2  1  0
  2  3  1  0
  2  4  2  3
  4  5  1  0
  5  7  1  0
  5  6  2  0
  7  8  1  0
  9  8  1  0
  9 11  1  0
  9 10  1  6
  9 16  1  0
 11 12  1  0
 12 13  1  0
 13 14  1  0
 14 29  1  0
 14 16  1  0
 14 15  1  1
 16 17  2  0
 17 18  1  0
 18 19  2  0
 19 29  1  0
 19 20  1  0
 20 21  2  0
 21 25  1  0
 21 22  1  0
 22 24  1  0
 22 23  1  0
 25 26  2  0
 25 27  1  0
 27 28  1  0
 27 29  2  0
M  END
>  <id>  (59) 
371

>  <scaffolds>  (59) 
['C1CCCCC1']

>  <name>  (59) 
11-Hydroxy-19-(3-methylbuten-3-oyloxy)-abieta-5,7,9(11),13-tetraene-12-one

>  <formula>  (59) 
C25H32O4

>  <SMILES>  (59) 
C/C(C)=C\C(=O)OC[C@@]1(C)CCC[C@@]3(C)C1=CC=c2cc(C(C)C)c(=O)c(O)c23

>  <ChEMBL_id>  (59) 


>  <ZINC_id>  (59) 


>  <PubChem_id>  (59) 


>  <DrugBank_id>  (59) 


>  <CAS_no>  (59) 
66656-54-0

>  <references>  (59) 
[{'journal': {'name': 'South African Journal of Science', 'id': 6}, 'title': 'Antiplasmodial activities of some abietane diterpenes from the leaves of five Plectranthus species', 'year': 2008, 'start_page': 62, 'volume': 104, 'issue': 1, 'doi': '', 'isbn': '', 'despositor': {'code': 'TMM', 'first_name': 'Thommas', 'last_name': 'Musyoka', 'id': 22}, 'refauthors_set': [{'author': {'first_name': '', 'initials': 'RL', 'last_name': 'Van Zyl', 'id': 626}, 'first_author': True, 'id': 859}, {'author': {'first_name': 'Fatima', 'initials': 'F', 'last_name': 'Khan', 'id': 623}, 'first_author': False, 'id': 860}, {'author': {'first_name': 'Trevor', 'initials': 'TJ', 'last_name': 'Edwards', 'id': 627}, 'first_author': False, 'id': 861}, {'author': {'first_name': 'Siegfried', 'initials': 'SE', 'last_name': 'Drewes', 'id': 613}, 'first_author': False, 'id': 862}], 'id': 295}]

>  <classifications>  (59) 
[{'classification': 'Diterpene', 'id': 771}, {'classification': 'Terpenoid', 'id': 839}, {'classification': 'Phenol lipids (Classyfire)', 'id': 951}]

>  <molecular_mass>  (59) 
396.52

>  <warheads>  (59) 
ab_unsat_carbonyl:3

>  <n_warheads>  (59) 
3

>  <max_tier>  (59) 
1

>  <pains_flag>  (59) 


>  <MW>  (59) 
396.5

>  <cLogP>  (59) 
5.54

>  <HBD>  (59) 
1

>  <HBA>  (59) 
4

>  <TPSA>  (59) 
63.6

>  <ArRings>  (59) 
0

$$$$
SANC00372_minRM1.pdb
     RDKit          3D

 32 35  0  0  1  0  0  0  0  0999 V2000
   -7.3560   -0.4540   -2.1670 C   0  0  0  0  0  0  0  0  0  0  0  0
   -7.1530   -0.1620   -0.6840 C   0  0  0  0  0  0  0  0  0  0  0  0
   -7.7870   -1.2530    0.1730 C   0  0  0  0  0  0  0  0  0  0  0  0
   -5.6880   -0.0560   -0.3920 C   0  0  0  0  0  0  0  0  0  0  0  0
   -4.8490   -1.0840   -0.5760 C   0  0  0  0  0  0  0  0  0  0  0  0
   -3.4190   -0.9790   -0.3320 C   0  0  0  0  0  0  0  0  0  0  0  0
   -2.6140   -2.0080   -0.6600 C   0  0  0  0  0  0  0  0  0  0  0  0
   -1.2020   -1.9750   -0.3850 C   0  0  0  0  0  0  0  0  0  0  0  0
   -0.6130   -0.9310    0.2220 C   0  0  0  0  0  0  0  0  0  0  0  0
    0.8490   -1.0000    0.6110 C   0  0  1  0  0  0  0  0  0  0  0  0
    1.3890   -2.4390    0.5930 C   0  0  0  0  0  0  0  0  0  0  0  0
    1.6530   -0.1690   -0.4090 C   0  0  0  0  0  0  0  0  0  0  0  0
    3.0290   -0.3680   -0.1390 O   0  0  0  0  0  0  0  0  0  0  0  0
    3.9010    0.3410   -0.9050 C   0  0  0  0  0  0  0  0  0  0  0  0
    3.4690    1.0500   -1.8050 O   0  0  0  0  0  0  0  0  0  0  0  0
    5.3120    0.1510   -0.5610 C   0  0  0  0  0  0  0  0  0  0  0  0
    5.7260   -0.6860    0.4760 C   0  0  0  0  0  0  0  0  0  0  0  0
    7.0770   -0.8520    0.7410 C   0  0  0  0  0  0  0  0  0  0  0  0
    8.0090   -0.1710   -0.0530 C   0  0  0  0  0  0  0  0  0  0  0  0
    9.3060   -0.4040    0.2530 O   0  0  0  0  0  0  0  0  0  0  0  0
    7.6070    0.6770   -1.0860 C   0  0  0  0  0  0  0  0  0  0  0  0
    6.2530    0.8280   -1.3390 C   0  0  0  0  0  0  0  0  0  0  0  0
    1.0350   -0.4810    2.0410 C   0  0  0  0  0  0  0  0  0  0  0  0
    0.3550    0.8550    2.2680 C   0  0  0  0  0  0  0  0  0  0  0  0
   -1.1270    0.7600    1.9440 C   0  0  0  0  0  0  0  0  0  0  0  0
   -1.3830    0.3410    0.4910 C   0  0  1  0  0  0  0  0  0  0  0  0
   -0.9190    1.4020   -0.5230 C   0  0  0  0  0  0  0  0  0  0  0  0
   -2.8740    0.2300    0.2560 C   0  0  0  0  0  0  0  0  0  0  0  0
   -3.7320    1.2500    0.4890 C   0  0  0  0  0  0  0  0  0  0  0  0
   -3.3480    2.3770    1.1480 O   0  0  0  0  0  0  0  0  0  0  0  0
   -5.1620    1.2230    0.0950 C   0  0  0  0  0  0  0  0  0  0  0  0
   -5.8270    2.2500    0.1610 O   0  0  0  0  0  0  0  0  0  0  0  0
  1  2  1  0
  2  4  1  0
  2  3  1  0
  4  5  2  0
  4 31  1  0
  5  6  1  0
  6  7  2  0
  6 28  1  0
  7  8  1  0
  8  9  2  0
  9 26  1  0
  9 10  1  0
 10 12  1  0
 10 11  1  1
 10 23  1  0
 12 13  1  0
 13 14  1  0
 14 15  2  0
 14 16  1  0
 16 22  2  0
 16 17  1  0
 17 18  2  0
 18 19  1  0
 19 21  2  0
 19 20  1  0
 21 22  1  0
 23 24  1  0
 24 25  1  0
 25 26  1  0
 26 27  1  6
 26 28  1  0
 28 29  2  0
 29 31  1  0
 29 30  1  0
 31 32  2  0
M  END
>  <id>  (60) 
372

>  <scaffolds>  (60) 
['c1ccccc1', 'C1CCCCC1']

>  <name>  (60) 
11-Hydroxy-19-(4-hydroxybenzoyloxy)-abieta-5,7,9(11),13-tetraene-12-one

>  <formula>  (60) 
C27H30O5

>  <SMILES>  (60) 
CC(C)c4cc3=CC=C2[C@@](C)(COC(=O)c1ccc(O)cc1)CCC[C@]2(C)c3c(O)c4=O

>  <ChEMBL_id>  (60) 


>  <ZINC_id>  (60) 


>  <PubChem_id>  (60) 


>  <DrugBank_id>  (60) 


>  <CAS_no>  (60) 
66656-56-2

>  <references>  (60) 
[{'journal': {'name': 'South African Journal of Science', 'id': 6}, 'title': 'Antiplasmodial activities of some abietane diterpenes from the leaves of five Plectranthus species', 'year': 2008, 'start_page': 62, 'volume': 104, 'issue': 1, 'doi': '', 'isbn': '', 'despositor': {'code': 'TMM', 'first_name': 'Thommas', 'last_name': 'Musyoka', 'id': 22}, 'refauthors_set': [{'author': {'first_name': '', 'initials': 'RL', 'last_name': 'Van Zyl', 'id': 626}, 'first_author': True, 'id': 859}, {'author': {'first_name': 'Fatima', 'initials': 'F', 'last_name': 'Khan', 'id': 623}, 'first_author': False, 'id': 860}, {'author': {'first_name': 'Trevor', 'initials': 'TJ', 'last_name': 'Edwards', 'id': 627}, 'first_author': False, 'id': 861}, {'author': {'first_name': 'Siegfried', 'initials': 'SE', 'last_name': 'Drewes', 'id': 613}, 'first_author': False, 'id': 862}], 'id': 295}]

>  <classifications>  (60) 
[{'classification': 'Diterpene', 'id': 771}, {'classification': 'Terpenoid', 'id': 839}, {'classification': 'Phenol lipids (Classyfire)', 'id': 951}]

>  <molecular_mass>  (60) 
434.52

>  <warheads>  (60) 
ab_unsat_carbonyl:2

>  <n_warheads>  (60) 
2

>  <max_tier>  (60) 
1

>  <pains_flag>  (60) 


>  <MW>  (60) 
434.5

>  <cLogP>  (60) 
5.59

>  <HBD>  (60) 
2

>  <HBA>  (60) 
5

>  <TPSA>  (60) 
83.8

>  <ArRings>  (60) 
1

$$$$
SANC00373_minRM1.pdb
     RDKit          3D

 33 36  0  0  1  0  0  0  0  0999 V2000
    7.6100   -0.1120   -2.2980 C   0  0  0  0  0  0  0  0  0  0  0  0
    7.4360   -0.0950   -0.7820 C   0  0  0  0  0  0  0  0  0  0  0  0
    8.1110    1.1310   -0.1760 C   0  0  0  0  0  0  0  0  0  0  0  0
    5.9760   -0.1020   -0.4470 C   0  0  0  0  0  0  0  0  0  0  0  0
    5.1540    0.8870   -0.8230 C   0  0  0  0  0  0  0  0  0  0  0  0
    3.7310    0.8750   -0.5260 C   0  0  0  0  0  0  0  0  0  0  0  0
    2.9400    1.8380   -1.0430 C   0  0  0  0  0  0  0  0  0  0  0  0
    1.5360    1.8970   -0.7390 C   0  0  0  0  0  0  0  0  0  0  0  0
    0.9340    1.0050    0.0620 C   0  0  0  0  0  0  0  0  0  0  0  0
   -0.5170    1.1890    0.4570 C   0  0  1  0  0  0  0  0  0  0  0  0
   -1.0280    2.6060    0.1560 C   0  0  0  0  0  0  0  0  0  0  0  0
   -1.3610    0.1830   -0.3540 C   0  0  0  0  0  0  0  0  0  0  0  0
   -2.7290    0.4790   -0.1120 O   0  0  0  0  0  0  0  0  0  0  0  0
   -3.6280   -0.3420   -0.7190 C   0  0  0  0  0  0  0  0  0  0  0  0
   -3.2340   -1.2300   -1.4640 O   0  0  0  0  0  0  0  0  0  0  0  0
   -5.0300   -0.0420   -0.3980 C   0  0  0  0  0  0  0  0  0  0  0  0
   -5.4000    0.9750    0.4770 C   0  0  0  0  0  0  0  0  0  0  0  0
   -6.7410    1.2250    0.7370 C   0  0  0  0  0  0  0  0  0  0  0  0
   -7.7190    0.4540    0.1050 C   0  0  0  0  0  0  0  0  0  0  0  0
   -8.9970    0.7560    0.4130 O   0  0  0  0  0  0  0  0  0  0  0  0
   -7.3390   -0.5760   -0.7730 C   0  0  0  0  0  0  0  0  0  0  0  0
   -8.3500   -1.3270   -1.2890 O   0  0  0  0  0  0  0  0  0  0  0  0
   -5.9980   -0.8340   -1.0220 C   0  0  0  0  0  0  0  0  0  0  0  0
   -0.6790    0.9790    1.9660 C   0  0  0  0  0  0  0  0  0  0  0  0
   -0.0210   -0.2990    2.4490 C   0  0  0  0  0  0  0  0  0  0  0  0
    1.4540   -0.3140    2.0820 C   0  0  0  0  0  0  0  0  0  0  0  0
    1.6820   -0.2070    0.5680 C   0  0  1  0  0  0  0  0  0  0  0  0
    1.1710   -1.4380   -0.1970 C   0  0  0  0  0  0  0  0  0  0  0  0
    3.1720   -0.1810    0.2950 C   0  0  0  0  0  0  0  0  0  0  0  0
    4.0100   -1.1600    0.7010 C   0  0  0  0  0  0  0  0  0  0  0  0
    3.6190   -2.1210    1.5770 O   0  0  0  0  0  0  0  0  0  0  0  0
    5.4330   -1.2470    0.2910 C   0  0  0  0  0  0  0  0  0  0  0  0
    6.0760   -2.2530    0.5510 O   0  0  0  0  0  0  0  0  0  0  0  0
  1  2  1  0
  2  4  1  0
  2  3  1  0
  4  5  2  0
  4 32  1  0
  5  6  1  0
  6  7  2  0
  6 29  1  0
  7  8  1  0
  8  9  2  0
  9 10  1  0
  9 27  1  0
 10 12  1  0
 10 11  1  1
 10 24  1  0
 12 13  1  0
 13 14  1  0
 14 15  2  0
 14 16  1  0
 16 23  2  0
 16 17  1  0
 17 18  2  0
 18 19  1  0
 19 21  2  0
 19 20  1  0
 21 22  1  0
 21 23  1  0
 24 25  1  0
 25 26  1  0
 26 27  1  0
 27 28  1  6
 27 29  1  0
 29 30  2  0
 30 32  1  0
 30 31  1  0
 32 33  2  0
M  END
>  <id>  (61) 
373

>  <scaffolds>  (61) 
['c1ccccc1', 'C1CCCCC1']

>  <name>  (61) 
11-Hydroxy-19-(3,4-dihydroxybenzoyloxy)-abieta-5,7,9(11),13-tetraene-12-one

>  <formula>  (61) 
C27H30O6

>  <SMILES>  (61) 
CC(C)c4cc3=CC=C2[C@@](C)(COC(=O)c1ccc(O)c(O)c1)CCC[C@]2(C)c3c(O)c4=O

>  <ChEMBL_id>  (61) 


>  <ZINC_id>  (61) 


>  <PubChem_id>  (61) 


>  <DrugBank_id>  (61) 


>  <CAS_no>  (61) 
66700-66-1

>  <references>  (61) 
[{'journal': {'name': 'South African Journal of Science', 'id': 6}, 'title': 'Antiplasmodial activities of some abietane diterpenes from the leaves of five Plectranthus species', 'year': 2008, 'start_page': 62, 'volume': 104, 'issue': 1, 'doi': '', 'isbn': '', 'despositor': {'code': 'TMM', 'first_name': 'Thommas', 'last_name': 'Musyoka', 'id': 22}, 'refauthors_set': [{'author': {'first_name': '', 'initials': 'RL', 'last_name': 'Van Zyl', 'id': 626}, 'first_author': True, 'id': 859}, {'author': {'first_name': 'Fatima', 'initials': 'F', 'last_name': 'Khan', 'id': 623}, 'first_author': False, 'id': 860}, {'author': {'first_name': 'Trevor', 'initials': 'TJ', 'last_name': 'Edwards', 'id': 627}, 'first_author': False, 'id': 861}, {'author': {'first_name': 'Siegfried', 'initials': 'SE', 'last_name': 'Drewes', 'id': 613}, 'first_author': False, 'id': 862}], 'id': 295}]

>  <classifications>  (61) 
[{'classification': 'Diterpene', 'id': 771}, {'classification': 'Terpenoid', 'id': 839}, {'classification': 'Phenol lipids (Classyfire)', 'id': 951}]

>  <molecular_mass>  (61) 
450.52

>  <warheads>  (61) 
ab_unsat_carbonyl:2

>  <n_warheads>  (61) 
2

>  <max_tier>  (61) 
1

>  <pains_flag>  (61) 
catechol_A(92)

>  <MW>  (61) 
450.5

>  <cLogP>  (61) 
5.29

>  <HBD>  (61) 
3

>  <HBA>  (61) 
6

>  <TPSA>  (61) 
104.1

>  <ArRings>  (61) 
1

$$$$
SANC00377_minRM1.pdb
     RDKit          3D

 22 25  0  0  1  0  0  0  0  0999 V2000
    1.2380    1.7740    0.3370 C   0  0  2  0  0  0  0  0  0  0  0  0
   -0.0850    2.1840   -0.3510 C   0  0  0  0  0  0  0  0  0  0  0  0
   -1.0380    0.9660   -0.1160 C   0  0  0  0  0  0  0  0  0  0  0  0
   -1.7800    1.1700    1.1650 C   0  0  0  0  0  0  0  0  0  0  0  0
   -3.1070    1.2350    1.2340 C   0  0  0  0  0  0  0  0  0  0  0  0
   -3.9480    1.0860    0.0340 C   0  0  0  0  0  0  0  0  0  0  0  0
   -5.1670    1.1620    0.0930 O   0  0  0  0  0  0  0  0  0  0  0  0
   -3.2500    0.8280   -1.2360 C   0  0  0  0  0  0  0  0  0  0  0  0
   -1.9220    0.7580   -1.2990 C   0  0  0  0  0  0  0  0  0  0  0  0
   -0.0890   -0.1860    0.0380 C   0  0  0  0  0  0  0  0  0  0  0  0
   -0.3080   -1.5480   -0.0420 C   0  0  0  0  0  0  0  0  0  0  0  0
   -1.5880   -1.9530   -0.1950 O   0  0  0  0  0  0  0  0  0  0  0  0
    0.8160   -2.4110    0.0490 C   0  0  0  0  0  0  0  0  0  0  0  0
    0.4760   -3.7360    0.0460 O   0  0  0  0  0  0  0  0  0  0  0  0
    1.5150   -4.6630   -0.1470 C   0  0  0  0  0  0  0  0  0  0  0  0
    2.1090   -1.9150    0.1350 C   0  0  0  0  0  0  0  0  0  0  0  0
    2.3120   -0.5310    0.1910 C   0  0  0  0  0  0  0  0  0  0  0  0
    3.6600    0.0880    0.1050 C   0  0  0  0  0  0  0  0  0  0  0  0
    3.6480    1.6100    0.3360 C   0  0  0  0  0  0  0  0  0  0  0  0
    2.4760    2.2560   -0.3390 N   0  0  0  0  0  0  0  0  0  0  0  0
    2.5750    3.7330   -0.2500 C   0  0  0  0  0  0  0  0  0  0  0  0
    1.2090    0.2860    0.2220 C   0  0  0  0  0  0  0  0  0  0  0  0
  1  2  1  6
  1 20  1  0
  1 22  1  0
  2  3  1  0
  3  9  1  0
  3 10  1  0
  3  4  1  0
  4  5  2  0
  5  6  1  0
  6  8  1  0
  6  7  2  0
  8  9  2  0
 10 11  1  0
 10 22  2  0
 11 12  1  0
 11 13  2  0
 13 14  1  0
 13 16  1  0
 14 15  1  0
 16 17  2  0
 17 18  1  0
 17 22  1  0
 18 19  1  0
 19 20  1  0
 20 21  1  0
M  END
>  <id>  (62) 
377

>  <scaffolds>  (62) 
['c1ccccc1', 'O=C1C=CC2(C=C1)CC1NCCc3cccc2c31']

>  <name>  (62) 
Glaziovine

>  <formula>  (62) 
C18H19NO3

>  <SMILES>  (62) 
[H][C@@]24CC1(C=CC(=O)C=C1)c3c(O)c(OC)cc(CCN2C)c34

>  <ChEMBL_id>  (62) 


>  <ZINC_id>  (62) 


>  <PubChem_id>  (62) 
73426

>  <DrugBank_id>  (62) 


>  <CAS_no>  (62) 
6808-72-6

>  <references>  (62) 
[{'journal': {'name': 'Molecules', 'id': 25}, 'title': 'Alkaloidal Variation in Cissampelos Capensis (Menispermaceae)', 'year': 2011, 'start_page': 3001, 'volume': 16, 'issue': None, 'doi': '10.3390/molecules16043001', 'isbn': '', 'despositor': {'code': 'DLP', 'first_name': 'David', 'last_name': 'Penkler', 'id': 23}, 'refauthors_set': [{'author': {'first_name': 'Helene', 'initials': 'H', 'last_name': 'de Wet', 'id': 633}, 'first_author': True, 'id': 873}, {'author': {'first_name': 'Fanie', 'initials': 'FR', 'last_name': 'Van Heerden', 'id': 634}, 'first_author': False, 'id': 874}, {'author': {'first_name': 'Ben-Erik', 'initials': 'B', 'last_name': 'van Wyk', 'id': 635}, 'first_author': False, 'id': 875}], 'id': 298}]

>  <classifications>  (62) 
[{'classification': 'Alkaloid', 'id': 738}, {'classification': 'Aporphine', 'id': 743}, {'classification': 'Proaporphines (Classyfire)', 'id': 977}]

>  <molecular_mass>  (62) 
297.35

>  <warheads>  (62) 
ab_unsat_carbonyl:2

>  <n_warheads>  (62) 
2

>  <max_tier>  (62) 
1

>  <pains_flag>  (62) 


>  <MW>  (62) 
297.4

>  <cLogP>  (62) 
2.27

>  <HBD>  (62) 
1

>  <HBA>  (62) 
4

>  <TPSA>  (62) 
49.8

>  <ArRings>  (62) 
1

$$$$
SANC00378_minRM1.pdb
     RDKit          3D

 23 26  0  0  1  0  0  0  0  0999 V2000
   -1.5810   -1.6590   -0.3670 C   0  0  1  0  0  0  0  0  0  0  0  0
   -0.3420   -2.2430    0.3510 C   0  0  0  0  0  0  0  0  0  0  0  0
    0.7770   -1.1740    0.1210 C   0  0  0  0  0  0  0  0  0  0  0  0
    1.6680   -1.0900    1.3140 C   0  0  0  0  0  0  0  0  0  0  0  0
    2.9510   -1.4450    1.2850 C   0  0  0  0  0  0  0  0  0  0  0  0
    3.5900   -1.9190    0.0480 C   0  0  0  0  0  0  0  0  0  0  0  0
    4.7330   -2.3490    0.0340 O   0  0  0  0  0  0  0  0  0  0  0  0
    2.7820   -1.8400   -1.1830 C   0  0  0  0  0  0  0  0  0  0  0  0
    1.4970   -1.4930   -1.1480 C   0  0  0  0  0  0  0  0  0  0  0  0
    0.0020    0.1000   -0.0520 C   0  0  0  0  0  0  0  0  0  0  0  0
    0.3990    1.4140    0.0470 C   0  0  0  0  0  0  0  0  0  0  0  0
    1.6930    1.7350    0.3440 O   0  0  0  0  0  0  0  0  0  0  0  0
    2.4320    2.0970   -0.8020 C   0  0  0  0  0  0  0  0  0  0  0  0
   -0.5860    2.4290   -0.0490 C   0  0  0  0  0  0  0  0  0  0  0  0
   -0.0660    3.6870   -0.0290 O   0  0  0  0  0  0  0  0  0  0  0  0
   -0.9590    4.7420    0.2330 C   0  0  0  0  0  0  0  0  0  0  0  0
   -1.9370    2.1190   -0.1590 C   0  0  0  0  0  0  0  0  0  0  0  0
   -2.3240    0.7750   -0.2310 C   0  0  0  0  0  0  0  0  0  0  0  0
   -3.7480    0.3480   -0.1670 C   0  0  0  0  0  0  0  0  0  0  0  0
   -3.9430   -1.1590   -0.4110 C   0  0  0  0  0  0  0  0  0  0  0  0
   -2.8870   -1.9610    0.2860 N   0  0  0  0  0  0  0  0  0  0  0  0
   -3.1910   -3.4100    0.1980 C   0  0  0  0  0  0  0  0  0  0  0  0
   -1.3470   -0.1890   -0.2560 C   0  0  0  0  0  0  0  0  0  0  0  0
  1 23  1  0
  1 21  1  0
  1  2  1  1
  2  3  1  0
  3  9  1  0
  3 10  1  0
  3  4  1  0
  4  5  2  0
  5  6  1  0
  6  8  1  0
  6  7  2  0
  8  9  2  0
 10 23  2  0
 10 11  1  0
 11 14  2  0
 11 12  1  0
 12 13  1  0
 14 17  1  0
 14 15  1  0
 15 16  1  0
 17 18  2  0
 18 23  1  0
 18 19  1  0
 19 20  1  0
 20 21  1  0
 21 22  1  0
M  END
>  <id>  (63) 
378

>  <scaffolds>  (63) 
['c1ccccc1', 'O=C1C=CC2(C=C1)CC1NCCc3cccc2c31']

>  <name>  (63) 
Pronuciferine

>  <formula>  (63) 
C19H21NO3

>  <SMILES>  (63) 
[H][C@]24CC1(C=CC(=O)C=C1)c3c(OC)c(OC)cc(CCN2C)c34

>  <ChEMBL_id>  (63) 


>  <ZINC_id>  (63) 


>  <PubChem_id>  (63) 
628376

>  <DrugBank_id>  (63) 


>  <CAS_no>  (63) 
2128-60-1

>  <references>  (63) 
[{'journal': {'name': 'Molecules', 'id': 25}, 'title': 'Alkaloidal Variation in Cissampelos Capensis (Menispermaceae)', 'year': 2011, 'start_page': 3001, 'volume': 16, 'issue': None, 'doi': '10.3390/molecules16043001', 'isbn': '', 'despositor': {'code': 'DLP', 'first_name': 'David', 'last_name': 'Penkler', 'id': 23}, 'refauthors_set': [{'author': {'first_name': 'Helene', 'initials': 'H', 'last_name': 'de Wet', 'id': 633}, 'first_author': True, 'id': 873}, {'author': {'first_name': 'Fanie', 'initials': 'FR', 'last_name': 'Van Heerden', 'id': 634}, 'first_author': False, 'id': 874}, {'author': {'first_name': 'Ben-Erik', 'initials': 'B', 'last_name': 'van Wyk', 'id': 635}, 'first_author': False, 'id': 875}], 'id': 298}]

>  <classifications>  (63) 
[{'classification': 'Alkaloid', 'id': 738}, {'classification': 'Aporphine', 'id': 743}, {'classification': 'Proaporphines (Classyfire)', 'id': 977}]

>  <molecular_mass>  (63) 
311.37

>  <warheads>  (63) 
ab_unsat_carbonyl:2

>  <n_warheads>  (63) 
2

>  <max_tier>  (63) 
1

>  <pains_flag>  (63) 


>  <MW>  (63) 
311.4

>  <cLogP>  (63) 
2.57

>  <HBD>  (63) 
0

>  <HBA>  (63) 
4

>  <TPSA>  (63) 
38.8

>  <ArRings>  (63) 
1

$$$$
SANC00379_minRM1.pdb
     RDKit          3D

 24 27  0  0  1  0  0  0  0  0999 V2000
    2.3470   -3.7610    0.8360 C   0  0  0  0  0  0  0  0  0  0  0  0
    2.8480   -2.8080   -0.0680 O   0  0  0  0  0  0  0  0  0  0  0  0
    2.2170   -1.6030   -0.1140 C   0  0  0  0  0  0  0  0  0  0  0  0
    1.2140   -1.1850    0.6650 C   0  0  0  0  0  0  0  0  0  0  0  0
    0.6070    0.1770    0.5280 C   0  0  2  0  0  0  0  0  0  0  0  0
    0.5400    0.8070    1.9330 C   0  0  0  0  0  0  0  0  0  0  0  0
   -0.0140    2.2290    1.8630 C   0  0  0  0  0  0  0  0  0  0  0  0
    0.8450    3.0450    0.9670 N   0  0  0  0  0  0  0  0  0  0  0  0
    0.4000    4.4590    0.9600 C   0  0  0  0  0  0  0  0  0  0  0  0
    0.9370    2.4790   -0.4010 C   0  0  2  0  0  0  0  0  0  0  0  0
   -0.3710    2.3840   -1.2060 C   0  0  0  0  0  0  0  0  0  0  0  0
   -1.2220    1.2030   -0.8700 C   0  0  0  0  0  0  0  0  0  0  0  0
   -2.4910    1.1810   -1.4400 C   0  0  0  0  0  0  0  0  0  0  0  0
   -3.3830    0.1470   -1.1850 C   0  0  0  0  0  0  0  0  0  0  0  0
   -2.9950   -0.8570   -0.3140 C   0  0  0  0  0  0  0  0  0  0  0  0
   -3.7490   -1.9310    0.0620 O   0  0  0  0  0  0  0  0  0  0  0  0
   -5.0560   -2.0060   -0.4560 C   0  0  0  0  0  0  0  0  0  0  0  0
   -1.7100   -0.8450    0.2690 C   0  0  0  0  0  0  0  0  0  0  0  0
   -1.4150   -1.7540    1.2330 O   0  0  0  0  0  0  0  0  0  0  0  0
   -0.7900    0.1560   -0.0440 C   0  0  0  0  0  0  0  0  0  0  0  0
    1.4420    1.0700   -0.3400 C   0  0  0  0  0  0  0  0  0  0  0  0
    2.4640    0.6630   -1.0910 C   0  0  0  0  0  0  0  0  0  0  0  0
    2.8400   -0.7540   -1.1590 C   0  0  0  0  0  0  0  0  0  0  0  0
    3.5950   -1.1960   -2.0020 O   0  0  0  0  0  0  0  0  0  0  0  0
  1  2  1  0
  2  3  1  0
  3 23  1  0
  3  4  2  0
  5  4  1  0
  5 21  1  0
  5 20  1  0
  5  6  1  1
  6  7  1  0
  7  8  1  0
  8 10  1  0
  8  9  1  0
 10 11  1  1
 10 21  1  0
 11 12  1  0
 12 13  1  0
 12 20  2  0
 13 14  2  0
 14 15  1  0
 15 16  1  0
 15 18  2  0
 16 17  1  0
 18 20  1  0
 18 19  1  0
 21 22  2  0
 22 23  1  0
 23 24  2  0
M  END
>  <id>  (64) 
379

>  <scaffolds>  (64) 
['c1ccccc1', 'C1CCNCC1', 'c1ccc2c(c1)CCCC2']

>  <name>  (64) 
Salutaridine

>  <formula>  (64) 
C19H21NO4

>  <SMILES>  (64) 
COC4=C[C@]23CCN(C)[C@H](Cc1ccc(OC)c(O)c12)C3=CC4=O

>  <ChEMBL_id>  (64) 
CHEMBL404097

>  <ZINC_id>  (64) 


>  <PubChem_id>  (64) 


>  <DrugBank_id>  (64) 


>  <CAS_no>  (64) 
1936-18-1

>  <references>  (64) 
[{'journal': {'name': 'Molecules', 'id': 25}, 'title': 'Alkaloidal Variation in Cissampelos Capensis (Menispermaceae)', 'year': 2011, 'start_page': 3001, 'volume': 16, 'issue': None, 'doi': '10.3390/molecules16043001', 'isbn': '', 'despositor': {'code': 'DLP', 'first_name': 'David', 'last_name': 'Penkler', 'id': 23}, 'refauthors_set': [{'author': {'first_name': 'Helene', 'initials': 'H', 'last_name': 'de Wet', 'id': 633}, 'first_author': True, 'id': 873}, {'author': {'first_name': 'Fanie', 'initials': 'FR', 'last_name': 'Van Heerden', 'id': 634}, 'first_author': False, 'id': 874}, {'author': {'first_name': 'Ben-Erik', 'initials': 'B', 'last_name': 'van Wyk', 'id': 635}, 'first_author': False, 'id': 875}], 'id': 298}]

>  <classifications>  (64) 
[{'classification': 'Alkaloid', 'id': 738}, {'classification': 'Morphinane', 'id': 797}, {'classification': 'Phenanthrenes and derivatives (Classyfire)', 'id': 978}]

>  <molecular_mass>  (64) 
327.37

>  <warheads>  (64) 
ab_unsat_carbonyl:2

>  <n_warheads>  (64) 
2

>  <max_tier>  (64) 
1

>  <pains_flag>  (64) 


>  <MW>  (64) 
327.4

>  <cLogP>  (64) 
1.94

>  <HBD>  (64) 
1

>  <HBA>  (64) 
5

>  <TPSA>  (64) 
59.0

>  <ArRings>  (64) 
1

$$$$
SANC00382_minRM1.pdb
     RDKit          3D

 21 24  0  0  1  0  0  0  0  0999 V2000
   -0.2160    2.2920   -0.2370 C   0  0  2  0  0  0  0  0  0  0  0  0
    1.1460    1.9390    0.4050 C   0  0  0  0  0  0  0  0  0  0  0  0
    1.3310    0.4120    0.1150 C   0  0  0  0  0  0  0  0  0  0  0  0
    2.0480    0.2550   -1.1860 C   0  0  0  0  0  0  0  0  0  0  0  0
    3.2710   -0.2630   -1.2800 C   0  0  0  0  0  0  0  0  0  0  0  0
    3.9940   -0.7390   -0.0890 C   0  0  0  0  0  0  0  0  0  0  0  0
    5.1600   -1.0960   -0.1470 O   0  0  0  0  0  0  0  0  0  0  0  0
    3.2370   -0.7710    1.1740 C   0  0  0  0  0  0  0  0  0  0  0  0
    2.0130   -0.2550    1.2610 C   0  0  0  0  0  0  0  0  0  0  0  0
   -0.0770   -0.0860   -0.0290 C   0  0  0  0  0  0  0  0  0  0  0  0
   -0.5910   -1.3670    0.0290 C   0  0  0  0  0  0  0  0  0  0  0  0
    0.2990   -2.3790    0.1410 O   0  0  0  0  0  0  0  0  0  0  0  0
   -2.0010   -1.5230   -0.0400 C   0  0  0  0  0  0  0  0  0  0  0  0
   -2.3940   -2.8320   -0.0260 O   0  0  0  0  0  0  0  0  0  0  0  0
   -3.7730   -3.0930    0.0280 C   0  0  0  0  0  0  0  0  0  0  0  0
   -2.8540   -0.4300   -0.0980 C   0  0  0  0  0  0  0  0  0  0  0  0
   -2.3140    0.8620   -0.1420 C   0  0  0  0  0  0  0  0  0  0  0  0
   -3.1630    2.0820   -0.0590 C   0  0  0  0  0  0  0  0  0  0  0  0
   -2.3550    3.3960   -0.1540 C   0  0  0  0  0  0  0  0  0  0  0  0
   -0.9910    3.3620    0.4200 N   0  0  0  0  0  0  0  0  0  0  0  0
   -0.9480    0.9900   -0.1770 C   0  0  0  0  0  0  0  0  0  0  0  0
  1 21  1  0
  1  2  1  1
  1 20  1  0
  2  3  1  0
  3  4  1  0
  3 10  1  0
  3  9  1  0
  4  5  2  0
  5  6  1  0
  6  7  2  0
  6  8  1  0
  8  9  2  0
 10 21  2  0
 10 11  1  0
 11 13  2  0
 11 12  1  0
 13 16  1  0
 13 14  1  0
 14 15  1  0
 16 17  2  0
 17 21  1  0
 17 18  1  0
 18 19  1  0
 19 20  1  0
M  END
>  <id>  (65) 
382

>  <scaffolds>  (65) 
['c1ccccc1', 'O=C1C=CC2(C=C1)CC1NCCc3cccc2c31']

>  <name>  (65) 
Crotsparine

>  <formula>  (65) 
C17H17NO3

>  <SMILES>  (65) 
[H][C@@]24CC1(C=CC(=O)C=C1)c3c(O)c(OC)cc(CCN2)c34

>  <ChEMBL_id>  (65) 


>  <ZINC_id>  (65) 


>  <PubChem_id>  (65) 


>  <DrugBank_id>  (65) 


>  <CAS_no>  (65) 
18373-79-0

>  <references>  (65) 
[{'journal': {'name': 'Molecules', 'id': 25}, 'title': 'Alkaloidal Variation in Cissampelos Capensis (Menispermaceae)', 'year': 2011, 'start_page': 3001, 'volume': 16, 'issue': None, 'doi': '10.3390/molecules16043001', 'isbn': '', 'despositor': {'code': 'DLP', 'first_name': 'David', 'last_name': 'Penkler', 'id': 23}, 'refauthors_set': [{'author': {'first_name': 'Helene', 'initials': 'H', 'last_name': 'de Wet', 'id': 633}, 'first_author': True, 'id': 873}, {'author': {'first_name': 'Fanie', 'initials': 'FR', 'last_name': 'Van Heerden', 'id': 634}, 'first_author': False, 'id': 874}, {'author': {'first_name': 'Ben-Erik', 'initials': 'B', 'last_name': 'van Wyk', 'id': 635}, 'first_author': False, 'id': 875}], 'id': 298}]

>  <classifications>  (65) 
[{'classification': 'Alkaloid', 'id': 738}, {'classification': 'Aporphine', 'id': 743}, {'classification': 'Proaporphines (Classyfire)', 'id': 977}]

>  <molecular_mass>  (65) 
283.32

>  <warheads>  (65) 
ab_unsat_carbonyl:2

>  <n_warheads>  (65) 
2

>  <max_tier>  (65) 
1

>  <pains_flag>  (65) 


>  <MW>  (65) 
283.3

>  <cLogP>  (65) 
1.92

>  <HBD>  (65) 
2

>  <HBA>  (65) 
4

>  <TPSA>  (65) 
58.6

>  <ArRings>  (65) 
1

$$$$
SANC00412_minRM1.pdb
     RDKit          3D

 39 42  0  0  1  0  0  0  0  0999 V2000
    1.0590    2.5390   -4.9920 C   0  0  0  0  0  0  0  0  0  0  0  0
    1.6710    2.5240   -3.6220 C   0  0  0  0  0  0  0  0  0  0  0  0
    2.8680    2.5310   -3.4420 O   0  0  0  0  0  0  0  0  0  0  0  0
    0.6740    2.4990   -2.4860 C   0  0  0  0  0  0  0  0  0  0  0  0
    1.3500    2.6370   -1.1620 C   0  0  0  0  0  0  0  0  0  0  0  0
    1.7300    3.7910   -0.6030 C   0  0  0  0  0  0  0  0  0  0  0  0
    2.3680    3.8020    0.7140 C   0  0  0  0  0  0  0  0  0  0  0  0
    2.5980    4.8590    1.2840 O   0  0  0  0  0  0  0  0  0  0  0  0
    2.6650    2.4780    1.2690 C   0  0  0  0  0  0  0  0  0  0  0  0
    3.3880    2.3010    2.4580 C   0  0  0  0  0  0  0  0  0  0  0  0
    3.9670    3.4500    3.1980 C   0  0  0  0  0  0  0  0  0  0  0  0
    3.5840    1.0250    2.9630 C   0  0  0  0  0  0  0  0  0  0  0  0
    3.0770   -0.0860    2.2800 C   0  0  0  0  0  0  0  0  0  0  0  0
    3.3680   -1.2840    2.8500 O   0  0  0  0  0  0  0  0  0  0  0  0
    2.3960    0.0370    1.0680 C   0  0  0  0  0  0  0  0  0  0  0  0
    1.9450   -1.1620    0.2860 C   0  0  2  0  0  0  0  0  0  0  0  0
    1.2340   -1.9700    1.1980 O   0  0  0  0  0  0  0  0  0  0  0  0
    0.7470   -3.1780    0.6860 C   0  0  1  0  0  0  0  0  0  0  0  0
   -0.2860   -2.9760   -0.4370 C   0  0  0  0  0  0  0  0  0  0  0  0
   -1.3730   -2.3050    0.1730 O   0  0  0  0  0  0  0  0  0  0  0  0
   -2.3860   -1.9190   -0.6470 C   0  0  0  0  0  0  0  0  0  0  0  0
   -2.3100   -2.1420   -1.8450 O   0  0  0  0  0  0  0  0  0  0  0  0
   -3.4780   -1.2490    0.0650 C   0  0  0  0  0  0  0  0  0  0  0  0
   -4.5470   -0.8490   -0.6380 C   0  0  0  0  0  0  0  0  0  0  0  0
   -5.7010   -0.1710   -0.0710 C   0  0  0  0  0  0  0  0  0  0  0  0
   -5.7970    0.1250    1.2880 C   0  0  0  0  0  0  0  0  0  0  0  0
   -6.9040    0.7980    1.7860 C   0  0  0  0  0  0  0  0  0  0  0  0
   -7.9220    1.1660    0.9050 C   0  0  0  0  0  0  0  0  0  0  0  0
   -9.0630    1.7710    1.3320 O   0  0  0  0  0  0  0  0  0  0  0  0
   -7.8590    0.8530   -0.4550 C   0  0  0  0  0  0  0  0  0  0  0  0
   -6.7440    0.1880   -0.9330 C   0  0  0  0  0  0  0  0  0  0  0  0
    1.9440   -4.0380    0.2120 C   0  0  1  0  0  0  0  0  0  0  0  0
    1.4210   -5.2120   -0.3260 O   0  0  0  0  0  0  0  0  0  0  0  0
    2.7290   -3.2670   -0.8740 C   0  0  2  0  0  0  0  0  0  0  0  0
    3.8980   -3.9710   -1.1710 O   0  0  0  0  0  0  0  0  0  0  0  0
    3.1880   -1.9190   -0.2620 C   0  0  1  0  0  0  0  0  0  0  0  0
    3.6860   -1.1080   -1.2800 O   0  0  0  0  0  0  0  0  0  0  0  0
    2.1980    1.3440    0.5950 C   0  0  0  0  0  0  0  0  0  0  0  0
    1.4820    1.4180   -0.5660 O   0  0  0  0  0  0  0  0  0  0  0  0
  1  2  1  0
  2  3  2  0
  2  4  1  0
  4  5  1  0
  5  6  2  0
  5 39  1  0
  6  7  1  0
  7  9  1  0
  7  8  2  0
  9 38  1  0
  9 10  2  0
 10 12  1  0
 10 11  1  0
 12 13  2  0
 13 15  1  0
 13 14  1  0
 16 15  1  1
 15 38  2  0
 16 36  1  0
 16 17  1  0
 17 18  1  0
 18 19  1  6
 18 32  1  0
 19 20  1  0
 20 21  1  0
 21 22  2  0
 21 23  1  0
 23 24  2  0
 24 25  1  0
 25 31  2  0
 25 26  1  0
 26 27  2  0
 27 28  1  0
 28 30  2  0
 28 29  1  0
 30 31  1  0
 32 34  1  0
 32 33  1  6
 34 35  1  1
 34 36  1  0
 36 37  1  6
 38 39  1  0
M  END
>  <id>  (66) 
412

>  <scaffolds>  (66) 
['c1ccccc1', 'C1CCOCC1', 'O=c1ccoc2ccccc12', 'O=c1ccoc2c(C3CCCCO3)cccc12', 'O=C(C=Cc1ccccc1)OCC1CCCC(c2cccc3c(=O)ccoc23)O1']

>  <name>  (66) 
4H-1-Benzopyran-4-one, 7-hydroxy-8-[6-O-[(2E)-3-(4-hydroxyphenyl)-1-oxo-2-propen-1-yl]-[beta]-D-glucopyranosyl]-5-methyl-2-(2-oxopropyl)-

>  <formula>  (66) 
C28H28O11

>  <SMILES>  (66) 
CC(=O)Cc4cc(=O)c3c(C)cc(O)c([C@@H]2OC(COC(=O)/C=C/c1ccc(O)cc1)[C@@H](O)[C@H](O)[C@H]2O)c3o4

>  <ChEMBL_id>  (66) 


>  <ZINC_id>  (66) 


>  <PubChem_id>  (66) 


>  <DrugBank_id>  (66) 


>  <CAS_no>  (66) 
313944-92-2

>  <references>  (66) 
[{'journal': {'name': 'Phytochemistry', 'id': 10}, 'title': "6'-O-Coumaroylaloesin from Aloe castanea - a taxonomic marker for Aloe section Anguialoe", 'year': 2000, 'start_page': 117, 'volume': 55, 'issue': 2, 'doi': '10.1016/S0031-9422(00)00252-1', 'isbn': '', 'despositor': {'code': 'DLP', 'first_name': 'David', 'last_name': 'Penkler', 'id': 23}, 'refauthors_set': [{'author': {'first_name': 'Fanie', 'initials': 'FR', 'last_name': 'Van Heerden', 'id': 634}, 'first_author': True, 'id': 894}, {'author': {'first_name': 'Alvaro', 'initials': 'AM', 'last_name': 'Viljoen', 'id': 655}, 'first_author': False, 'id': 895}, {'author': {'first_name': 'Ben-Erik', 'initials': 'B', 'last_name': 'van Wyk', 'id': 635}, 'first_author': False, 'id': 896}], 'id': 309}]

>  <classifications>  (66) 
[{'classification': 'Coumaroylaloesin', 'id': 763}, {'classification': 'Glycoside', 'id': 781}, {'classification': 'Organooxygen compounds (Classyfire)', 'id': 954}]

>  <molecular_mass>  (66) 
540.51

>  <warheads>  (66) 
ab_unsat_carbonyl:1

>  <n_warheads>  (66) 
1

>  <max_tier>  (66) 
1

>  <pains_flag>  (66) 


>  <MW>  (66) 
540.5

>  <cLogP>  (66) 
1.42

>  <HBD>  (66) 
5

>  <HBA>  (66) 
11

>  <TPSA>  (66) 
184.0

>  <ArRings>  (66) 
3

$$$$
SANC00430_minRM1.pdb
     RDKit          3D

 30 31  0  0  1  0  0  0  0  0999 V2000
    0.7130   -1.7770   -0.8740 C   0  0  2  0  0  0  0  0  0  0  0  0
    2.1100   -1.7320   -1.4140 C   0  0  0  0  0  0  0  0  0  0  0  0
    2.9430   -0.6890   -1.3520 C   0  0  0  0  0  0  0  0  0  0  0  0
    4.2690   -0.7630   -2.0290 C   0  0  0  0  0  0  0  0  0  0  0  0
    2.6330    0.5620   -0.5730 C   0  0  1  0  0  0  0  0  0  0  0  0
    3.6910    1.4890   -0.7560 O   0  0  0  0  0  0  0  0  0  0  0  0
    4.2510    2.1000    0.3200 C   0  0  0  0  0  0  0  0  0  0  0  0
    5.2310    3.1470   -0.1030 C   0  0  0  0  0  0  0  0  0  0  0  0
    3.9610    1.7850    1.4580 O   0  0  0  0  0  0  0  0  0  0  0  0
    1.3720    1.2750   -1.0890 C   0  0  0  0  0  0  0  0  0  0  0  0
    0.7530    2.1780   -0.0840 C   0  0  0  0  0  0  0  0  0  0  0  0
    0.3380    1.8610    1.1450 C   0  0  0  0  0  0  0  0  0  0  0  0
   -0.2900    2.9210    1.9920 C   0  0  0  0  0  0  0  0  0  0  0  0
    0.5390    0.5570    1.8470 C   0  0  0  0  0  0  0  0  0  0  0  0
   -0.2470   -0.6690    1.3360 C   0  0  1  0  0  0  0  0  0  0  0  0
   -1.2210   -0.2880    0.3910 O   0  0  0  0  0  0  0  0  0  0  0  0
   -2.3680    0.2870    0.8510 C   0  0  0  0  0  0  0  0  0  0  0  0
   -2.5460    0.4160    2.0520 O   0  0  0  0  0  0  0  0  0  0  0  0
   -3.3030    0.6800   -0.2120 C   0  0  0  0  0  0  0  0  0  0  0  0
   -4.5790    0.9030    0.1270 C   0  0  0  0  0  0  0  0  0  0  0  0
   -5.5910    1.3920   -0.8620 C   0  0  0  0  0  0  0  0  0  0  0  0
   -6.8480    1.1630   -0.2810 O   0  0  0  0  0  0  0  0  0  0  0  0
   -2.7900    0.8820   -1.6080 C   0  0  0  0  0  0  0  0  0  0  0  0
   -2.4010    2.2210   -1.7270 O   0  0  0  0  0  0  0  0  0  0  0  0
    0.6420   -1.7580    0.6800 C   0  0  1  0  0  0  0  0  0  0  0  0
    0.1130   -3.1210    1.0040 C   0  0  0  0  0  0  0  0  0  0  0  0
   -0.0120   -3.6820    2.1970 C   0  0  0  0  0  0  0  0  0  0  0  0
   -0.2100   -3.7880   -0.2670 C   0  0  0  0  0  0  0  0  0  0  0  0
   -0.7000   -4.8710   -0.4980 O   0  0  0  0  0  0  0  0  0  0  0  0
    0.1180   -2.9880   -1.3240 O   0  0  0  0  0  0  0  0  0  0  0  0
  1  2  1  0
  1 30  1  1
  1 25  1  0
  2  3  2  0
  3  4  1  0
  3  5  1  0
  5 10  1  0
  5  6  1  6
  6  7  1  0
  7  8  1  0
  7  9  2  0
 10 11  1  0
 11 12  2  0
 12 14  1  0
 12 13  1  0
 14 15  1  0
 15 16  1  6
 15 25  1  0
 16 17  1  0
 17 19  1  0
 17 18  2  0
 19 23  1  0
 19 20  2  0
 20 21  1  0
 21 22  1  0
 23 24  1  0
 25 26  1  6
 26 28  1  0
 26 27  2  0
 28 30  1  0
 28 29  2  0
M  END
>  <id>  (67) 
430

>  <scaffolds>  (67) 
['C=C1C(=O)OC2C=CCCC=CCCC12', 'O=C1CCCO1', 'O=C1CC2CCC=CCCC=CC2O1']

>  <name>  (67) 
Eucannabinolide

>  <formula>  (67) 
C22H28O8

>  <SMILES>  (67) 
[H][C@@]12C=C(C)[C@@H](OC(C)=O)CC=C(C)C[C@@H](OC(=O)/C(=C/CO)CO)[C@@]1([H])C(=C)C(=O)O2

>  <ChEMBL_id>  (67) 


>  <ZINC_id>  (67) 


>  <PubChem_id>  (67) 
 6436818

>  <DrugBank_id>  (67) 


>  <CAS_no>  (67) 
38458-58-1

>  <references>  (67) 
[{'journal': {'name': 'Journal of Ethnopharmacology', 'id': 7}, 'title': 'In vitro anticancer screening of South African plants', 'year': 2008, 'start_page': 455, 'volume': 119, 'issue': 3, 'doi': '10.1016/j.jep.2008.07.005', 'isbn': '', 'despositor': {'code': 'TMM', 'first_name': 'Thommas', 'last_name': 'Musyoka', 'id': 22}, 'refauthors_set': [{'author': {'first_name': '', 'initials': 'G', 'last_name': 'Fouche ', 'id': 671}, 'first_author': True, 'id': 926}, {'author': {'first_name': 'Gordon', 'initials': 'GM', 'last_name': 'Cragg', 'id': 672}, 'first_author': False, 'id': 927}, {'author': {'first_name': '', 'initials': 'P', 'last_name': 'Pillay', 'id': 673}, 'first_author': False, 'id': 928}, {'author': {'first_name': '', 'initials': 'N', 'last_name': 'Kolesnikova', 'id': 674}, 'first_author': False, 'id': 929}, {'author': {'first_name': '', 'initials': 'VJ', 'last_name': 'Maharaj', 'id': 675}, 'first_author': False, 'id': 930}, {'author': {'first_name': '', 'initials': 'J', 'last_name': 'Senabe', 'id': 676}, 'first_author': False, 'id': 931}], 'id': 314}]

>  <classifications>  (67) 
[{'classification': 'Sesquiterpene', 'id': 828}, {'classification': 'Terpenoid', 'id': 839}, {'classification': 'Phenol lipids (Classyfire)', 'id': 951}]

>  <molecular_mass>  (67) 
420.45

>  <warheads>  (67) 
ab_unsat_carbonyl:2;exo_methylene_carbonyl:1

>  <n_warheads>  (67) 
3

>  <max_tier>  (67) 
1

>  <pains_flag>  (67) 


>  <MW>  (67) 
420.5

>  <cLogP>  (67) 
1.53

>  <HBD>  (67) 
2

>  <HBA>  (67) 
8

>  <TPSA>  (67) 
119.4

>  <ArRings>  (67) 
0

$$$$
SANC00431_minRM1.pdb
     RDKit          3D

 19 20  0  0  1  0  0  0  0  0999 V2000
    0.6250   -0.7800   -0.3420 C   0  0  1  0  0  0  0  0  0  0  0  0
   -0.2720   -1.4130    0.6790 C   0  0  0  0  0  0  0  0  0  0  0  0
   -1.6030   -1.4420    0.6030 C   0  0  0  0  0  0  0  0  0  0  0  0
   -2.4090   -2.1200    1.6550 C   0  0  0  0  0  0  0  0  0  0  0  0
   -2.4000   -0.8480   -0.5370 C   0  0  1  0  0  0  0  0  0  0  0  0
   -3.2700   -1.8140   -1.0610 O   0  0  0  0  0  0  0  0  0  0  0  0
   -3.3140    0.3050   -0.0610 C   0  0  0  0  0  0  0  0  0  0  0  0
   -2.8080    1.6720   -0.5260 C   0  0  0  0  0  0  0  0  0  0  0  0
   -1.4020    1.8670   -0.0450 C   0  0  0  0  0  0  0  0  0  0  0  0
   -1.2630    2.0220    1.4250 C   0  0  0  0  0  0  0  0  0  0  0  0
   -0.3960    1.8230   -0.9200 C   0  0  0  0  0  0  0  0  0  0  0  0
    1.0600    1.7440   -0.5740 C   0  0  1  0  0  0  0  0  0  0  0  0
    1.4980    2.8140    0.2140 O   0  0  0  0  0  0  0  0  0  0  0  0
    1.3400    0.4710    0.2520 C   0  0  2  0  0  0  0  0  0  0  0  0
    2.7840    0.1010    0.1910 C   0  0  0  0  0  0  0  0  0  0  0  0
    3.8270    0.8300    0.5600 C   0  0  0  0  0  0  0  0  0  0  0  0
    2.8670   -1.2600   -0.3630 C   0  0  0  0  0  0  0  0  0  0  0  0
    3.8180   -1.9770   -0.5800 O   0  0  0  0  0  0  0  0  0  0  0  0
    1.6230   -1.7340   -0.6760 O   0  0  0  0  0  0  0  0  0  0  0  0
  1 19  1  1
  1 14  1  0
  1  2  1  0
  2  3  2  0
  3  5  1  0
  3  4  1  0
  5  6  1  1
  5  7  1  0
  7  8  1  0
  8  9  1  0
  9 11  2  0
  9 10  1  0
 11 12  1  0
 12 13  1  1
 12 14  1  0
 14 15  1  6
 15 17  1  0
 15 16  2  0
 17 19  1  0
 17 18  2  0
M  END
>  <id>  (68) 
431

>  <scaffolds>  (68) 
['O=C1CCCO1', 'C=C1C(=O)OC2C=CCCCC=CCC12']

>  <name>  (68) 
Tatridin A

>  <formula>  (68) 
C15H20O4

>  <SMILES>  (68) 
[H][C@]12C=C(C)[C@@H](O)CCC(C)=C[C@@H](O)[C@]1([H])C(=C)C(=O)O2

>  <ChEMBL_id>  (68) 


>  <ZINC_id>  (68) 


>  <PubChem_id>  (68) 
 14466152

>  <DrugBank_id>  (68) 


>  <CAS_no>  (68) 
41653-75-2

>  <references>  (68) 
[{'journal': {'name': 'Journal of Ethnopharmacology', 'id': 7}, 'title': 'In vitro anticancer screening of South African plants', 'year': 2008, 'start_page': 455, 'volume': 119, 'issue': 3, 'doi': '10.1016/j.jep.2008.07.005', 'isbn': '', 'despositor': {'code': 'TMM', 'first_name': 'Thommas', 'last_name': 'Musyoka', 'id': 22}, 'refauthors_set': [{'author': {'first_name': '', 'initials': 'G', 'last_name': 'Fouche ', 'id': 671}, 'first_author': True, 'id': 926}, {'author': {'first_name': 'Gordon', 'initials': 'GM', 'last_name': 'Cragg', 'id': 672}, 'first_author': False, 'id': 927}, {'author': {'first_name': '', 'initials': 'P', 'last_name': 'Pillay', 'id': 673}, 'first_author': False, 'id': 928}, {'author': {'first_name': '', 'initials': 'N', 'last_name': 'Kolesnikova', 'id': 674}, 'first_author': False, 'id': 929}, {'author': {'first_name': '', 'initials': 'VJ', 'last_name': 'Maharaj', 'id': 675}, 'first_author': False, 'id': 930}, {'author': {'first_name': '', 'initials': 'J', 'last_name': 'Senabe', 'id': 676}, 'first_author': False, 'id': 931}], 'id': 314}]

>  <classifications>  (68) 
[{'classification': 'Sesquiterpene', 'id': 828}, {'classification': 'Terpenoid', 'id': 839}, {'classification': 'Phenol lipids (Classyfire)', 'id': 951}]

>  <molecular_mass>  (68) 
264.32

>  <warheads>  (68) 
ab_unsat_carbonyl:1;exo_methylene_carbonyl:1

>  <n_warheads>  (68) 
2

>  <max_tier>  (68) 
1

>  <pains_flag>  (68) 


>  <MW>  (68) 
264.3

>  <cLogP>  (68) 
1.49

>  <HBD>  (68) 
2

>  <HBA>  (68) 
4

>  <TPSA>  (68) 
66.8

>  <ArRings>  (68) 
0

$$$$
SANC00432_minRM1.pdb
     RDKit          3D

 19 21  0  0  1  0  0  0  0  0999 V2000
    2.2910   -1.2730   -1.6150 C   0  0  0  0  0  0  0  0  0  0  0  0
    1.2300   -0.8530   -0.5960 C   0  0  2  0  0  0  0  0  0  0  0  0
   -0.1110   -1.4930   -1.0190 C   0  0  0  0  0  0  0  0  0  0  0  0
   -1.1900   -0.9080   -0.1300 C   0  0  1  0  0  0  0  0  0  0  0  0
   -1.3100    0.6080   -0.4130 C   0  0  2  0  0  0  0  0  0  0  0  0
   -0.0700    1.2700    0.1780 C   0  0  1  0  0  0  0  0  0  0  0  0
    1.1460    0.6910   -0.6020 C   0  0  1  0  0  0  0  0  0  0  0  0
    2.4020    1.2860   -0.0500 C   0  0  0  0  0  0  0  0  0  0  0  0
    3.0930    2.2070   -0.7150 C   0  0  0  0  0  0  0  0  0  0  0  0
    2.8180    0.8080    1.2990 C   0  0  0  0  0  0  0  0  0  0  0  0
    2.9190   -0.7090    1.3150 C   0  0  0  0  0  0  0  0  0  0  0  0
    1.6110   -1.3420    0.8220 C   0  0  2  0  0  0  0  0  0  0  0  0
    1.7590   -2.7310    0.7350 O   0  0  0  0  0  0  0  0  0  0  0  0
   -0.1320    2.6550    0.0880 O   0  0  0  0  0  0  0  0  0  0  0  0
   -2.6740    0.8710    0.1220 C   0  0  0  0  0  0  0  0  0  0  0  0
   -3.1920    1.9740    0.6340 C   0  0  0  0  0  0  0  0  0  0  0  0
   -3.3850   -0.4190   -0.0650 C   0  0  0  0  0  0  0  0  0  0  0  0
   -4.5600   -0.6990   -0.0170 O   0  0  0  0  0  0  0  0  0  0  0  0
   -2.4910   -1.4250   -0.3670 O   0  0  0  0  0  0  0  0  0  0  0  0
  2  1  1  6
  2  3  1  0
  2  7  1  0
  2 12  1  0
  4  3  1  6
  4  5  1  0
  4 19  1  0
  5 15  1  1
  5  6  1  0
  6  7  1  0
  6 14  1  6
  7  8  1  1
  8  9  2  0
  8 10  1  0
 10 11  1  0
 11 12  1  0
 12 13  1  6
 15 17  1  0
 15 16  2  0
 17 19  1  0
 17 18  2  0
M  END
>  <id>  (69) 
432

>  <scaffolds>  (69) 
['C1CCCCC1', 'C=C1CCCC2CCCCC12', 'C=C1CCCC2CC3OC(=O)C(=C)C3CC12', 'O=C1CCCO1', 'C=C1C(=O)OC2CCCCC12', 'C1CCC2CCCCC2C1']

>  <name>  (69) 
Deacetyl-[beta]-cyclopyrethrosin

>  <formula>  (69) 
C15H20O4

>  <SMILES>  (69) 
C[C@]12C[C@H]3[C@H]([C@@H]([C@H]1C(=C)CC[C@@H]2O)O)C(=C)C(=O)O3

>  <ChEMBL_id>  (69) 


>  <ZINC_id>  (69) 


>  <PubChem_id>  (69) 


>  <DrugBank_id>  (69) 


>  <CAS_no>  (69) 
83790-58-3

>  <references>  (69) 
[{'journal': {'name': 'Journal of Ethnopharmacology', 'id': 7}, 'title': 'In vitro anticancer screening of South African plants', 'year': 2008, 'start_page': 455, 'volume': 119, 'issue': 3, 'doi': '10.1016/j.jep.2008.07.005', 'isbn': '', 'despositor': {'code': 'TMM', 'first_name': 'Thommas', 'last_name': 'Musyoka', 'id': 22}, 'refauthors_set': [{'author': {'first_name': '', 'initials': 'G', 'last_name': 'Fouche ', 'id': 671}, 'first_author': True, 'id': 926}, {'author': {'first_name': 'Gordon', 'initials': 'GM', 'last_name': 'Cragg', 'id': 672}, 'first_author': False, 'id': 927}, {'author': {'first_name': '', 'initials': 'P', 'last_name': 'Pillay', 'id': 673}, 'first_author': False, 'id': 928}, {'author': {'first_name': '', 'initials': 'N', 'last_name': 'Kolesnikova', 'id': 674}, 'first_author': False, 'id': 929}, {'author': {'first_name': '', 'initials': 'VJ', 'last_name': 'Maharaj', 'id': 675}, 'first_author': False, 'id': 930}, {'author': {'first_name': '', 'initials': 'J', 'last_name': 'Senabe', 'id': 676}, 'first_author': False, 'id': 931}], 'id': 314}]

>  <classifications>  (69) 
[{'classification': 'Sesquiterpene', 'id': 828}, {'classification': 'Terpenoid', 'id': 839}, {'classification': 'Phenol lipids (Classyfire)', 'id': 951}]

>  <molecular_mass>  (69) 
264.32

>  <warheads>  (69) 
ab_unsat_carbonyl:1;exo_methylene_carbonyl:1

>  <n_warheads>  (69) 
2

>  <max_tier>  (69) 
1

>  <pains_flag>  (69) 


>  <MW>  (69) 
264.3

>  <cLogP>  (69) 
1.18

>  <HBD>  (69) 
2

>  <HBA>  (69) 
4

>  <TPSA>  (69) 
66.8

>  <ArRings>  (69) 
0

$$$$
SANC00433_minRM1.pdb
     RDKit          3D

 25 29  0  0  1  0  0  0  0  0999 V2000
   -4.1700    0.4340    1.5690 C   0  0  0  0  0  0  0  0  0  0  0  0
   -3.2220    0.3640    0.3960 C   0  0  1  0  0  0  0  0  0  0  0  0
   -3.5630    1.3910   -0.6900 C   0  0  0  0  0  0  0  0  0  0  0  0
   -2.7320    1.1540   -1.9500 C   0  0  0  0  0  0  0  0  0  0  0  0
   -1.2620    0.8220   -1.6770 C   0  0  0  0  0  0  0  0  0  0  0  0
   -1.1110   -0.1700   -0.5080 C   0  0  2  0  0  0  0  0  0  0  0  0
   -1.7310    0.5340    0.7310 C   0  0  2  0  0  0  0  0  0  0  0  0
   -1.2810   -0.1500    2.0040 C   0  0  0  0  0  0  0  0  0  0  0  0
    0.2200    0.0690    2.1780 C   0  0  0  0  0  0  0  0  0  0  0  0
    1.0130    0.0130    0.8750 C   0  0  2  0  0  0  0  0  0  0  0  0
    0.3000   -0.7770   -0.2470 C   0  0  2  0  0  0  0  0  0  0  0  0
    1.1460   -0.7580   -1.5350 C   0  0  0  0  0  0  0  0  0  0  0  0
    2.6260   -1.0570   -1.3050 C   0  0  0  0  0  0  0  0  0  0  0  0
    3.1520   -0.1840   -0.1600 C   0  0  2  0  0  0  0  0  0  0  0  0
    2.4110   -0.5940    1.1260 C   0  0  0  0  0  0  0  0  0  0  0  0
    2.7120    1.2460   -0.3490 C   0  0  0  0  0  0  0  0  0  0  0  0
    3.3570    2.2130   -0.9820 C   0  0  0  0  0  0  0  0  0  0  0  0
    1.4100    1.3860    0.3380 C   0  0  0  0  0  0  0  0  0  0  0  0
    0.8100    2.4290    0.4870 O   0  0  0  0  0  0  0  0  0  0  0  0
    4.5460   -0.1760   -0.0530 O   0  0  0  0  0  0  0  0  0  0  0  0
    5.1370   -1.4120    0.2380 C   0  0  0  0  0  0  0  0  0  0  0  0
    0.1710   -2.2390    0.2060 C   0  0  0  0  0  0  0  0  0  0  0  0
   -1.9840   -1.2600   -0.7970 O   0  0  0  0  0  0  0  0  0  0  0  0
   -3.2180   -0.9990   -0.2650 C   0  0  0  0  0  0  0  0  0  0  0  0
   -4.0810   -1.8360   -0.3940 O   0  0  0  0  0  0  0  0  0  0  0  0
  2  1  1  1
  2  3  1  0
  2 24  1  0
  2  7  1  0
  3  4  1  0
  4  5  1  0
  6  5  1  6
  6 23  1  0
  6 11  1  0
  6  7  1  0
  7  8  1  1
  8  9  1  0
 10  9  1  1
 10 11  1  0
 10 18  1  0
 10 15  1  0
 11 12  1  0
 11 22  1  1
 12 13  1  0
 13 14  1  0
 14 16  1  0
 14 20  1  1
 14 15  1  0
 16 17  2  0
 16 18  1  0
 18 19  2  0
 20 21  1  0
 23 24  1  0
 24 25  2  0
M  END
>  <id>  (70) 
433

>  <scaffolds>  (70) 
['C1CCCCC1', 'C=C1C(=O)C23CCC4C5CCCC4(OC5=O)C2CCC1C3', 'O=C1CCCO1', 'C=C1CC23CCC4CCCCC4C2CCC1C3', 'C1CCC2CCCCC2C1']

>  <name>  (70) 
13-methoxy-15-oxozoapatlin

>  <formula>  (70) 
C21H28O4

>  <SMILES>  (70) 
C[C@@]12CCC[C@@]3([C@@H]1CC[C@]45[C@@]3(CC[C@](C4)(C(=C)C5=O)OC)C)OC2=O

>  <ChEMBL_id>  (70) 
CHEMBL465475

>  <ZINC_id>  (70) 


>  <PubChem_id>  (70) 


>  <DrugBank_id>  (70) 


>  <CAS_no>  (70) 
173962-79-3

>  <references>  (70) 
[{'journal': {'name': 'Journal of Ethnopharmacology', 'id': 7}, 'title': 'In vitro anticancer screening of South African plants', 'year': 2008, 'start_page': 455, 'volume': 119, 'issue': 3, 'doi': '10.1016/j.jep.2008.07.005', 'isbn': '', 'despositor': {'code': 'TMM', 'first_name': 'Thommas', 'last_name': 'Musyoka', 'id': 22}, 'refauthors_set': [{'author': {'first_name': '', 'initials': 'G', 'last_name': 'Fouche ', 'id': 671}, 'first_author': True, 'id': 926}, {'author': {'first_name': 'Gordon', 'initials': 'GM', 'last_name': 'Cragg', 'id': 672}, 'first_author': False, 'id': 927}, {'author': {'first_name': '', 'initials': 'P', 'last_name': 'Pillay', 'id': 673}, 'first_author': False, 'id': 928}, {'author': {'first_name': '', 'initials': 'N', 'last_name': 'Kolesnikova', 'id': 674}, 'first_author': False, 'id': 929}, {'author': {'first_name': '', 'initials': 'VJ', 'last_name': 'Maharaj', 'id': 675}, 'first_author': False, 'id': 930}, {'author': {'first_name': '', 'initials': 'J', 'last_name': 'Senabe', 'id': 676}, 'first_author': False, 'id': 931}], 'id': 314}]

>  <classifications>  (70) 
[{'classification': 'Diterpene', 'id': 771}, {'classification': 'Terpenoid', 'id': 839}, {'classification': 'Naphthofurans (Classyfire)', 'id': 974}]

>  <molecular_mass>  (70) 
344.44

>  <warheads>  (70) 
ab_unsat_carbonyl:1;exo_methylene_carbonyl:1

>  <n_warheads>  (70) 
2

>  <max_tier>  (70) 
1

>  <pains_flag>  (70) 


>  <MW>  (70) 
344.5

>  <cLogP>  (70) 
3.58

>  <HBD>  (70) 
0

>  <HBA>  (70) 
4

>  <TPSA>  (70) 
52.6

>  <ArRings>  (70) 
0

$$$$
SANC00434_minRM1.pdb
     RDKit          3D

 28 31  0  0  0  0  0  0  0  0999 V2000
    5.8820    1.8500    2.1560 C   0  0  0  0  0  0  0  0  0  0  0  0
    5.0130    1.0950    1.2150 C   0  0  0  0  0  0  0  0  0  0  0  0
    3.6210    1.0650    1.4340 C   0  0  0  0  0  0  0  0  0  0  0  0
    2.8020    0.3830    0.5610 C   0  0  0  0  0  0  0  0  0  0  0  0
    3.3410   -0.2780   -0.5510 C   0  0  0  0  0  0  0  0  0  0  0  0
    4.7210   -0.2300   -0.7670 C   0  0  0  0  0  0  0  0  0  0  0  0
    5.5680    0.4570    0.1280 C   0  0  0  0  0  0  0  0  0  0  0  0
    5.3320   -0.8150   -1.8050 O   0  0  0  0  0  0  0  0  0  0  0  0
    2.4910   -1.0060   -1.4820 C   0  0  0  0  0  0  0  0  0  0  0  0
    2.9820   -1.5550   -2.4700 O   0  0  0  0  0  0  0  0  0  0  0  0
    1.0480   -1.0690   -1.2110 C   0  0  0  0  0  0  0  0  0  0  0  0
    0.5190   -0.4480   -0.1540 C   0  0  0  0  0  0  0  0  0  0  0  0
    1.3400    0.3440    0.7960 C   0  0  0  0  0  0  0  0  0  0  0  0
    0.8260    0.9290    1.7330 O   0  0  0  0  0  0  0  0  0  0  0  0
   -0.9230   -0.4900    0.0880 C   0  0  0  0  0  0  0  0  0  0  0  0
   -1.7520    0.4550   -0.5590 C   0  0  0  0  0  0  0  0  0  0  0  0
   -3.1360    0.4320   -0.3620 C   0  0  0  0  0  0  0  0  0  0  0  0
   -3.6910   -0.5390    0.4810 C   0  0  0  0  0  0  0  0  0  0  0  0
   -2.8850   -1.4520    1.1260 C   0  0  0  0  0  0  0  0  0  0  0  0
   -1.4900   -1.4260    0.9310 C   0  0  0  0  0  0  0  0  0  0  0  0
   -0.6500   -2.4400    1.6190 C   0  0  0  0  0  0  0  0  0  0  0  0
   -5.1590   -0.5790    0.6720 C   0  0  0  0  0  0  0  0  0  0  0  0
   -5.6910   -1.3690    1.4330 O   0  0  0  0  0  0  0  0  0  0  0  0
   -5.9800    0.3810   -0.1000 C   0  0  0  0  0  0  0  0  0  0  0  0
   -5.4340    1.3220   -0.8660 C   0  0  0  0  0  0  0  0  0  0  0  0
   -3.9750    1.4170   -1.0320 C   0  0  0  0  0  0  0  0  0  0  0  0
   -3.4630    2.2880   -1.7360 O   0  0  0  0  0  0  0  0  0  0  0  0
   -1.1340    1.3290   -1.3600 O   0  0  0  0  0  0  0  0  0  0  0  0
  1  2  1  0
  2  7  2  0
  2  3  1  0
  3  4  2  0
  4  5  1  0
  4 13  1  0
  5  9  1  0
  5  6  2  0
  6  8  1  0
  6  7  1  0
  9 10  2  0
  9 11  1  0
 11 12  2  0
 12 15  1  0
 12 13  1  0
 13 14  2  0
 15 16  2  0
 15 20  1  0
 16 28  1  0
 16 17  1  0
 17 26  1  0
 17 18  2  0
 18 22  1  0
 18 19  1  0
 19 20  2  0
 20 21  1  0
 22 24  1  0
 22 23  2  0
 24 25  2  0
 25 26  1  0
 26 27  2  0
M  END
>  <id>  (71) 
434

>  <scaffolds>  (71) 
['c1ccccc1', 'c1ccc(CCc2ccccc2)cc1', 'O=C(C=Cc1ccccc1)c1ccccc1', 'C(=Cc1ccccc1)Cc1ccccc1', 'O=C1C=CC(=O)c2ccccc21', 'O=C1C=CC(=O)c2cc(C3=CC(=O)c4ccccc4C3=O)ccc21']

>  <name>  (71) 
Diospyrin

>  <formula>  (71) 
C22H14O6

>  <SMILES>  (71) 
CC1=CC2=C(C(=C1)O)C(=O)C=C(C2=O)C3=C(C4=C(C=C3C)C(=O)C=CC4=O)O

>  <ChEMBL_id>  (71) 
CHEMBL242550

>  <ZINC_id>  (71) 


>  <PubChem_id>  (71) 
 308140

>  <DrugBank_id>  (71) 


>  <CAS_no>  (71) 
28164-57-0

>  <references>  (71) 
[{'journal': {'name': 'South African Journal of Botany', 'id': 1}, 'title': 'Antimycobacterial activity and possible mode of action of newly isolated neodiospyrin and other naphthoquinones from Euclea natalensis', 'year': 2006, 'start_page': 349, 'volume': 72, 'issue': 3, 'doi': '10.1016/j.sajb.2005.09.009', 'isbn': '', 'despositor': {'code': 'TMM', 'first_name': 'Thommas', 'last_name': 'Musyoka', 'id': 22}, 'refauthors_set': [{'author': {'first_name': '', 'initials': 'F', 'last_name': 'van der Kooy', 'id': 677}, 'first_author': True, 'id': 932}, {'author': {'first_name': 'Jacobus', 'initials': 'JJM', 'last_name': 'Meyer', 'id': 467}, 'first_author': False, 'id': 933}, {'author': {'first_name': 'Namrita', 'initials': 'N', 'last_name': 'Lall', 'id': 441}, 'first_author': False, 'id': 934}], 'id': 315}]

>  <classifications>  (71) 
[{'classification': 'Naphthoquinone', 'id': 798}, {'classification': 'Naphthalenes (Classyfire)', 'id': 983}]

>  <molecular_mass>  (71) 
374.34

>  <warheads>  (71) 
ab_unsat_carbonyl:4

>  <n_warheads>  (71) 
4

>  <max_tier>  (71) 
1

>  <pains_flag>  (71) 
quinone_A(370)

>  <MW>  (71) 
374.3

>  <cLogP>  (71) 
3.11

>  <HBD>  (71) 
2

>  <HBA>  (71) 
6

>  <TPSA>  (71) 
108.7

>  <ArRings>  (71) 
2

$$$$
SANC00435_minRM1.pdb
     RDKit          3D

 28 31  0  0  0  0  0  0  0  0999 V2000
   -0.0820    0.2610    2.9040 C   0  0  0  0  0  0  0  0  0  0  0  0
   -0.9400    0.2270    1.6900 C   0  0  0  0  0  0  0  0  0  0  0  0
   -2.3180   -0.0210    1.8400 C   0  0  0  0  0  0  0  0  0  0  0  0
   -3.1410   -0.0450    0.7360 C   0  0  0  0  0  0  0  0  0  0  0  0
   -2.6200    0.1770   -0.5460 C   0  0  0  0  0  0  0  0  0  0  0  0
   -3.4760    0.1400   -1.7230 C   0  0  0  0  0  0  0  0  0  0  0  0
   -3.0060    0.3620   -2.8410 O   0  0  0  0  0  0  0  0  0  0  0  0
   -4.9040   -0.1680   -1.5420 C   0  0  0  0  0  0  0  0  0  0  0  0
   -5.4170   -0.3700   -0.3310 C   0  0  0  0  0  0  0  0  0  0  0  0
   -4.5880   -0.3070    0.8940 C   0  0  0  0  0  0  0  0  0  0  0  0
   -5.1000   -0.4730    1.9890 O   0  0  0  0  0  0  0  0  0  0  0  0
   -1.2520    0.4260   -0.6940 C   0  0  0  0  0  0  0  0  0  0  0  0
   -0.4030    0.4560    0.4390 C   0  0  0  0  0  0  0  0  0  0  0  0
    1.0250    0.7120    0.2490 C   0  0  0  0  0  0  0  0  0  0  0  0
    1.9180   -0.3240    0.0570 C   0  0  0  0  0  0  0  0  0  0  0  0
    1.4790   -1.7370    0.0250 C   0  0  0  0  0  0  0  0  0  0  0  0
    0.3190   -2.0660   -0.1330 O   0  0  0  0  0  0  0  0  0  0  0  0
    2.5250   -2.7780    0.1640 C   0  0  0  0  0  0  0  0  0  0  0  0
    3.8150   -2.5000   -0.0090 C   0  0  0  0  0  0  0  0  0  0  0  0
    4.2540   -1.1250   -0.2980 C   0  0  0  0  0  0  0  0  0  0  0  0
    5.4170   -0.8740   -0.6120 O   0  0  0  0  0  0  0  0  0  0  0  0
    3.2790   -0.0510   -0.1560 C   0  0  0  0  0  0  0  0  0  0  0  0
    3.7100    1.2770   -0.2160 C   0  0  0  0  0  0  0  0  0  0  0  0
    2.8060    2.3370    0.0010 C   0  0  0  0  0  0  0  0  0  0  0  0
    1.4790    2.0510    0.2360 C   0  0  0  0  0  0  0  0  0  0  0  0
    0.5170    3.1660    0.4380 C   0  0  0  0  0  0  0  0  0  0  0  0
    4.9780    1.6380   -0.4480 O   0  0  0  0  0  0  0  0  0  0  0  0
   -0.6750    0.7020   -1.8710 O   0  0  0  0  0  0  0  0  0  0  0  0
  1  2  1  0
  2 13  1  0
  2  3  2  0
  3  4  1  0
  4  5  2  0
  4 10  1  0
  5  6  1  0
  5 12  1  0
  6  7  2  0
  6  8  1  0
  8  9  2  0
  9 10  1  0
 10 11  2  0
 12 28  1  0
 12 13  2  0
 13 14  1  0
 14 15  2  0
 14 25  1  0
 15 22  1  0
 15 16  1  0
 16 17  2  0
 16 18  1  0
 18 19  2  0
 19 20  1  0
 20 21  2  0
 20 22  1  0
 22 23  2  0
 23 27  1  0
 23 24  1  0
 24 25  2  0
 25 26  1  0
M  END
>  <id>  (72) 
435

>  <scaffolds>  (72) 
['c1ccccc1', 'O=C1C=CC(=O)c2ccccc21']

>  <name>  (72) 
Isodiospyrin

>  <formula>  (72) 
C22H14O6

>  <SMILES>  (72) 
CC1=CC2=C(C(=O)C=CC2=O)C(=C1C3=C4C(=O)C=CC(=O)C4=C(C=C3C)O)O

>  <ChEMBL_id>  (72) 
CHEMBL1992900

>  <ZINC_id>  (72) 


>  <PubChem_id>  (72) 
 99298

>  <DrugBank_id>  (72) 


>  <CAS_no>  (72) 
20175-84-2

>  <references>  (72) 
[{'journal': {'name': 'South African Journal of Botany', 'id': 1}, 'title': 'Antimycobacterial activity and possible mode of action of newly isolated neodiospyrin and other naphthoquinones from Euclea natalensis', 'year': 2006, 'start_page': 349, 'volume': 72, 'issue': 3, 'doi': '10.1016/j.sajb.2005.09.009', 'isbn': '', 'despositor': {'code': 'TMM', 'first_name': 'Thommas', 'last_name': 'Musyoka', 'id': 22}, 'refauthors_set': [{'author': {'first_name': '', 'initials': 'F', 'last_name': 'van der Kooy', 'id': 677}, 'first_author': True, 'id': 932}, {'author': {'first_name': 'Jacobus', 'initials': 'JJM', 'last_name': 'Meyer', 'id': 467}, 'first_author': False, 'id': 933}, {'author': {'first_name': 'Namrita', 'initials': 'N', 'last_name': 'Lall', 'id': 441}, 'first_author': False, 'id': 934}], 'id': 315}]

>  <classifications>  (72) 
[{'classification': 'Naphthoquinone', 'id': 798}, {'classification': 'Naphthalenes (Classyfire)', 'id': 983}]

>  <molecular_mass>  (72) 
374.34

>  <warheads>  (72) 
ab_unsat_carbonyl:4

>  <n_warheads>  (72) 
4

>  <max_tier>  (72) 
1

>  <pains_flag>  (72) 
quinone_A(370)

>  <MW>  (72) 
374.3

>  <cLogP>  (72) 
3.25

>  <HBD>  (72) 
2

>  <HBA>  (72) 
6

>  <TPSA>  (72) 
108.7

>  <ArRings>  (72) 
2

$$$$
SANC00436_minRM1.pdb
     RDKit          3D

 28 31  0  0  0  0  0  0  0  0999 V2000
    3.1730   -2.7320   -1.6530 O   0  0  0  0  0  0  0  0  0  0  0  0
    2.6950   -1.7890   -1.0460 C   0  0  0  0  0  0  0  0  0  0  0  0
    1.2380   -1.7340   -0.7900 C   0  0  0  0  0  0  0  0  0  0  0  0
    0.6980   -0.7870   -0.0220 C   0  0  0  0  0  0  0  0  0  0  0  0
   -0.7460   -0.7340    0.1920 C   0  0  0  0  0  0  0  0  0  0  0  0
   -1.3940   -1.7300    0.7970 C   0  0  0  0  0  0  0  0  0  0  0  0
   -2.8590   -1.6850    1.0080 C   0  0  0  0  0  0  0  0  0  0  0  0
   -3.4030   -2.5180    1.7120 O   0  0  0  0  0  0  0  0  0  0  0  0
   -3.6130   -0.6100    0.3310 C   0  0  0  0  0  0  0  0  0  0  0  0
   -2.9100    0.4400   -0.2790 C   0  0  0  0  0  0  0  0  0  0  0  0
   -3.6310    1.4730   -0.8850 C   0  0  0  0  0  0  0  0  0  0  0  0
   -3.0630    2.5370   -1.4660 O   0  0  0  0  0  0  0  0  0  0  0  0
   -5.0420    1.4410   -0.9230 C   0  0  0  0  0  0  0  0  0  0  0  0
   -5.7050    0.3850   -0.3380 C   0  0  0  0  0  0  0  0  0  0  0  0
   -4.9890   -0.6460    0.3020 C   0  0  0  0  0  0  0  0  0  0  0  0
   -7.1890    0.3100   -0.3950 C   0  0  0  0  0  0  0  0  0  0  0  0
   -1.4530    0.4580   -0.3160 C   0  0  0  0  0  0  0  0  0  0  0  0
   -0.8530    1.4140   -0.8000 O   0  0  0  0  0  0  0  0  0  0  0  0
    1.5230    0.2510    0.6270 C   0  0  0  0  0  0  0  0  0  0  0  0
    1.0490    1.0460    1.4360 O   0  0  0  0  0  0  0  0  0  0  0  0
    2.9380    0.2950    0.2880 C   0  0  0  0  0  0  0  0  0  0  0  0
    3.5220   -0.6720   -0.5430 C   0  0  0  0  0  0  0  0  0  0  0  0
    4.8550   -0.5980   -0.8810 C   0  0  0  0  0  0  0  0  0  0  0  0
    5.6490    0.4540   -0.3820 C   0  0  0  0  0  0  0  0  0  0  0  0
    5.1080    1.4060    0.4530 C   0  0  0  0  0  0  0  0  0  0  0  0
    3.7410    1.3210    0.7970 C   0  0  0  0  0  0  0  0  0  0  0  0
    3.2960    2.2760    1.6230 O   0  0  0  0  0  0  0  0  0  0  0  0
    7.0790    0.5320   -0.7800 C   0  0  0  0  0  0  0  0  0  0  0  0
  1  2  2  0
  2  3  1  0
  2 22  1  0
  3  4  2  0
  4  5  1  0
  4 19  1  0
  5 17  1  0
  5  6  2  0
  6  7  1  0
  7  9  1  0
  7  8  2  0
  9 10  1  0
  9 15  2  0
 10 11  2  0
 10 17  1  0
 11 12  1  0
 11 13  1  0
 13 14  2  0
 14 16  1  0
 14 15  1  0
 17 18  2  0
 19 21  1  0
 19 20  2  0
 21 22  1  0
 21 26  2  0
 22 23  2  0
 23 24  1  0
 24 28  1  0
 24 25  2  0
 25 26  1  0
 26 27  1  0
M  END
>  <id>  (73) 
436

>  <scaffolds>  (73) 
['c1ccccc1', 'C=C(Cc1ccccc1)C(=C)Cc1ccccc1', 'O=C1C=CC(=O)c2ccccc21', 'O=C1C=C(C2=CC(=O)c3ccccc3C2=O)C(=O)c2ccccc21']

>  <name>  (73) 
Mamegakinone

>  <formula>  (73) 
C22H14O6

>  <SMILES>  (73) 
O=C3\C=C(\C2=C\C(=O)c1c(c(O)cc(c1)C)C2=O)C(=O)c4c3cc(cc4O)C

>  <ChEMBL_id>  (73) 


>  <ZINC_id>  (73) 


>  <PubChem_id>  (73) 
 167673

>  <DrugBank_id>  (73) 


>  <CAS_no>  (73) 
17734-93-9

>  <references>  (73) 
[{'journal': {'name': 'South African Journal of Botany', 'id': 1}, 'title': 'Antimycobacterial activity and possible mode of action of newly isolated neodiospyrin and other naphthoquinones from Euclea natalensis', 'year': 2006, 'start_page': 349, 'volume': 72, 'issue': 3, 'doi': '10.1016/j.sajb.2005.09.009', 'isbn': '', 'despositor': {'code': 'TMM', 'first_name': 'Thommas', 'last_name': 'Musyoka', 'id': 22}, 'refauthors_set': [{'author': {'first_name': '', 'initials': 'F', 'last_name': 'van der Kooy', 'id': 677}, 'first_author': True, 'id': 932}, {'author': {'first_name': 'Jacobus', 'initials': 'JJM', 'last_name': 'Meyer', 'id': 467}, 'first_author': False, 'id': 933}, {'author': {'first_name': 'Namrita', 'initials': 'N', 'last_name': 'Lall', 'id': 441}, 'first_author': False, 'id': 934}], 'id': 315}]

>  <classifications>  (73) 
[{'classification': 'Naphthoquinone', 'id': 798}, {'classification': 'Naphthalenes (Classyfire)', 'id': 983}]

>  <molecular_mass>  (73) 
374.34

>  <warheads>  (73) 
ab_unsat_carbonyl:4

>  <n_warheads>  (73) 
4

>  <max_tier>  (73) 
1

>  <pains_flag>  (73) 
quinone_A(370)

>  <MW>  (73) 
374.3

>  <cLogP>  (73) 
3.03

>  <HBD>  (73) 
2

>  <HBA>  (73) 
6

>  <TPSA>  (73) 
108.7

>  <ArRings>  (73) 
2

$$$$
SANC00437_minRM1.pdb
     RDKit          3D

 14 15  0  0  0  0  0  0  0  0999 V2000
   -3.7630    1.0170   -0.0340 C   0  0  0  0  0  0  0  0  0  0  0  0
   -2.3860    0.4580   -0.0140 C   0  0  0  0  0  0  0  0  0  0  0  0
   -1.2850    1.3370   -0.0170 C   0  0  0  0  0  0  0  0  0  0  0  0
   -0.0030    0.8360    0.0100 C   0  0  0  0  0  0  0  0  0  0  0  0
    0.2210   -0.5490    0.0630 C   0  0  0  0  0  0  0  0  0  0  0  0
    1.5680   -1.0990    0.1030 C   0  0  0  0  0  0  0  0  0  0  0  0
    1.7440   -2.3100    0.1760 O   0  0  0  0  0  0  0  0  0  0  0  0
    2.7040   -0.1640    0.0340 C   0  0  0  0  0  0  0  0  0  0  0  0
    2.5130    1.1530   -0.0130 C   0  0  0  0  0  0  0  0  0  0  0  0
    1.1580    1.7520    0.0070 C   0  0  0  0  0  0  0  0  0  0  0  0
    1.0260    2.9640    0.0350 O   0  0  0  0  0  0  0  0  0  0  0  0
   -0.8780   -1.4120    0.0950 C   0  0  0  0  0  0  0  0  0  0  0  0
   -2.1950   -0.9050    0.0510 C   0  0  0  0  0  0  0  0  0  0  0  0
   -0.7750   -2.7470    0.1720 O   0  0  0  0  0  0  0  0  0  0  0  0
  1  2  1  0
  2  3  1  0
  2 13  2  0
  3  4  2  0
  4 10  1  0
  4  5  1  0
  5 12  2  0
  5  6  1  0
  6  8  1  0
  6  7  2  0
  8  9  2  0
  9 10  1  0
 10 11  2  0
 12 13  1  0
 12 14  1  0
M  END
>  <id>  (74) 
437

>  <scaffolds>  (74) 
['c1ccccc1', 'O=C1C=CC(=O)c2ccccc21']

>  <name>  (74) 
7-methyljuglone

>  <formula>  (74) 
C11H8O3

>  <SMILES>  (74) 
CC1=CC2=C(C(=O)C=CC2=O)C(=C1)O

>  <ChEMBL_id>  (74) 
CHEMBL430853

>  <ZINC_id>  (74) 


>  <PubChem_id>  (74) 
 26905

>  <DrugBank_id>  (74) 


>  <CAS_no>  (74) 
14787-38-3

>  <references>  (74) 
[{'journal': {'name': 'South African Journal of Botany', 'id': 1}, 'title': 'Antimycobacterial activity and possible mode of action of newly isolated neodiospyrin and other naphthoquinones from Euclea natalensis', 'year': 2006, 'start_page': 349, 'volume': 72, 'issue': 3, 'doi': '10.1016/j.sajb.2005.09.009', 'isbn': '', 'despositor': {'code': 'TMM', 'first_name': 'Thommas', 'last_name': 'Musyoka', 'id': 22}, 'refauthors_set': [{'author': {'first_name': '', 'initials': 'F', 'last_name': 'van der Kooy', 'id': 677}, 'first_author': True, 'id': 932}, {'author': {'first_name': 'Jacobus', 'initials': 'JJM', 'last_name': 'Meyer', 'id': 467}, 'first_author': False, 'id': 933}, {'author': {'first_name': 'Namrita', 'initials': 'N', 'last_name': 'Lall', 'id': 441}, 'first_author': False, 'id': 934}], 'id': 315}]

>  <classifications>  (74) 
[{'classification': 'Naphthoquinone', 'id': 798}, {'classification': 'Naphthalenes (Classyfire)', 'id': 983}]

>  <molecular_mass>  (74) 
188.18

>  <warheads>  (74) 
ab_unsat_carbonyl:2

>  <n_warheads>  (74) 
2

>  <max_tier>  (74) 
1

>  <pains_flag>  (74) 
quinone_A(370)

>  <MW>  (74) 
188.2

>  <cLogP>  (74) 
1.64

>  <HBD>  (74) 
1

>  <HBA>  (74) 
3

>  <TPSA>  (74) 
54.4

>  <ArRings>  (74) 
1

$$$$
SANC00438_minRM1.pdb
     RDKit          3D

 28 31  0  0  0  0  0  0  0  0999 V2000
    6.7750   -0.1660    0.1120 C   0  0  0  0  0  0  0  0  0  0  0  0
   -0.4380    2.9020    1.0300 C   0  0  0  0  0  0  0  0  0  0  0  0
   -5.6670   -0.4650   -0.6150 O   0  0  0  0  0  0  0  0  0  0  0  0
   -0.6550   -2.1800   -0.1380 O   0  0  0  0  0  0  0  0  0  0  0  0
    2.5160   -1.1750    2.8920 O   0  0  0  0  0  0  0  0  0  0  0  0
    0.6450    0.3690   -1.7990 O   0  0  0  0  0  0  0  0  0  0  0  0
    3.0090    0.6760   -2.7640 O   0  0  0  0  0  0  0  0  0  0  0  0
   -5.0280    1.9100    0.0420 O   0  0  0  0  0  0  0  0  0  0  0  0
   -4.1020   -2.1990   -0.9610 C   0  0  0  0  0  0  0  0  0  0  0  0
   -2.8420   -2.6080   -0.8450 C   0  0  0  0  0  0  0  0  0  0  0  0
    4.8110    0.2650   -1.3480 C   0  0  0  0  0  0  0  0  0  0  0  0
   -2.7930    2.3540    0.4980 C   0  0  0  0  0  0  0  0  0  0  0  0
    0.7330   -0.2030    1.7180 C   0  0  0  0  0  0  0  0  0  0  0  0
    4.4350   -0.3890    0.9530 C   0  0  0  0  0  0  0  0  0  0  0  0
    5.3070   -0.0960   -0.1140 C   0  0  0  0  0  0  0  0  0  0  0  0
   -1.4880    1.9330    0.6180 C   0  0  0  0  0  0  0  0  0  0  0  0
    3.4140    0.3330   -1.5330 C   0  0  0  0  0  0  0  0  0  0  0  0
   -3.7830    1.4250    0.1130 C   0  0  0  0  0  0  0  0  0  0  0  0
    0.2480    0.1770    0.5340 C   0  0  0  0  0  0  0  0  0  0  0  0
   -1.1480    0.5850    0.3700 C   0  0  0  0  0  0  0  0  0  0  0  0
   -4.4920   -0.8330   -0.5740 C   0  0  0  0  0  0  0  0  0  0  0  0
   -1.7740   -1.7320   -0.3120 C   0  0  0  0  0  0  0  0  0  0  0  0
    2.1460   -0.6090    1.8800 C   0  0  0  0  0  0  0  0  0  0  0  0
    1.1030    0.2070   -0.6700 C   0  0  0  0  0  0  0  0  0  0  0  0
    3.0730   -0.2940    0.7710 C   0  0  0  0  0  0  0  0  0  0  0  0
    2.5420    0.0820   -0.4710 C   0  0  0  0  0  0  0  0  0  0  0  0
   -3.4480    0.0950   -0.1580 C   0  0  0  0  0  0  0  0  0  0  0  0
   -2.1150   -0.3190   -0.0260 C   0  0  0  0  0  0  0  0  0  0  0  0
  1 15  1  0
  2 16  1  0
  3 21  2  0
  4 22  2  0
  5 23  2  0
  6 24  2  0
  7 17  1  0
  8 18  1  0
  9 10  2  0
  9 21  1  0
 10 22  1  0
 11 17  1  0
 11 15  2  0
 12 18  1  0
 12 16  2  0
 13 19  2  0
 13 23  1  0
 14 15  1  0
 14 25  2  0
 16 20  1  0
 17 26  2  0
 18 27  2  0
 19 24  1  0
 19 20  1  0
 20 28  2  0
 21 27  1  0
 22 28  1  0
 23 25  1  0
 24 26  1  0
 25 26  1  0
 27 28  1  0
M  END
>  <id>  (75) 
438

>  <scaffolds>  (75) 
['c1ccccc1', 'c1ccc(CCc2ccccc2)cc1', 'O=C(C=Cc1ccccc1)c1ccccc1', 'C(=Cc1ccccc1)Cc1ccccc1', 'O=C1C=CC(=O)c2ccccc21']

>  <name>  (75) 
Neodiospyrin

>  <formula>  (75) 
C22H14O6

>  <SMILES>  (75) 
Cc4cc(O)c3c(=O)c(c1c(C)cc(O)c2c(=O)ccc(=O)c12)cc(=O)c3c4

>  <ChEMBL_id>  (75) 


>  <ZINC_id>  (75) 


>  <PubChem_id>  (75) 
 5320076

>  <DrugBank_id>  (75) 


>  <CAS_no>  (75) 
33916-25-5

>  <references>  (75) 
[{'journal': {'name': 'South African Journal of Botany', 'id': 1}, 'title': 'Antimycobacterial activity and possible mode of action of newly isolated neodiospyrin and other naphthoquinones from Euclea natalensis', 'year': 2006, 'start_page': 349, 'volume': 72, 'issue': 3, 'doi': '10.1016/j.sajb.2005.09.009', 'isbn': '', 'despositor': {'code': 'TMM', 'first_name': 'Thommas', 'last_name': 'Musyoka', 'id': 22}, 'refauthors_set': [{'author': {'first_name': '', 'initials': 'F', 'last_name': 'van der Kooy', 'id': 677}, 'first_author': True, 'id': 932}, {'author': {'first_name': 'Jacobus', 'initials': 'JJM', 'last_name': 'Meyer', 'id': 467}, 'first_author': False, 'id': 933}, {'author': {'first_name': 'Namrita', 'initials': 'N', 'last_name': 'Lall', 'id': 441}, 'first_author': False, 'id': 934}], 'id': 315}]

>  <classifications>  (75) 
[{'classification': 'Naphthoquinone', 'id': 798}, {'classification': 'Naphthalenes (Classyfire)', 'id': 983}]

>  <molecular_mass>  (75) 
374.34

>  <warheads>  (75) 
ab_unsat_carbonyl:4

>  <n_warheads>  (75) 
4

>  <max_tier>  (75) 
1

>  <pains_flag>  (75) 
quinone_A(370)

>  <MW>  (75) 
374.3

>  <cLogP>  (75) 
3.11

>  <HBD>  (75) 
2

>  <HBA>  (75) 
6

>  <TPSA>  (75) 
108.7

>  <ArRings>  (75) 
2

$$$$
SANC00454_minRM1.pdb
     RDKit          3D

 62 68  0  0  1  0  0  0  0  0999 V2000
    0.2530   -0.2230   -0.9190 C   0  0  1  0  0  0  0  0  0  0  0  0
   -0.8710    0.4240   -1.4460 O   0  0  0  0  0  0  0  0  0  0  0  0
   -2.0920    0.1210   -0.8030 C   0  0  1  0  0  0  0  0  0  0  0  0
   -2.9680    1.3640   -0.9820 C   0  0  0  0  0  0  0  0  0  0  0  0
   -4.3340    1.0880   -0.3740 C   0  0  0  0  0  0  0  0  0  0  0  0
   -5.0380   -0.1160   -1.0260 C   0  0  1  0  0  0  0  0  0  0  0  0
   -5.3510    0.1950   -2.4920 C   0  0  0  0  0  0  0  0  0  0  0  0
   -4.1190   -1.3010   -1.0050 C   0  0  0  0  0  0  0  0  0  0  0  0
   -4.4930   -2.5180   -0.6140 C   0  0  0  0  0  0  0  0  0  0  0  0
   -5.8450   -2.8390   -0.0940 C   0  0  0  0  0  0  0  0  0  0  0  0
   -6.8790   -1.7900   -0.5030 C   0  0  2  0  0  0  0  0  0  0  0  0
   -6.3290   -0.3960   -0.2110 C   0  0  2  0  0  0  0  0  0  0  0  0
   -7.4000    0.6540   -0.4960 C   0  0  0  0  0  0  0  0  0  0  0  0
   -8.6070    0.3970    0.4070 C   0  0  1  0  0  0  0  0  0  0  0  0
   -9.5940    1.3860    0.1610 O   0  0  0  0  0  0  0  0  0  0  0  0
   -9.4200    2.6260    0.6850 C   0  0  0  0  0  0  0  0  0  0  0  0
   -8.4620    2.8750    1.3980 O   0  0  0  0  0  0  0  0  0  0  0  0
  -10.5060    3.5550    0.3210 C   0  0  0  0  0  0  0  0  0  0  0  0
  -11.2270    3.3190   -0.9560 C   0  0  0  0  0  0  0  0  0  0  0  0
  -10.7920    4.5540    1.1660 C   0  0  0  0  0  0  0  0  0  0  0  0
  -11.8800    5.5270    0.9110 C   0  0  0  0  0  0  0  0  0  0  0  0
   -9.2790   -0.9480    0.0430 C   0  0  2  0  0  0  0  0  0  0  0  0
   -9.8620   -0.8990   -1.3600 C   0  0  0  0  0  0  0  0  0  0  0  0
  -10.3170   -1.2830    1.1320 C   0  0  1  0  0  0  0  0  0  0  0  0
  -11.3260   -2.3030    0.6480 C   0  0  0  0  0  0  0  0  0  0  0  0
  -12.5710   -1.7810   -0.0140 C   0  0  0  0  0  0  0  0  0  0  0  0
  -11.1820   -3.5000    0.8200 O   0  0  0  0  0  0  0  0  0  0  0  0
   -9.4820   -1.8160    2.3070 C   0  0  0  0  0  0  0  0  0  0  0  0
   -8.1320   -2.2590    1.7390 C   0  0  0  0  0  0  0  0  0  0  0  0
   -8.2200   -2.0770    0.2100 C   0  0  2  0  0  0  0  0  0  0  0  0
   -8.7190   -3.2180   -0.4280 O   0  0  0  0  0  0  0  0  0  0  0  0
   -2.7350   -1.0740   -1.5200 C   0  0  0  0  0  0  0  0  0  0  0  0
    1.3860   -0.0020   -1.9340 C   0  0  0  0  0  0  0  0  0  0  0  0
    2.7140   -0.4460   -1.3080 C   0  0  2  0  0  0  0  0  0  0  0  0
    2.6320   -1.8190   -1.0110 O   0  0  0  0  0  0  0  0  0  0  0  0
    3.2300   -2.6500   -1.9680 C   0  0  0  0  0  0  0  0  0  0  0  0
    2.8960    0.2810    0.0460 C   0  0  2  0  0  0  0  0  0  0  0  0
    3.9720   -0.3100    0.7300 O   0  0  0  0  0  0  0  0  0  0  0  0
    5.1710    0.4130    0.7290 C   0  0  1  0  0  0  0  0  0  0  0  0
    6.1050   -0.3490    1.6840 C   0  0  0  0  0  0  0  0  0  0  0  0
    7.5310    0.1920    1.5340 C   0  0  2  0  0  0  0  0  0  0  0  0
    7.5360    1.5560    1.8790 O   0  0  0  0  0  0  0  0  0  0  0  0
    7.9560    1.8140    3.1900 C   0  0  0  0  0  0  0  0  0  0  0  0
    7.9250    0.1200    0.0400 C   0  0  2  0  0  0  0  0  0  0  0  0
    9.1420    0.8070   -0.1250 O   0  0  0  0  0  0  0  0  0  0  0  0
   10.2660    0.0050   -0.3370 C   0  0  2  0  0  0  0  0  0  0  0  0
   10.4080   -0.7220    0.8580 O   0  0  0  0  0  0  0  0  0  0  0  0
   11.5580   -1.5320    0.8780 C   0  0  2  0  0  0  0  0  0  0  0  0
   11.5040   -2.2680    2.2140 C   0  0  0  0  0  0  0  0  0  0  0  0
   12.8160   -0.6290    0.8020 C   0  0  1  0  0  0  0  0  0  0  0  0
   13.9080   -1.4890    0.6930 O   0  0  0  0  0  0  0  0  0  0  0  0
   12.7720    0.2230   -0.4910 C   0  0  2  0  0  0  0  0  0  0  0  0
   13.8390    1.1240   -0.3490 O   0  0  0  0  0  0  0  0  0  0  0  0
   14.4350    1.5230   -1.5560 C   0  0  0  0  0  0  0  0  0  0  0  0
   11.4420    1.0120   -0.5130 C   0  0  1  0  0  0  0  0  0  0  0  0
   11.3490    1.5830   -1.7800 O   0  0  0  0  0  0  0  0  0  0  0  0
    6.8850    0.8850   -0.8180 C   0  0  1  0  0  0  0  0  0  0  0  0
    7.1670    0.6920   -2.3070 C   0  0  0  0  0  0  0  0  0  0  0  0
    5.6170    0.3150   -0.6060 O   0  0  0  0  0  0  0  0  0  0  0  0
    1.6580    0.0440    0.9490 C   0  0  1  0  0  0  0  0  0  0  0  0
    1.7350    0.9020    2.2100 C   0  0  0  0  0  0  0  0  0  0  0  0
    0.5090    0.4900    0.2710 O   0  0  0  0  0  0  0  0  0  0  0  0
  1 33  1  0
  1  2  1  6
  1 62  1  0
  3  2  1  6
  3 32  1  0
  3  4  1  0
  4  5  1  0
  5  6  1  0
  6  7  1  6
  6  8  1  0
  6 12  1  0
  8 32  1  0
  8  9  2  0
  9 10  1  0
 11 10  1  1
 11 12  1  0
 11 30  1  0
 12 13  1  6
 13 14  1  0
 14 22  1  0
 14 15  1  6
 15 16  1  0
 16 18  1  0
 16 17  2  0
 18 19  1  0
 18 20  2  0
 20 21  1  0
 22 23  1  6
 22 30  1  0
 22 24  1  0
 24 25  1  6
 24 28  1  0
 25 26  1  0
 25 27  2  0
 28 29  1  0
 29 30  1  0
 30 31  1  6
 33 34  1  0
 34 35  1  1
 34 37  1  0
 35 36  1  0
 37 38  1  1
 37 60  1  0
 39 38  1  6
 39 59  1  0
 39 40  1  0
 40 41  1  0
 41 44  1  0
 41 42  1  6
 42 43  1  0
 44 57  1  0
 44 45  1  1
 46 45  1  1
 46 55  1  0
 46 47  1  0
 47 48  1  0
 48 50  1  0
 48 49  1  1
 50 52  1  0
 50 51  1  6
 52 55  1  0
 52 53  1  1
 53 54  1  0
 55 56  1  6
 57 58  1  6
 57 59  1  0
 60 62  1  0
 60 61  1  1
M  END
>  <id>  (76) 
454

>  <scaffolds>  (76) 
['C1=C2CCCCC2C2CCC3CCCC3C2C1', 'C1=CCCCC1', 'C1=CCC2CCCCC2C1', 'C1CCOCC1', 'C1=C2CC(OC3CCCCO3)CCC2C2CCC3CCCC3C2C1', 'C1CCCCC1', 'C1=C2CCCCC2CCC1', 'C1CCC(OC2CCCOC2)OC1', 'C1=C2CC(OC3CCC(OC4CCC(OC5CCCCO5)CO4)CO3)CCC2C2CCC3CCCC3C2C1']

>  <name>  (76) 
Pregn-5-en-20-one, 3-[(O-6-deoxy-3-O-methyl-[beta]-D-glucopyranosyl-(1[to]4)-O-2,6-dideoxy-3-O-methyl-[beta]-D-ribo-hexopyranosyl-(1[to]4)-2,6-dideoxy-3-O-methyl-[beta]-D-ribo-hexopyranosyl)oxy]-14-hydroxy-12-[[(2E)-2-methyl-1-oxo-2-buten-1-yl]oxy]-, (3[b

>  <formula>  (76) 
C47H74O15

>  <SMILES>  (76) 
[H][C@]7(O[C@H]4CC[C@@]1(C)C(=CC[C@]2([H])[C@]1([H])C[C@@H](OC(=O)/C(C)=C/C)[C@]3(C)[C@@H](C(C)=O)CC[C@]23O)C4)C[C@H](OC)[C@H](O[C@@]6([H])C[C@H](OC)[C@H](O[C@]5([H])O[C@H](C)[C@@H](O)[C@H](OC)[C@H]5O)[C@@H](C)O6)[C@@H](C)O7

>  <ChEMBL_id>  (76) 


>  <ZINC_id>  (76) 


>  <PubChem_id>  (76) 


>  <DrugBank_id>  (76) 


>  <CAS_no>  (76) 
384329-61-7

>  <references>  (76) 
[{'journal': {'name': 'Phytochemistry', 'id': 10}, 'title': 'An appetite suppressant from Hoodia species', 'year': 2007, 'start_page': 2545, 'volume': 68, 'issue': None, 'doi': '10.1016/j.phytochem.2007.05.022', 'isbn': '', 'despositor': {'code': 'DLP', 'first_name': 'David', 'last_name': 'Penkler', 'id': 23}, 'refauthors_set': [{'author': {'first_name': 'Fanie', 'initials': 'FR', 'last_name': 'Van Heerden', 'id': 634}, 'first_author': True, 'id': 956}, {'author': {'first_name': '', 'initials': 'R', 'last_name': 'Marthinus Horak', 'id': 695}, 'first_author': False, 'id': 957}, {'author': {'first_name': '', 'initials': 'VJ', 'last_name': 'Maharaj', 'id': 675}, 'first_author': False, 'id': 958}, {'author': {'first_name': 'Robert', 'initials': 'R', 'last_name': 'Vleggaar', 'id': 696}, 'first_author': False, 'id': 959}, {'author': {'first_name': '', 'initials': 'J', 'last_name': 'Senabe', 'id': 676}, 'first_author': False, 'id': 960}, {'author': {'first_name': 'Philip', 'initials': 'Pj', 'last_name': 'Gunning', 'id': 697}, 'first_author': False, 'id': 961}], 'id': 321}]

>  <classifications>  (76) 
[{'classification': 'Glycoside', 'id': 781}, {'classification': 'Pregnane', 'id': 813}, {'classification': 'Steroid', 'id': 835}, {'classification': 'Steroids and steroid derivatives (Classyfire)', 'id': 942}]

>  <molecular_mass>  (76) 
879.08

>  <warheads>  (76) 
ab_unsat_carbonyl:1

>  <n_warheads>  (76) 
1

>  <max_tier>  (76) 
1

>  <pains_flag>  (76) 


>  <MW>  (76) 
879.1

>  <cLogP>  (76) 
4.69

>  <HBD>  (76) 
3

>  <HBA>  (76) 
15

>  <TPSA>  (76) 
187.1

>  <ArRings>  (76) 
0

$$$$
SANC00455_minRM1.pdb
     RDKit          3D

 72 79  0  0  1  0  0  0  0  0999 V2000
   -2.1790    0.1890   -1.2170 C   0  0  1  0  0  0  0  0  0  0  0  0
   -3.3380    0.9460   -1.4170 O   0  0  0  0  0  0  0  0  0  0  0  0
   -4.5170    0.4030   -0.8600 C   0  0  1  0  0  0  0  0  0  0  0  0
   -5.4000    1.6050   -0.5120 C   0  0  0  0  0  0  0  0  0  0  0  0
   -6.7220    1.0950    0.0390 C   0  0  0  0  0  0  0  0  0  0  0  0
   -7.4720    0.1970   -0.9610 C   0  0  1  0  0  0  0  0  0  0  0  0
   -7.8880    1.0140   -2.1870 C   0  0  0  0  0  0  0  0  0  0  0  0
   -6.5560   -0.8900   -1.4430 C   0  0  0  0  0  0  0  0  0  0  0  0
   -6.9050   -2.1730   -1.5080 C   0  0  0  0  0  0  0  0  0  0  0  0
   -8.2180   -2.6940   -1.0520 C   0  0  0  0  0  0  0  0  0  0  0  0
   -9.2740   -1.5920   -0.9790 C   0  0  2  0  0  0  0  0  0  0  0  0
   -8.7030   -0.3940   -0.2250 C   0  0  2  0  0  0  0  0  0  0  0  0
   -9.7890    0.6620   -0.0330 C   0  0  0  0  0  0  0  0  0  0  0  0
  -10.9340    0.0620    0.7820 C   0  0  1  0  0  0  0  0  0  0  0  0
  -11.9370    1.0460    0.9800 O   0  0  0  0  0  0  0  0  0  0  0  0
  -11.7240    2.0200    1.9000 C   0  0  0  0  0  0  0  0  0  0  0  0
  -10.7170    2.0220    2.5880 O   0  0  0  0  0  0  0  0  0  0  0  0
  -12.8310    2.9900    1.9670 C   0  0  0  0  0  0  0  0  0  0  0  0
  -13.6290    3.2220    0.7380 C   0  0  0  0  0  0  0  0  0  0  0  0
  -13.0630    3.6030    3.1320 C   0  0  0  0  0  0  0  0  0  0  0  0
  -14.1630    4.5800    3.3150 C   0  0  0  0  0  0  0  0  0  0  0  0
  -11.6300   -1.0690   -0.0140 C   0  0  2  0  0  0  0  0  0  0  0  0
  -12.3040   -0.5170   -1.2590 C   0  0  0  0  0  0  0  0  0  0  0  0
  -12.5960   -1.8070    0.9350 C   0  0  1  0  0  0  0  0  0  0  0  0
  -13.6380   -2.5910    0.1660 C   0  0  0  0  0  0  0  0  0  0  0  0
  -14.9270   -1.8900   -0.1600 C   0  0  0  0  0  0  0  0  0  0  0  0
  -13.4810   -3.7560   -0.1480 O   0  0  0  0  0  0  0  0  0  0  0  0
  -11.6910   -2.7270    1.7700 C   0  0  0  0  0  0  0  0  0  0  0  0
  -10.3750   -2.8840    1.0040 C   0  0  0  0  0  0  0  0  0  0  0  0
  -10.5650   -2.1540   -0.3420 C   0  0  2  0  0  0  0  0  0  0  0  0
  -11.1100   -2.9900   -1.3210 O   0  0  0  0  0  0  0  0  0  0  0  0
   -5.2110   -0.4540   -1.9270 C   0  0  0  0  0  0  0  0  0  0  0  0
   -1.1110    0.7930   -2.1440 C   0  0  0  0  0  0  0  0  0  0  0  0
    0.2580    0.2050   -1.7830 C   0  0  2  0  0  0  0  0  0  0  0  0
    0.2160   -1.1890   -1.9750 O   0  0  0  0  0  0  0  0  0  0  0  0
    0.7500   -1.6120   -3.1990 C   0  0  0  0  0  0  0  0  0  0  0  0
    0.5070    0.4290   -0.2730 C   0  0  2  0  0  0  0  0  0  0  0  0
    1.6450   -0.3010    0.1100 O   0  0  0  0  0  0  0  0  0  0  0  0
    2.8140    0.4450    0.3040 C   0  0  1  0  0  0  0  0  0  0  0  0
    3.8350   -0.5360    0.9030 C   0  0  0  0  0  0  0  0  0  0  0  0
    5.2240    0.1140    0.8880 C   0  0  2  0  0  0  0  0  0  0  0  0
    5.1820    1.2810    1.6730 O   0  0  0  0  0  0  0  0  0  0  0  0
    5.7060    1.1270    2.9650 C   0  0  0  0  0  0  0  0  0  0  0  0
    5.5330    0.5700   -0.5570 C   0  0  2  0  0  0  0  0  0  0  0  0
    6.7030    1.3510   -0.5350 O   0  0  0  0  0  0  0  0  0  0  0  0
    7.8630    0.7320   -1.0090 C   0  0  2  0  0  0  0  0  0  0  0  0
    8.1310   -0.2730   -0.0660 O   0  0  0  0  0  0  0  0  0  0  0  0
    9.3390   -0.9520   -0.3120 C   0  0  2  0  0  0  0  0  0  0  0  0
    9.4010   -2.0480    0.7460 C   0  0  0  0  0  0  0  0  0  0  0  0
   10.5210    0.0420   -0.1660 C   0  0  1  0  0  0  0  0  0  0  0  0
   11.6760   -0.6550   -0.5640 O   0  0  0  0  0  0  0  0  0  0  0  0
   12.6140   -0.9120    0.4460 C   0  0  1  0  0  0  0  0  0  0  0  0
   13.6220   -1.9030   -0.1650 C   0  0  0  0  0  0  0  0  0  0  0  0
   14.8290   -2.0270    0.7740 C   0  0  2  0  0  0  0  0  0  0  0  0
   14.3800   -2.5290    2.0080 O   0  0  0  0  0  0  0  0  0  0  0  0
   14.6530   -3.8870    2.2140 C   0  0  0  0  0  0  0  0  0  0  0  0
   15.3900   -0.6100    1.0460 C   0  0  2  0  0  0  0  0  0  0  0  0
   16.4040   -0.7950    1.9850 O   0  0  0  0  0  0  0  0  0  0  0  0
   14.2650    0.3010    1.6010 C   0  0  1  0  0  0  0  0  0  0  0  0
   14.7310    1.7500    1.7280 C   0  0  0  0  0  0  0  0  0  0  0  0
   13.2140    0.3420    0.6640 O   0  0  0  0  0  0  0  0  0  0  0  0
   10.3390    1.1940   -1.1870 C   0  0  2  0  0  0  0  0  0  0  0  0
   11.3030    2.1560   -0.8540 O   0  0  0  0  0  0  0  0  0  0  0  0
   11.9150    2.7720   -1.9560 C   0  0  0  0  0  0  0  0  0  0  0  0
    8.9520    1.8400   -0.9500 C   0  0  1  0  0  0  0  0  0  0  0  0
    8.7510    2.7160   -2.0140 O   0  0  0  0  0  0  0  0  0  0  0  0
    4.4120    1.5110   -1.0660 C   0  0  1  0  0  0  0  0  0  0  0  0
    4.6110    1.8420   -2.5440 C   0  0  0  0  0  0  0  0  0  0  0  0
    3.1830    0.8290   -1.0010 O   0  0  0  0  0  0  0  0  0  0  0  0
   -0.6640   -0.1630    0.5520 C   0  0  1  0  0  0  0  0  0  0  0  0
   -0.5260    0.2000    2.0300 C   0  0  0  0  0  0  0  0  0  0  0  0
   -1.8630    0.4430    0.1360 O   0  0  0  0  0  0  0  0  0  0  0  0
  1 33  1  0
  1  2  1  6
  1 72  1  0
  3  2  1  6
  3 32  1  0
  3  4  1  0
  4  5  1  0
  5  6  1  0
  6  7  1  6
  6  8  1  0
  6 12  1  0
  8 32  1  0
  8  9  2  0
  9 10  1  0
 11 10  1  1
 11 30  1  0
 11 12  1  0
 12 13  1  6
 13 14  1  0
 14 22  1  0
 14 15  1  6
 15 16  1  0
 16 18  1  0
 16 17  2  0
 18 19  1  0
 18 20  2  0
 20 21  1  0
 22 23  1  6
 22 30  1  0
 22 24  1  0
 24 25  1  6
 24 28  1  0
 25 26  1  0
 25 27  2  0
 28 29  1  0
 29 30  1  0
 30 31  1  6
 33 34  1  0
 34 35  1  1
 34 37  1  0
 35 36  1  0
 37 38  1  1
 37 70  1  0
 39 38  1  6
 39 69  1  0
 39 40  1  0
 40 41  1  0
 41 44  1  0
 41 42  1  1
 42 43  1  0
 44 67  1  0
 44 45  1  1
 46 45  1  1
 46 65  1  0
 46 47  1  0
 47 48  1  0
 48 50  1  0
 48 49  1  1
 50 62  1  0
 50 51  1  6
 52 51  1  6
 52 53  1  0
 52 61  1  0
 53 54  1  0
 54 57  1  0
 54 55  1  1
 55 56  1  0
 57 59  1  0
 57 58  1  1
 59 61  1  0
 59 60  1  6
 62 65  1  0
 62 63  1  1
 63 64  1  0
 65 66  1  6
 67 68  1  6
 67 69  1  0
 70 72  1  0
 70 71  1  1
M  END
>  <id>  (77) 
455

>  <scaffolds>  (77) 
['C1=C2CCCCC2C2CCC3CCCC3C2C1', 'C1=CCCCC1', 'C1=CCC2CCCCC2C1', 'C1CCOCC1', 'C1=C2CC(OC3CCCCO3)CCC2C2CCC3CCCC3C2C1', 'C1CCCCC1', 'C1=C2CC(OC3CCC(OC4CCC(OC5CCC(OC6CCCCO6)CO5)CO4)CO3)CCC2C2CCC3CCCC3C2C1', 'C1=C2CCCCC2CCC1', 'C1CCC(OC2CCCOC2)OC1', 'C1=C2CC(OC3CCC(OC4CCC(OC5CCCCO5)CO4)CO3)CCC2C2CCC3CCCC3C2C1']

>  <name>  (77) 
Pregn-5-en-20-one, 3-[(O-2,6-dideoxy-3-O-methyl-[beta]-D-ribo-hexopyranosyl-(1[to]4)-O-6-deoxy-3-O-methyl-[beta]-D-glucopyranosyl-(1[to]4)-O-2,6-dideoxy-3-O-methyl-[beta]-D-ribo-hexopyranosyl-(1[to]4)-2,6-dideoxy-3-O-methyl-[beta]-D-ribo-hexopyranosyl)oxy

>  <formula>  (77) 
C54H86O18

>  <SMILES>  (77) 
[H][C@]8(O[C@H]4CC[C@@]1(C)C(=CC[C@]2([H])[C@]1([H])C[C@@H](OC(=O)/C(C)=C/C)[C@]3(C)[C@@H](C(C)=O)CC[C@]23O)C4)C[C@H](OC)[C@H](O[C@@]7([H])C[C@H](OC)[C@H](O[C@]6([H])O[C@H](C)[C@@H](O[C@@]5([H])C[C@H](OC)[C@H](O)[C@@H](C)O5)[C@H](OC)[C@H]6O)[C@@H](C)O7)[C@@H](C)O8

>  <ChEMBL_id>  (77) 


>  <ZINC_id>  (77) 


>  <PubChem_id>  (77) 


>  <DrugBank_id>  (77) 


>  <CAS_no>  (77) 
957217-38-8

>  <references>  (77) 
[{'journal': {'name': 'Phytochemistry', 'id': 10}, 'title': 'An appetite suppressant from Hoodia species', 'year': 2007, 'start_page': 2545, 'volume': 68, 'issue': None, 'doi': '10.1016/j.phytochem.2007.05.022', 'isbn': '', 'despositor': {'code': 'DLP', 'first_name': 'David', 'last_name': 'Penkler', 'id': 23}, 'refauthors_set': [{'author': {'first_name': 'Fanie', 'initials': 'FR', 'last_name': 'Van Heerden', 'id': 634}, 'first_author': True, 'id': 956}, {'author': {'first_name': '', 'initials': 'R', 'last_name': 'Marthinus Horak', 'id': 695}, 'first_author': False, 'id': 957}, {'author': {'first_name': '', 'initials': 'VJ', 'last_name': 'Maharaj', 'id': 675}, 'first_author': False, 'id': 958}, {'author': {'first_name': 'Robert', 'initials': 'R', 'last_name': 'Vleggaar', 'id': 696}, 'first_author': False, 'id': 959}, {'author': {'first_name': '', 'initials': 'J', 'last_name': 'Senabe', 'id': 676}, 'first_author': False, 'id': 960}, {'author': {'first_name': 'Philip', 'initials': 'Pj', 'last_name': 'Gunning', 'id': 697}, 'first_author': False, 'id': 961}], 'id': 321}]

>  <classifications>  (77) 
[{'classification': 'Glycoside', 'id': 781}, {'classification': 'Pregnane', 'id': 813}, {'classification': 'Steroid', 'id': 835}, {'classification': 'Steroids and steroid derivatives (Classyfire)', 'id': 942}]

>  <molecular_mass>  (77) 
1023.25

>  <warheads>  (77) 
ab_unsat_carbonyl:1

>  <n_warheads>  (77) 
1

>  <max_tier>  (77) 
1

>  <pains_flag>  (77) 


>  <MW>  (77) 
1023.3

>  <cLogP>  (77) 
5.23

>  <HBD>  (77) 
3

>  <HBA>  (77) 
18

>  <TPSA>  (77) 
214.8

>  <ArRings>  (77) 
0

$$$$
SANC00456_minRM1.pdb
     RDKit          3D

 31 34  0  0  1  0  0  0  0  0999 V2000
    1.3940   -0.1490   -0.6190 C   0  0  1  0  0  0  0  0  0  0  0  0
    0.1800   -0.9220   -0.1140 C   0  0  0  0  0  0  0  0  0  0  0  0
   -1.1010   -0.1840   -0.5060 C   0  0  1  0  0  0  0  0  0  0  0  0
   -2.2160   -0.8740    0.0370 O   0  0  0  0  0  0  0  0  0  0  0  0
   -2.6100   -2.0380   -0.5350 C   0  0  0  0  0  0  0  0  0  0  0  0
   -2.0810   -2.4440   -1.5570 O   0  0  0  0  0  0  0  0  0  0  0  0
   -3.7230   -2.6800    0.1870 C   0  0  0  0  0  0  0  0  0  0  0  0
   -3.8550   -2.4370    1.6440 C   0  0  0  0  0  0  0  0  0  0  0  0
   -4.5690   -3.4480   -0.5120 C   0  0  0  0  0  0  0  0  0  0  0  0
   -5.7290   -4.1270    0.1130 C   0  0  0  0  0  0  0  0  0  0  0  0
   -1.1730    1.2440    0.0940 C   0  0  2  0  0  0  0  0  0  0  0  0
   -1.4680    1.2150    1.5840 C   0  0  0  0  0  0  0  0  0  0  0  0
   -2.2570    2.0250   -0.6880 C   0  0  1  0  0  0  0  0  0  0  0  0
   -2.7130    3.2670    0.0510 C   0  0  0  0  0  0  0  0  0  0  0  0
   -4.0420    3.1800    0.7520 C   0  0  0  0  0  0  0  0  0  0  0  0
   -2.0860    4.3080    0.0340 O   0  0  0  0  0  0  0  0  0  0  0  0
   -1.5840    2.4160   -2.0110 C   0  0  0  0  0  0  0  0  0  0  0  0
   -0.0750    2.3020   -1.7890 C   0  0  0  0  0  0  0  0  0  0  0  0
    0.1340    2.0040   -0.2830 C   0  0  1  0  0  0  0  0  0  0  0  0
    0.1430    3.1680    0.4850 O   0  0  0  0  0  0  0  0  0  0  0  0
    1.4620    1.2470    0.0070 C   0  0  1  0  0  0  0  0  0  0  0  0
    1.7520    1.2000    1.5050 C   0  0  0  0  0  0  0  0  0  0  0  0
    2.6310    2.0030   -0.6480 C   0  0  0  0  0  0  0  0  0  0  0  0
    3.8890    1.2180   -0.5750 C   0  0  0  0  0  0  0  0  0  0  0  0
    3.9140   -0.1130   -0.5050 C   0  0  0  0  0  0  0  0  0  0  0  0
    5.2220   -0.8380   -0.5220 C   0  0  0  0  0  0  0  0  0  0  0  0
    5.0920   -2.2360    0.1040 C   0  0  1  0  0  0  0  0  0  0  0  0
    6.3820   -2.5810    0.5260 O   0  0  0  0  0  0  0  0  0  0  0  0
    4.1250   -2.1520    1.2920 C   0  0  0  0  0  0  0  0  0  0  0  0
    2.7140   -1.8750    0.7850 C   0  0  0  0  0  0  0  0  0  0  0  0
    2.6910   -0.9670   -0.4560 C   0  0  1  0  0  0  0  0  0  0  0  0
  1 31  1  0
  1  2  1  1
  1 21  1  0
  2  3  1  0
  3  4  1  1
  3 11  1  0
  4  5  1  0
  5  6  2  0
  5  7  1  0
  7  9  2  0
  7  8  1  0
  9 10  1  0
 11 13  1  0
 11 19  1  0
 11 12  1  1
 13 17  1  0
 13 14  1  1
 14 16  2  0
 14 15  1  0
 17 18  1  0
 18 19  1  0
 19 21  1  0
 19 20  1  1
 21 23  1  0
 21 22  1  1
 23 24  1  0
 24 25  2  0
 25 26  1  0
 25 31  1  0
 26 27  1  0
 27 28  1  1
 27 29  1  0
 29 30  1  0
 31 30  1  1
M  END
>  <id>  (78) 
456

>  <scaffolds>  (78) 
['C1=C2CCCCC2C2CCC3CCCC3C2C1', 'C1=CCCCC1', 'C1=CCC2CCCCC2C1', 'C1CCCCC1', 'C1=C2CCCCC2CCC1']

>  <name>  (78) 
Pregn-5-en-20-one, 3,14-dihydroxy-12-[[(2E)-2-methyl-1-oxo-2-buten-1-yl]oxy]-, (3[beta],12[beta],14[beta])-

>  <formula>  (78) 
C26H38O5

>  <SMILES>  (78) 
[H][C@]24C[C@@H](OC(=O)/C(C)=C/C)[C@]1(C)[C@@H](C(C)=O)CC[C@]1(O)[C@]2(C)CC=C3C[C@@H](O)CCC34

>  <ChEMBL_id>  (78) 


>  <ZINC_id>  (78) 


>  <PubChem_id>  (78) 


>  <DrugBank_id>  (78) 


>  <CAS_no>  (78) 
742058-65-7

>  <references>  (78) 
[{'journal': {'name': 'Phytochemistry', 'id': 10}, 'title': 'An appetite suppressant from Hoodia species', 'year': 2007, 'start_page': 2545, 'volume': 68, 'issue': None, 'doi': '10.1016/j.phytochem.2007.05.022', 'isbn': '', 'despositor': {'code': 'DLP', 'first_name': 'David', 'last_name': 'Penkler', 'id': 23}, 'refauthors_set': [{'author': {'first_name': 'Fanie', 'initials': 'FR', 'last_name': 'Van Heerden', 'id': 634}, 'first_author': True, 'id': 956}, {'author': {'first_name': '', 'initials': 'R', 'last_name': 'Marthinus Horak', 'id': 695}, 'first_author': False, 'id': 957}, {'author': {'first_name': '', 'initials': 'VJ', 'last_name': 'Maharaj', 'id': 675}, 'first_author': False, 'id': 958}, {'author': {'first_name': 'Robert', 'initials': 'R', 'last_name': 'Vleggaar', 'id': 696}, 'first_author': False, 'id': 959}, {'author': {'first_name': '', 'initials': 'J', 'last_name': 'Senabe', 'id': 676}, 'first_author': False, 'id': 960}, {'author': {'first_name': 'Philip', 'initials': 'Pj', 'last_name': 'Gunning', 'id': 697}, 'first_author': False, 'id': 961}], 'id': 321}]

>  <classifications>  (78) 
[{'classification': 'Glycoside', 'id': 781}, {'classification': 'Pregnane', 'id': 813}, {'classification': 'Steroid', 'id': 835}, {'classification': 'Steroids and steroid derivatives (Classyfire)', 'id': 942}]

>  <molecular_mass>  (78) 
430.58

>  <warheads>  (78) 
ab_unsat_carbonyl:1

>  <n_warheads>  (78) 
1

>  <max_tier>  (78) 
1

>  <pains_flag>  (78) 


>  <MW>  (78) 
430.6

>  <cLogP>  (78) 
4.12

>  <HBD>  (78) 
2

>  <HBA>  (78) 
5

>  <TPSA>  (78) 
83.8

>  <ArRings>  (78) 
0

$$$$
SANC00459_minRM1.pdb
     RDKit          3D

 41 45  0  0  1  0  0  0  0  0999 V2000
    5.5380    0.3660   -0.3960 C   0  0  1  0  0  0  0  0  0  0  0  0
    4.3870    0.9270   -0.9610 O   0  0  0  0  0  0  0  0  0  0  0  0
    3.1650    0.5030   -0.3930 C   0  0  1  0  0  0  0  0  0  0  0  0
    2.2130    1.6960   -0.5260 C   0  0  0  0  0  0  0  0  0  0  0  0
    0.8360    1.2890   -0.0200 C   0  0  0  0  0  0  0  0  0  0  0  0
    0.2570    0.0800   -0.7790 C   0  0  1  0  0  0  0  0  0  0  0  0
    0.0370    0.4460   -2.2490 C   0  0  0  0  0  0  0  0  0  0  0  0
    1.2620   -1.0340   -0.7460 C   0  0  0  0  0  0  0  0  0  0  0  0
    0.9780   -2.2840   -0.3840 C   0  0  0  0  0  0  0  0  0  0  0  0
   -0.3670   -2.7110    0.0750 C   0  0  0  0  0  0  0  0  0  0  0  0
   -1.4540   -1.7640   -0.4330 C   0  0  2  0  0  0  0  0  0  0  0  0
   -1.0700   -0.3280   -0.0830 C   0  0  2  0  0  0  0  0  0  0  0  0
   -2.2080    0.6190   -0.4530 C   0  0  0  0  0  0  0  0  0  0  0  0
   -3.4670    0.2280    0.3220 C   0  0  1  0  0  0  0  0  0  0  0  0
   -4.5160    1.1210   -0.0170 O   0  0  0  0  0  0  0  0  0  0  0  0
   -4.5100    2.3710    0.5100 C   0  0  0  0  0  0  0  0  0  0  0  0
   -3.6590    2.7050    1.3180 O   0  0  0  0  0  0  0  0  0  0  0  0
   -5.6260    3.2010    0.0210 C   0  0  0  0  0  0  0  0  0  0  0  0
   -6.1740    2.9160   -1.3220 C   0  0  0  0  0  0  0  0  0  0  0  0
   -6.1020    4.1540    0.8310 C   0  0  0  0  0  0  0  0  0  0  0  0
   -7.2280    5.0380    0.4440 C   0  0  0  0  0  0  0  0  0  0  0  0
   -3.9700   -1.1710   -0.1090 C   0  0  2  0  0  0  0  0  0  0  0  0
   -4.4300   -1.1690   -1.5560 C   0  0  0  0  0  0  0  0  0  0  0  0
   -5.0690   -1.6110    0.8820 C   0  0  1  0  0  0  0  0  0  0  0  0
   -6.0120   -2.6300    0.2730 C   0  0  0  0  0  0  0  0  0  0  0  0
   -7.2430   -2.1100   -0.4150 C   0  0  0  0  0  0  0  0  0  0  0  0
   -5.8260   -3.8310    0.3570 O   0  0  0  0  0  0  0  0  0  0  0  0
   -4.3110   -2.1780    2.0950 C   0  0  0  0  0  0  0  0  0  0  0  0
   -2.8540   -2.3810    1.6750 C   0  0  0  0  0  0  0  0  0  0  0  0
   -2.8220   -2.1920    0.1450 C   0  0  2  0  0  0  0  0  0  0  0  0
   -3.1210   -3.3740   -0.5380 O   0  0  0  0  0  0  0  0  0  0  0  0
    2.6320   -0.6750   -1.2180 C   0  0  0  0  0  0  0  0  0  0  0  0
    6.6920    0.7250   -1.3490 C   0  0  0  0  0  0  0  0  0  0  0  0
    8.0290    0.4180   -0.6640 C   0  0  2  0  0  0  0  0  0  0  0  0
    8.0900   -0.9560   -0.3790 O   0  0  0  0  0  0  0  0  0  0  0  0
    8.7910   -1.7070   -1.3290 C   0  0  0  0  0  0  0  0  0  0  0  0
    8.0590    1.1520    0.6970 C   0  0  2  0  0  0  0  0  0  0  0  0
    9.2530    0.7620    1.3050 O   0  0  0  0  0  0  0  0  0  0  0  0
    6.8280    0.7300    1.5410 C   0  0  1  0  0  0  0  0  0  0  0  0
    6.7380    1.5300    2.8360 C   0  0  0  0  0  0  0  0  0  0  0  0
    5.6600    1.0580    0.8280 O   0  0  0  0  0  0  0  0  0  0  0  0
  1 33  1  0
  1  2  1  6
  1 41  1  0
  3  2  1  6
  3 32  1  0
  3  4  1  0
  4  5  1  0
  5  6  1  0
  6  7  1  6
  6  8  1  0
  6 12  1  0
  8 32  1  0
  8  9  2  0
  9 10  1  0
 11 10  1  1
 11 12  1  0
 11 30  1  0
 12 13  1  6
 13 14  1  0
 14 22  1  0
 14 15  1  6
 15 16  1  0
 16 18  1  0
 16 17  2  0
 18 19  1  0
 18 20  2  0
 20 21  1  0
 22 23  1  6
 22 30  1  0
 22 24  1  0
 24 25  1  6
 24 28  1  0
 25 26  1  0
 25 27  2  0
 28 29  1  0
 29 30  1  0
 30 31  1  6
 33 34  1  0
 34 35  1  1
 34 37  1  0
 35 36  1  0
 37 38  1  1
 37 39  1  0
 39 41  1  0
 39 40  1  1
M  END
>  <id>  (79) 
459

>  <scaffolds>  (79) 
['C1=C2CCCCC2C2CCC3CCCC3C2C1', 'C1=CCCCC1', 'C1=CCC2CCCCC2C1', 'C1CCOCC1', 'C1=C2CC(OC3CCCCO3)CCC2C2CCC3CCCC3C2C1', 'C1CCCCC1', 'C1=C2CCCCC2CCC1']

>  <name>  (79) 
Pregn-5-en-20-one, 3-[(2,6-dideoxy-3-O-methyl-[beta]-D-ribo-hexopyranosyl)oxy]-14-hydroxy-12-[[(2E)-2-methyl-1-oxo-2-buten-1-yl]oxy]-, (3[beta],12[beta],14[beta])-

>  <formula>  (79) 
C33H50O8

>  <SMILES>  (79) 
[H][C@]5(O[C@H]4CC[C@@]1(C)C(=CC[C@]2([H])[C@]1([H])C[C@@H](OC(=O)/C(C)=C/C)[C@]3(C)[C@@H](C(C)=O)CC[C@]23O)C4)C[C@H](OC)[C@H](O)[C@@H](C)O5

>  <ChEMBL_id>  (79) 


>  <ZINC_id>  (79) 


>  <PubChem_id>  (79) 


>  <DrugBank_id>  (79) 


>  <CAS_no>  (79) 
957217-39-9

>  <references>  (79) 
[{'journal': {'name': 'Phytochemistry', 'id': 10}, 'title': 'An appetite suppressant from Hoodia species', 'year': 2007, 'start_page': 2545, 'volume': 68, 'issue': None, 'doi': '10.1016/j.phytochem.2007.05.022', 'isbn': '', 'despositor': {'code': 'DLP', 'first_name': 'David', 'last_name': 'Penkler', 'id': 23}, 'refauthors_set': [{'author': {'first_name': 'Fanie', 'initials': 'FR', 'last_name': 'Van Heerden', 'id': 634}, 'first_author': True, 'id': 956}, {'author': {'first_name': '', 'initials': 'R', 'last_name': 'Marthinus Horak', 'id': 695}, 'first_author': False, 'id': 957}, {'author': {'first_name': '', 'initials': 'VJ', 'last_name': 'Maharaj', 'id': 675}, 'first_author': False, 'id': 958}, {'author': {'first_name': 'Robert', 'initials': 'R', 'last_name': 'Vleggaar', 'id': 696}, 'first_author': False, 'id': 959}, {'author': {'first_name': '', 'initials': 'J', 'last_name': 'Senabe', 'id': 676}, 'first_author': False, 'id': 960}, {'author': {'first_name': 'Philip', 'initials': 'Pj', 'last_name': 'Gunning', 'id': 697}, 'first_author': False, 'id': 961}], 'id': 321}]

>  <classifications>  (79) 
[{'classification': 'Glycoside', 'id': 781}, {'classification': 'Pregnane', 'id': 813}, {'classification': 'Steroid', 'id': 835}, {'classification': 'Steroids and steroid derivatives (Classyfire)', 'id': 942}]

>  <molecular_mass>  (79) 
574.74

>  <warheads>  (79) 
ab_unsat_carbonyl:1

>  <n_warheads>  (79) 
1

>  <max_tier>  (79) 
1

>  <pains_flag>  (79) 


>  <MW>  (79) 
574.8

>  <cLogP>  (79) 
4.65

>  <HBD>  (79) 
2

>  <HBA>  (79) 
8

>  <TPSA>  (79) 
111.5

>  <ArRings>  (79) 
0

$$$$
SANC00469_minRM1.pdb
     RDKit          3D

 12 12  0  0  0  0  0  0  0  0999 V2000
    3.8610   -1.1060   -0.0100 O   0  0  0  0  0  0  0  0  0  0  0  0
    3.3610    0.0100   -0.0080 C   0  0  0  0  0  0  0  0  0  0  0  0
    4.1720    1.0920   -0.0060 O   0  0  0  0  0  0  0  0  0  0  0  0
    1.9420    0.3630    0.0080 C   0  0  0  0  0  0  0  0  0  0  0  0
    1.0160   -0.6050    0.0080 C   0  0  0  0  0  0  0  0  0  0  0  0
   -0.4130   -0.3300    0.0100 C   0  0  0  0  0  0  0  0  0  0  0  0
   -0.8990    0.9790    0.0030 C   0  0  0  0  0  0  0  0  0  0  0  0
   -2.2630    1.2260   -0.0160 C   0  0  0  0  0  0  0  0  0  0  0  0
   -3.1410    0.1430   -0.0260 C   0  0  0  0  0  0  0  0  0  0  0  0
   -4.4870    0.3390    0.0440 O   0  0  0  0  0  0  0  0  0  0  0  0
   -2.6770   -1.1730   -0.0040 C   0  0  0  0  0  0  0  0  0  0  0  0
   -1.3110   -1.4010    0.0110 C   0  0  0  0  0  0  0  0  0  0  0  0
  1  2  2  0
  2  3  1  0
  2  4  1  0
  4  5  2  0
  5  6  1  0
  6  7  1  0
  6 12  2  0
  7  8  2  0
  8  9  1  0
  9 11  2  0
  9 10  1  0
 11 12  1  0
M  END
>  <id>  (80) 
469

>  <scaffolds>  (80) 
['c1ccccc1']

>  <name>  (80) 
Trans-3-(4'-hydroxyphenyl)-2-propenoic acid

>  <formula>  (80) 
C9H8O3

>  <SMILES>  (80) 
O=C(O)/C=C/c1ccc(O)cc1

>  <ChEMBL_id>  (80) 
CHEMBL66879

>  <ZINC_id>  (80) 
ZINC00039811

>  <PubChem_id>  (80) 
 637542

>  <DrugBank_id>  (80) 
DB04066

>  <CAS_no>  (80) 
501-98-4

>  <references>  (80) 
[{'journal': {'name': 'Phytochemistry', 'id': 10}, 'title': 'Bufadienolides from Drimia robusta and Urginea epigea (Hyacinthaceae)', 'year': 2004, 'start_page': 3069, 'volume': 65, 'issue': 23, 'doi': '10.1016/j.phytochem.2004.08.051', 'isbn': '', 'despositor': {'code': 'rah', 'first_name': 'Rowan', 'last_name': 'Hatherley', 'id': 20}, 'refauthors_set': [{'author': {'first_name': 'Neil', 'initials': 'NA', 'last_name': 'Koorbanally', 'id': 699}, 'first_author': True, 'id': 971}, {'author': {'first_name': 'Chantal', 'initials': 'C', 'last_name': 'Koorbanally', 'id': 523}, 'first_author': None, 'id': 972}, {'author': {'first_name': 'Avinash', 'initials': 'A', 'last_name': 'Harilal', 'id': 624}, 'first_author': None, 'id': 973}, {'author': {'first_name': 'Dulcie', 'initials': 'DA', 'last_name': 'Mulholland', 'id': 525}, 'first_author': None, 'id': 974}, {'author': {'first_name': 'Neil', 'initials': 'NR', 'last_name': 'Crouch', 'id': 524}, 'first_author': None, 'id': 975}], 'id': 324}]

>  <classifications>  (80) 
[{'classification': 'Aromatic acid', 'id': 744}, {'classification': 'Cinnamic acids and derivatives (Classyfire)', 'id': 975}]

>  <molecular_mass>  (80) 
164.16

>  <warheads>  (80) 
ab_unsat_carbonyl:1

>  <n_warheads>  (80) 
1

>  <max_tier>  (80) 
1

>  <pains_flag>  (80) 


>  <MW>  (80) 
164.2

>  <cLogP>  (80) 
1.49

>  <HBD>  (80) 
2

>  <HBA>  (80) 
2

>  <TPSA>  (80) 
57.5

>  <ArRings>  (80) 
1

$$$$
SANC00518_minRM1.pdb
     RDKit          3D

 44 49  0  0  1  0  0  0  0  0999 V2000
    0.4270   -1.3150   -0.1910 C   0  0  2  0  0  0  0  0  0  0  0  0
    1.2580   -2.5070    0.2700 C   0  0  0  0  0  0  0  0  0  0  0  0
    2.6630   -2.4050   -0.3200 C   0  0  0  0  0  0  0  0  0  0  0  0
    3.3800   -1.1380    0.1670 C   0  0  2  0  0  0  0  0  0  0  0  0
    3.6760   -1.3290    1.6560 C   0  0  0  0  0  0  0  0  0  0  0  0
    2.4850    0.0870   -0.1160 C   0  0  2  0  0  0  0  0  0  0  0  0
    3.1470    1.3690    0.3860 C   0  0  0  0  0  0  0  0  0  0  0  0
    4.5170    1.5650   -0.2510 C   0  0  0  0  0  0  0  0  0  0  0  0
    5.3980    0.3430   -0.0140 C   0  0  2  0  0  0  0  0  0  0  0  0
    6.7660    0.5230   -0.6480 C   0  0  1  0  0  0  0  0  0  0  0  0
    7.6040    1.7860   -0.4070 C   0  0  1  0  0  0  0  0  0  0  0  0
    7.5610    2.5100    0.8990 C   0  0  0  0  0  0  0  0  0  0  0  0
    6.9520    2.1270    2.0140 C   0  0  0  0  0  0  0  0  0  0  0  0
    8.2660    3.8270    0.8830 C   0  0  0  0  0  0  0  0  0  0  0  0
    9.0530    1.3120   -0.6940 C   0  0  0  0  0  0  0  0  0  0  0  0
    8.9980   -0.1910   -1.0030 C   0  0  0  0  0  0  0  0  0  0  0  0
    7.6960   -0.6590   -0.3370 C   0  0  1  0  0  0  0  0  0  0  0  0
    7.9790   -0.8830    1.1430 C   0  0  0  0  0  0  0  0  0  0  0  0
    7.0780   -1.9180   -0.9350 C   0  0  0  0  0  0  0  0  0  0  0  0
    5.6690   -2.1380   -0.3850 C   0  0  0  0  0  0  0  0  0  0  0  0
    4.7340   -0.9310   -0.5900 C   0  0  1  0  0  0  0  0  0  0  0  0
    4.5030   -0.7910   -2.0980 C   0  0  0  0  0  0  0  0  0  0  0  0
    1.0250   -0.0270    0.3990 C   0  0  2  0  0  0  0  0  0  0  0  0
    0.9710    0.0230    1.9190 C   0  0  0  0  0  0  0  0  0  0  0  0
    0.2250    1.1670   -0.1540 C   0  0  0  0  0  0  0  0  0  0  0  0
   -1.2610    1.0360    0.1440 C   0  0  0  0  0  0  0  0  0  0  0  0
   -1.7990   -0.2520   -0.4790 C   0  0  2  0  0  0  0  0  0  0  0  0
   -3.1640   -0.3990   -0.1210 O   0  0  0  0  0  0  0  0  0  0  0  0
   -4.0880    0.3370   -0.7920 C   0  0  0  0  0  0  0  0  0  0  0  0
   -3.7660    1.0680   -1.7180 O   0  0  0  0  0  0  0  0  0  0  0  0
   -5.4420    0.1250   -0.2660 C   0  0  0  0  0  0  0  0  0  0  0  0
   -6.4900    0.6670   -0.8960 C   0  0  0  0  0  0  0  0  0  0  0  0
   -7.8640    0.5180   -0.4370 C   0  0  0  0  0  0  0  0  0  0  0  0
   -8.1660   -0.1440    0.7500 C   0  0  0  0  0  0  0  0  0  0  0  0
   -9.4820   -0.2800    1.1790 C   0  0  0  0  0  0  0  0  0  0  0  0
  -10.5060    0.2700    0.4210 C   0  0  0  0  0  0  0  0  0  0  0  0
  -11.8380    0.2180    0.7130 O   0  0  0  0  0  0  0  0  0  0  0  0
  -12.2020   -0.3290    1.9540 C   0  0  0  0  0  0  0  0  0  0  0  0
  -10.2070    0.9590   -0.7720 C   0  0  0  0  0  0  0  0  0  0  0  0
  -11.1510    1.4820   -1.5940 O   0  0  0  0  0  0  0  0  0  0  0  0
   -8.8910    1.0710   -1.2060 C   0  0  0  0  0  0  0  0  0  0  0  0
   -1.0820   -1.5130    0.0620 C   0  0  0  0  0  0  0  0  0  0  0  0
   -1.5570   -2.7190   -0.7620 C   0  0  0  0  0  0  0  0  0  0  0  0
   -1.4370   -1.7910    1.5170 C   0  0  0  0  0  0  0  0  0  0  0  0
  1 42  1  0
  1  2  1  1
  1 23  1  0
  2  3  1  0
  3  4  1  0
  4 21  1  0
  4  6  1  0
  4  5  1  1
  6  7  1  1
  6 23  1  0
  7  8  1  0
  9  8  1  6
  9 10  1  0
  9 21  1  0
 10 11  1  1
 10 17  1  0
 11 15  1  0
 11 12  1  1
 12 14  1  0
 12 13  2  0
 15 16  1  0
 16 17  1  0
 17 19  1  0
 17 18  1  1
 19 20  1  0
 20 21  1  0
 21 22  1  6
 23 25  1  0
 23 24  1  1
 25 26  1  0
 26 27  1  0
 27 28  1  1
 27 42  1  0
 28 29  1  0
 29 30  2  0
 29 31  1  0
 31 32  2  0
 32 33  1  0
 33 41  2  0
 33 34  1  0
 34 35  2  0
 35 36  1  0
 36 39  2  0
 36 37  1  0
 37 38  1  0
 39 40  1  0
 39 41  1  0
 42 43  1  0
 42 44  1  0
M  END
>  <id>  (81) 
518

>  <scaffolds>  (81) 
['c1ccccc1', 'C1CCC2C(C1)CCC1C2CCC2C3CCCC3CCC21', 'C1CCC(C2CCCC2)CC1', 'C1CCCCC1', 'O=C(C=Cc1ccccc1)OC1CCC2C(CCC3C2CCC2C4CCCC4CCC23)C1', 'C1CCC2C(C1)CCC1C3CCCC3CCC21', 'O=C(C=Cc1ccccc1)OC1CCCCC1', 'C1CCC2CCCCC2C1']

>  <name>  (81) 
20(29)-lupene-3[beta]-isoferulate

>  <formula>  (81) 
C40H58O4

>  <SMILES>  (81) 
[H][C@@]46CC[C@]3(C)[C@]([H])(CC[C@]2([H])[C@@]1([H])C(C(=C)C)CC[C@]1(C)CC[C@]23C)[C@@]4(C)CC[C@H](OC(=O)/C=C/c5ccc(OC)c(O)c5)C6(C)C

>  <ChEMBL_id>  (81) 


>  <ZINC_id>  (81) 


>  <PubChem_id>  (81) 


>  <DrugBank_id>  (81) 


>  <CAS_no>  (81) 
816429-13-7

>  <references>  (81) 
[{'journal': {'name': 'Journal of Natural Products', 'id': 5}, 'title': 'Antibacterial Activity of Naphthoquinones and Triterpenoids from Euclea natalensis Root Bark', 'year': 2004, 'start_page': 1936, 'volume': 67, 'issue': 11, 'doi': '10.1021/np030465d', 'isbn': '', 'despositor': {'code': 'NFA', 'first_name': 'Ngonidzashe', 'last_name': 'Faya', 'id': 21}, 'refauthors_set': [{'author': {'first_name': 'Oliver', 'initials': 'O', 'last_name': 'Weigenand', 'id': 715}, 'first_author': True, 'id': 1044}, {'author': {'first_name': 'Ahmed', 'initials': 'AA', 'last_name': 'Hussein', 'id': 440}, 'first_author': None, 'id': 1123}, {'author': {'first_name': 'Namrita', 'initials': 'N', 'last_name': 'Lall', 'id': 441}, 'first_author': None, 'id': 1124}, {'author': {'first_name': 'Jacobus', 'initials': 'JM', 'last_name': 'Meyer', 'id': 716}, 'first_author': None, 'id': 1125}], 'id': 346}]

>  <classifications>  (81) 
[{'classification': 'Terpenoid', 'id': 839}, {'classification': 'Triterpene', 'id': 842}, {'classification': 'Phenol lipids (Classyfire)', 'id': 951}]

>  <molecular_mass>  (81) 
602.88

>  <warheads>  (81) 
ab_unsat_carbonyl:1

>  <n_warheads>  (81) 
1

>  <max_tier>  (81) 
1

>  <pains_flag>  (81) 


>  <MW>  (81) 
602.9

>  <cLogP>  (81) 
10.0

>  <HBD>  (81) 
1

>  <HBA>  (81) 
4

>  <TPSA>  (81) 
55.8

>  <ArRings>  (81) 
1

$$$$
SANC00519_minRM1.pdb
     RDKit          3D

 21 22  0  0  0  0  0  0  0  0999 V2000
    5.7410   -0.9680   -1.0140 C   0  0  0  0  0  0  0  0  0  0  0  0
    5.2270   -0.5420    0.2300 O   0  0  0  0  0  0  0  0  0  0  0  0
    4.0040    0.0580    0.1030 C   0  0  0  0  0  0  0  0  0  0  0  0
    3.9170    1.4450    0.0750 C   0  0  0  0  0  0  0  0  0  0  0  0
    5.0040    2.2580    0.1040 O   0  0  0  0  0  0  0  0  0  0  0  0
    2.6680    2.0780    0.0680 C   0  0  0  0  0  0  0  0  0  0  0  0
    1.5260    1.3070    0.0750 C   0  0  0  0  0  0  0  0  0  0  0  0
    1.5720   -0.0920    0.0760 C   0  0  0  0  0  0  0  0  0  0  0  0
    0.3350   -0.8860    0.0490 C   0  0  0  0  0  0  0  0  0  0  0  0
    0.3980   -2.1130    0.0140 O   0  0  0  0  0  0  0  0  0  0  0  0
   -0.9560   -0.1780    0.0410 C   0  0  0  0  0  0  0  0  0  0  0  0
   -2.1310   -0.8180    0.0440 C   0  0  0  0  0  0  0  0  0  0  0  0
   -3.4110   -0.1160   -0.0080 C   0  0  0  0  0  0  0  0  0  0  0  0
   -3.4800    1.2790   -0.0300 C   0  0  0  0  0  0  0  0  0  0  0  0
   -4.7040    1.9260   -0.1540 C   0  0  0  0  0  0  0  0  0  0  0  0
   -5.8860    1.2000   -0.1660 C   0  0  0  0  0  0  0  0  0  0  0  0
   -5.8110   -0.1910   -0.0860 C   0  0  0  0  0  0  0  0  0  0  0  0
   -6.9600   -0.9140    0.0390 O   0  0  0  0  0  0  0  0  0  0  0  0
   -4.5910   -0.8610   -0.0210 C   0  0  0  0  0  0  0  0  0  0  0  0
    2.8280   -0.7170    0.0950 C   0  0  0  0  0  0  0  0  0  0  0  0
    3.0410   -2.0470    0.1200 O   0  0  0  0  0  0  0  0  0  0  0  0
  1  2  1  0
  2  3  1  0
  3  4  2  0
  3 20  1  0
  4  6  1  0
  4  5  1  0
  6  7  2  0
  7  8  1  0
  8  9  1  0
  8 20  2  0
  9 10  2  0
  9 11  1  0
 11 12  2  0
 12 13  1  0
 13 14  2  0
 13 19  1  0
 14 15  1  0
 15 16  2  0
 16 17  1  0
 17 19  2  0
 17 18  1  0
 20 21  1  0
M  END
>  <id>  (82) 
519

>  <scaffolds>  (82) 
['c1ccccc1', 'O=C(C=Cc1ccccc1)c1ccccc1', 'C(=Cc1ccccc1)Cc1ccccc1']

>  <name>  (82) 
(E)-3,2',4'-Trihydroxy-3'-methoxychalcone

>  <formula>  (82) 
C16H14O5

>  <SMILES>  (82) 
COc2c(O)ccc(C(=O)/C=C/c1cccc(O)c1)c2O

>  <ChEMBL_id>  (82) 


>  <ZINC_id>  (82) 


>  <PubChem_id>  (82) 


>  <DrugBank_id>  (82) 


>  <CAS_no>  (82) 
1196896-74-8

>  <references>  (82) 
[{'journal': {'name': 'Journal of Natural Products', 'id': 5}, 'title': 'Antimycobacterial Flavonoids from the Leaf Extract of Galenia africana', 'year': 2009, 'start_page': 2169, 'volume': 72, 'issue': 12, 'doi': '10.1021/np800778b', 'isbn': '', 'despositor': {'code': 'NFA', 'first_name': 'Ngonidzashe', 'last_name': 'Faya', 'id': 21}, 'refauthors_set': [{'author': {'first_name': 'Sannah', 'initials': 'SPN', 'last_name': 'Mativandlela', 'id': 717}, 'first_author': True, 'id': 1045}, {'author': {'first_name': 'Tshilidzi', 'initials': 'T', 'last_name': 'Muthivhi', 'id': 562}, 'first_author': None, 'id': 1126}, {'author': {'first_name': 'Haruhisa', 'initials': 'H', 'last_name': 'Kikuchi', 'id': 718}, 'first_author': None, 'id': 1127}, {'author': {'first_name': 'Yoshiteru', 'initials': 'Y', 'last_name': 'Oshima', 'id': 719}, 'first_author': None, 'id': 1128}, {'author': {'first_name': 'Chris', 'initials': 'C', 'last_name': 'Hamilton', 'id': 720}, 'first_author': None, 'id': 1129}, {'author': {'first_name': 'Ahmed', 'initials': 'AA', 'last_name': 'Hussein', 'id': 440}, 'first_author': None, 'id': 1130}, {'author': {'first_name': 'Martha', 'initials': 'ML', 'last_name': 'van der Walt', 'id': 721}, 'first_author': None, 'id': 1131}, {'author': {'first_name': 'Namrita', 'initials': 'N', 'last_name': 'Lall', 'id': 441}, 'first_author': None, 'id': 1132}], 'id': 347}]

>  <classifications>  (82) 
[{'classification': 'Flavonoids', 'id': 776}, {'classification': 'Linear 1,3-diarylpropanoids (Classyfire)', 'id': 943}]

>  <molecular_mass>  (82) 
286.28

>  <warheads>  (82) 
ab_unsat_carbonyl:1

>  <n_warheads>  (82) 
1

>  <max_tier>  (82) 
1

>  <pains_flag>  (82) 


>  <MW>  (82) 
286.3

>  <cLogP>  (82) 
2.71

>  <HBD>  (82) 
3

>  <HBA>  (82) 
5

>  <TPSA>  (82) 
87.0

>  <ArRings>  (82) 
2

$$$$
SANC00521_minRM1.pdb
     RDKit          3D

 19 20  0  0  0  0  0  0  0  0999 V2000
   -0.9760   -2.2010   -0.1200 O   0  0  0  0  0  0  0  0  0  0  0  0
   -0.9450   -0.9660   -0.0750 C   0  0  0  0  0  0  0  0  0  0  0  0
    0.3220   -0.2300   -0.0390 C   0  0  0  0  0  0  0  0  0  0  0  0
    1.5100   -0.8460   -0.0370 C   0  0  0  0  0  0  0  0  0  0  0  0
    2.7680   -0.1100   -0.0120 C   0  0  0  0  0  0  0  0  0  0  0  0
    2.7870    1.2850   -0.0070 C   0  0  0  0  0  0  0  0  0  0  0  0
    3.9920    1.9760    0.0050 C   0  0  0  0  0  0  0  0  0  0  0  0
    5.1960    1.2880    0.0200 C   0  0  0  0  0  0  0  0  0  0  0  0
    5.1680   -0.1070    0.0230 C   0  0  0  0  0  0  0  0  0  0  0  0
    6.3210   -0.8320   -0.0390 O   0  0  0  0  0  0  0  0  0  0  0  0
    3.9700   -0.8180    0.0060 C   0  0  0  0  0  0  0  0  0  0  0  0
   -2.2010   -0.2220   -0.0570 C   0  0  0  0  0  0  0  0  0  0  0  0
   -2.2350    1.1740    0.0400 C   0  0  0  0  0  0  0  0  0  0  0  0
   -3.4270    1.8630    0.0400 C   0  0  0  0  0  0  0  0  0  0  0  0
   -4.6250    1.1350   -0.0630 C   0  0  0  0  0  0  0  0  0  0  0  0
   -5.7530    1.8850   -0.0360 O   0  0  0  0  0  0  0  0  0  0  0  0
   -4.6480   -0.2490   -0.1410 C   0  0  0  0  0  0  0  0  0  0  0  0
   -3.4170   -0.9250   -0.1310 C   0  0  0  0  0  0  0  0  0  0  0  0
   -3.4950   -2.2580   -0.2180 O   0  0  0  0  0  0  0  0  0  0  0  0
  1  2  2  0
  2 12  1  0
  2  3  1  0
  3  4  2  0
  4  5  1  0
  5  6  2  0
  5 11  1  0
  6  7  1  0
  7  8  2  0
  8  9  1  0
  9 10  1  0
  9 11  2  0
 12 18  2  0
 12 13  1  0
 13 14  2  0
 14 15  1  0
 15 17  2  0
 15 16  1  0
 17 18  1  0
 18 19  1  0
M  END
>  <id>  (83) 
521

>  <scaffolds>  (83) 
['c1ccccc1', 'O=C(C=Cc1ccccc1)c1ccccc1', 'C(=Cc1ccccc1)Cc1ccccc1']

>  <name>  (83) 
(E)-3,2',4'-Trihydroxychalcone

>  <formula>  (83) 
C15H12O4

>  <SMILES>  (83) 
O=C(/C=C/c1cccc(O)c1)c2ccc(O)cc2O

>  <ChEMBL_id>  (83) 


>  <ZINC_id>  (83) 


>  <PubChem_id>  (83) 


>  <DrugBank_id>  (83) 


>  <CAS_no>  (83) 
34000-37-8

>  <references>  (83) 
[{'journal': {'name': 'Journal of Natural Products', 'id': 5}, 'title': 'Antimycobacterial Flavonoids from the Leaf Extract of Galenia africana', 'year': 2009, 'start_page': 2169, 'volume': 72, 'issue': 12, 'doi': '10.1021/np800778b', 'isbn': '', 'despositor': {'code': 'NFA', 'first_name': 'Ngonidzashe', 'last_name': 'Faya', 'id': 21}, 'refauthors_set': [{'author': {'first_name': 'Sannah', 'initials': 'SPN', 'last_name': 'Mativandlela', 'id': 717}, 'first_author': True, 'id': 1045}, {'author': {'first_name': 'Tshilidzi', 'initials': 'T', 'last_name': 'Muthivhi', 'id': 562}, 'first_author': None, 'id': 1126}, {'author': {'first_name': 'Haruhisa', 'initials': 'H', 'last_name': 'Kikuchi', 'id': 718}, 'first_author': None, 'id': 1127}, {'author': {'first_name': 'Yoshiteru', 'initials': 'Y', 'last_name': 'Oshima', 'id': 719}, 'first_author': None, 'id': 1128}, {'author': {'first_name': 'Chris', 'initials': 'C', 'last_name': 'Hamilton', 'id': 720}, 'first_author': None, 'id': 1129}, {'author': {'first_name': 'Ahmed', 'initials': 'AA', 'last_name': 'Hussein', 'id': 440}, 'first_author': None, 'id': 1130}, {'author': {'first_name': 'Martha', 'initials': 'ML', 'last_name': 'van der Walt', 'id': 721}, 'first_author': None, 'id': 1131}, {'author': {'first_name': 'Namrita', 'initials': 'N', 'last_name': 'Lall', 'id': 441}, 'first_author': None, 'id': 1132}], 'id': 347}]

>  <classifications>  (83) 
[{'classification': 'Flavonoids', 'id': 776}, {'classification': 'Linear 1,3-diarylpropanoids (Classyfire)', 'id': 943}]

>  <molecular_mass>  (83) 
256.25

>  <warheads>  (83) 
ab_unsat_carbonyl:1

>  <n_warheads>  (83) 
1

>  <max_tier>  (83) 
1

>  <pains_flag>  (83) 


>  <MW>  (83) 
256.3

>  <cLogP>  (83) 
2.7

>  <HBD>  (83) 
3

>  <HBA>  (83) 
4

>  <TPSA>  (83) 
77.8

>  <ArRings>  (83) 
2

$$$$
SANC00522_minRM1.pdb
     RDKit          3D

 18 19  0  0  0  0  0  0  0  0999 V2000
   -0.5420   -2.2760   -0.0810 O   0  0  0  0  0  0  0  0  0  0  0  0
   -0.5260   -1.0500   -0.0310 C   0  0  0  0  0  0  0  0  0  0  0  0
    0.7480   -0.3130    0.0050 C   0  0  0  0  0  0  0  0  0  0  0  0
    1.9320   -0.9380   -0.0100 C   0  0  0  0  0  0  0  0  0  0  0  0
    3.2020   -0.2180   -0.0150 C   0  0  0  0  0  0  0  0  0  0  0  0
    3.2430    1.1770   -0.0090 C   0  0  0  0  0  0  0  0  0  0  0  0
    4.4610    1.8430   -0.0050 C   0  0  0  0  0  0  0  0  0  0  0  0
    5.6490    1.1240   -0.0060 C   0  0  0  0  0  0  0  0  0  0  0  0
    5.6160   -0.2660   -0.0190 C   0  0  0  0  0  0  0  0  0  0  0  0
    4.4000   -0.9360   -0.0100 C   0  0  0  0  0  0  0  0  0  0  0  0
   -1.7860   -0.2860   -0.0150 C   0  0  0  0  0  0  0  0  0  0  0  0
   -1.7760    1.1130    0.0050 C   0  0  0  0  0  0  0  0  0  0  0  0
   -2.9480    1.8440   -0.0020 C   0  0  0  0  0  0  0  0  0  0  0  0
   -4.1680    1.1610   -0.0060 C   0  0  0  0  0  0  0  0  0  0  0  0
   -5.3310    1.8720    0.0710 O   0  0  0  0  0  0  0  0  0  0  0  0
   -4.2330   -0.2230   -0.0210 C   0  0  0  0  0  0  0  0  0  0  0  0
   -3.0280   -0.9380   -0.0330 C   0  0  0  0  0  0  0  0  0  0  0  0
   -3.1860   -2.2800    0.0190 O   0  0  0  0  0  0  0  0  0  0  0  0
  1  2  2  0
  2 11  1  0
  2  3  1  0
  3  4  2  0
  4  5  1  0
  5 10  1  0
  5  6  2  0
  6  7  1  0
  7  8  2  0
  8  9  1  0
  9 10  2  0
 11 17  2  0
 11 12  1  0
 12 13  2  0
 13 14  1  0
 14 16  2  0
 14 15  1  0
 16 17  1  0
 17 18  1  0
M  END
>  <id>  (84) 
522

>  <scaffolds>  (84) 
['c1ccccc1', 'O=C(C=Cc1ccccc1)c1ccccc1', 'C(=Cc1ccccc1)Cc1ccccc1']

>  <name>  (84) 
(E)-2',4'-Dihydroxychalcone

>  <formula>  (84) 
C15H12O3

>  <SMILES>  (84) 
O=C(/C=C/c1ccccc1)c2ccc(O)cc2O

>  <ChEMBL_id>  (84) 


>  <ZINC_id>  (84) 


>  <PubChem_id>  (84) 


>  <DrugBank_id>  (84) 


>  <CAS_no>  (84) 
25515-43-9

>  <references>  (84) 
[{'journal': {'name': 'Journal of Natural Products', 'id': 5}, 'title': 'Antimycobacterial Flavonoids from the Leaf Extract of Galenia africana', 'year': 2009, 'start_page': 2169, 'volume': 72, 'issue': 12, 'doi': '10.1021/np800778b', 'isbn': '', 'despositor': {'code': 'NFA', 'first_name': 'Ngonidzashe', 'last_name': 'Faya', 'id': 21}, 'refauthors_set': [{'author': {'first_name': 'Sannah', 'initials': 'SPN', 'last_name': 'Mativandlela', 'id': 717}, 'first_author': True, 'id': 1045}, {'author': {'first_name': 'Tshilidzi', 'initials': 'T', 'last_name': 'Muthivhi', 'id': 562}, 'first_author': None, 'id': 1126}, {'author': {'first_name': 'Haruhisa', 'initials': 'H', 'last_name': 'Kikuchi', 'id': 718}, 'first_author': None, 'id': 1127}, {'author': {'first_name': 'Yoshiteru', 'initials': 'Y', 'last_name': 'Oshima', 'id': 719}, 'first_author': None, 'id': 1128}, {'author': {'first_name': 'Chris', 'initials': 'C', 'last_name': 'Hamilton', 'id': 720}, 'first_author': None, 'id': 1129}, {'author': {'first_name': 'Ahmed', 'initials': 'AA', 'last_name': 'Hussein', 'id': 440}, 'first_author': None, 'id': 1130}, {'author': {'first_name': 'Martha', 'initials': 'ML', 'last_name': 'van der Walt', 'id': 721}, 'first_author': None, 'id': 1131}, {'author': {'first_name': 'Namrita', 'initials': 'N', 'last_name': 'Lall', 'id': 441}, 'first_author': None, 'id': 1132}], 'id': 347}]

>  <classifications>  (84) 
[{'classification': 'Flavonoids', 'id': 776}, {'classification': 'Linear 1,3-diarylpropanoids (Classyfire)', 'id': 943}]

>  <molecular_mass>  (84) 
240.25

>  <warheads>  (84) 
ab_unsat_carbonyl:1

>  <n_warheads>  (84) 
1

>  <max_tier>  (84) 
1

>  <pains_flag>  (84) 


>  <MW>  (84) 
240.3

>  <cLogP>  (84) 
2.99

>  <HBD>  (84) 
2

>  <HBA>  (84) 
3

>  <TPSA>  (84) 
57.5

>  <ArRings>  (84) 
2

$$$$
SANC00523_minRM1.pdb
     RDKit          3D

 23 25  0  0  0  0  0  0  0  0999 V2000
   -2.6660    3.2520   -1.0280 C   0  0  0  0  0  0  0  0  0  0  0  0
   -3.0250    2.5660    0.1510 O   0  0  0  0  0  0  0  0  0  0  0  0
   -3.0220    1.2080   -0.0130 C   0  0  0  0  0  0  0  0  0  0  0  0
   -4.2510    0.5270   -0.1200 C   0  0  0  0  0  0  0  0  0  0  0  0
   -5.4380    1.1600   -0.1660 O   0  0  0  0  0  0  0  0  0  0  0  0
   -4.3080   -0.8640   -0.1800 C   0  0  0  0  0  0  0  0  0  0  0  0
   -3.1070   -1.5790   -0.1330 C   0  0  0  0  0  0  0  0  0  0  0  0
   -3.2130   -2.9100   -0.2150 O   0  0  0  0  0  0  0  0  0  0  0  0
   -1.8650   -0.9240   -0.0200 C   0  0  0  0  0  0  0  0  0  0  0  0
   -0.6280   -1.6740   -0.0090 C   0  0  0  0  0  0  0  0  0  0  0  0
   -0.6350   -2.9050   -0.0770 O   0  0  0  0  0  0  0  0  0  0  0  0
    0.6090   -0.8840    0.0870 C   0  0  0  0  0  0  0  0  0  0  0  0
    1.7860   -1.4120   -0.2680 C   0  0  0  0  0  0  0  0  0  0  0  0
    3.0510   -0.6940   -0.1760 C   0  0  0  0  0  0  0  0  0  0  0  0
    3.4610   -0.1400    1.0320 C   0  0  0  0  0  0  0  0  0  0  0  0
    4.6910    0.4990    1.1240 C   0  0  0  0  0  0  0  0  0  0  0  0
    5.4960    0.5780   -0.0130 C   0  0  0  0  0  0  0  0  0  0  0  0
    6.6990    1.2000   -0.0240 O   0  0  0  0  0  0  0  0  0  0  0  0
    5.0920    0.0310   -1.2360 C   0  0  0  0  0  0  0  0  0  0  0  0
    3.8690   -0.6130   -1.3050 C   0  0  0  0  0  0  0  0  0  0  0  0
    0.4380    0.4970    0.6210 C   0  0  0  0  0  0  0  0  0  0  0  0
   -0.6850    1.1760    0.0920 O   0  0  0  0  0  0  0  0  0  0  0  0
   -1.8420    0.4730    0.0430 C   0  0  0  0  0  0  0  0  0  0  0  0
  1  2  1  0
  2  3  1  0
  3  4  1  0
  3 23  2  0
  4  6  2  0
  4  5  1  0
  6  7  1  0
  7  8  1  0
  7  9  2  0
  9 10  1  0
  9 23  1  0
 10 11  2  0
 10 12  1  0
 12 13  2  0
 12 21  1  0
 13 14  1  0
 14 20  2  0
 14 15  1  0
 15 16  2  0
 16 17  1  0
 17 19  2  0
 17 18  1  0
 19 20  1  0
 21 22  1  0
 22 23  1  0
M  END
>  <id>  (85) 
523

>  <scaffolds>  (85) 
['c1ccccc1', 'O=C1C(=Cc2ccccc2)COc2ccccc21', 'O=C(C=Cc1ccccc1)c1ccccc1', 'C(=Cc1ccccc1)Cc1ccccc1']

>  <name>  (85) 
Punctatin

>  <formula>  (85) 
C17H14O6

>  <SMILES>  (85) 
COc2c(O)cc(O)c3C(=O)/C(=C/c1ccc(O)cc1)COc23

>  <ChEMBL_id>  (85) 


>  <ZINC_id>  (85) 


>  <PubChem_id>  (85) 


>  <DrugBank_id>  (85) 


>  <CAS_no>  (85) 
34818-82-1

>  <references>  (85) 
[{'journal': {'name': 'South African Journal of Botany', 'id': 1}, 'title': 'Homoisoflavanones and spirocyclic nortriterpenoids from three Eucomis species: E. comosa, E. schiffii and E. pallidiflora subsp. pole-evansii (Hyacinthaceae)', 'year': 2006, 'start_page': 428, 'volume': 72, 'issue': None, 'doi': '10.1016/j.sajb.2005.12.006', 'isbn': '', 'despositor': {'code': 'rah', 'first_name': 'Rowan', 'last_name': 'Hatherley', 'id': 20}, 'refauthors_set': [{'author': {'first_name': 'Chantal', 'initials': 'C', 'last_name': 'Koorbanally', 'id': 523}, 'first_author': True, 'id': 1034}, {'author': {'first_name': 'Neil', 'initials': 'NR', 'last_name': 'Crouch', 'id': 524}, 'first_author': None, 'id': 1035}, {'author': {'first_name': 'Angela', 'initials': 'A', 'last_name': 'Langlois', 'id': 712}, 'first_author': None, 'id': 1036}, {'author': {'first_name': 'Karen', 'initials': 'K', 'last_name': 'Du Toit', 'id': 713}, 'first_author': None, 'id': 1037}, {'author': {'first_name': 'Dulcie', 'initials': 'DA', 'last_name': 'Mulholland', 'id': 525}, 'first_author': None, 'id': 1038}, {'author': {'first_name': 'Siegfried', 'initials': 'SE', 'last_name': 'Drewes', 'id': 613}, 'first_author': None, 'id': 1039}], 'id': 344}]

>  <classifications>  (85) 
[{'classification': 'Flavonoids', 'id': 776}, {'classification': 'Homoisoflavonoid', 'id': 783}, {'classification': 'Homoisoflavonoids (Classyfire)', 'id': 964}]

>  <molecular_mass>  (85) 
314.29

>  <warheads>  (85) 
ab_unsat_carbonyl:1

>  <n_warheads>  (85) 
1

>  <max_tier>  (85) 
1

>  <pains_flag>  (85) 


>  <MW>  (85) 
314.3

>  <cLogP>  (85) 
2.47

>  <HBD>  (85) 
3

>  <HBA>  (85) 
6

>  <TPSA>  (85) 
96.2

>  <ArRings>  (85) 
2

$$$$
SANC00529_minRM1.pdb
     RDKit          3D

 24 26  0  0  0  0  0  0  0  0999 V2000
    4.2290    1.9460    1.8300 C   0  0  0  0  0  0  0  0  0  0  0  0
    4.0800    1.6280    0.4650 O   0  0  0  0  0  0  0  0  0  0  0  0
    3.1970    0.6070    0.2630 C   0  0  0  0  0  0  0  0  0  0  0  0
    3.6320   -0.7270    0.3410 C   0  0  0  0  0  0  0  0  0  0  0  0
    4.8860   -0.9040    0.7830 O   0  0  0  0  0  0  0  0  0  0  0  0
    2.7770   -1.7700   -0.0440 C   0  0  0  0  0  0  0  0  0  0  0  0
    3.3030   -3.0270   -0.0480 O   0  0  0  0  0  0  0  0  0  0  0  0
    1.4850   -1.4770   -0.4990 C   0  0  0  0  0  0  0  0  0  0  0  0
    0.7230   -2.5190   -0.8560 O   0  0  0  0  0  0  0  0  0  0  0  0
    1.0200   -0.1530   -0.5060 C   0  0  0  0  0  0  0  0  0  0  0  0
   -0.3610    0.1410   -0.8510 C   0  0  0  0  0  0  0  0  0  0  0  0
   -1.1030   -0.7430   -1.2760 O   0  0  0  0  0  0  0  0  0  0  0  0
   -0.7580    1.5370   -0.6350 C   0  0  0  0  0  0  0  0  0  0  0  0
   -1.9680    1.9310   -0.2330 C   0  0  0  0  0  0  0  0  0  0  0  0
   -3.0470    1.0120    0.1000 C   0  0  0  0  0  0  0  0  0  0  0  0
   -2.8150   -0.0670    0.9490 C   0  0  0  0  0  0  0  0  0  0  0  0
   -3.8530   -0.9220    1.2950 C   0  0  0  0  0  0  0  0  0  0  0  0
   -5.1240   -0.6810    0.7720 C   0  0  0  0  0  0  0  0  0  0  0  0
   -6.1950   -1.4710    1.0280 O   0  0  0  0  0  0  0  0  0  0  0  0
   -5.3740    0.4030   -0.0800 C   0  0  0  0  0  0  0  0  0  0  0  0
   -4.3270    1.2470   -0.4050 C   0  0  0  0  0  0  0  0  0  0  0  0
    0.3630    2.4940   -0.8930 C   0  0  0  0  0  0  0  0  0  0  0  0
    1.5120    2.1810   -0.1270 O   0  0  0  0  0  0  0  0  0  0  0  0
    1.8920    0.8800   -0.1420 C   0  0  0  0  0  0  0  0  0  0  0  0
  1  2  1  0
  2  3  1  0
  3 24  2  0
  3  4  1  0
  4  6  2  0
  4  5  1  0
  6  8  1  0
  6  7  1  0
  8  9  1  0
  8 10  2  0
 10 11  1  0
 10 24  1  0
 11 12  2  0
 11 13  1  0
 13 22  1  0
 13 14  2  0
 14 15  1  0
 15 21  2  0
 15 16  1  0
 16 17  2  0
 17 18  1  0
 18 20  2  0
 18 19  1  0
 20 21  1  0
 22 23  1  0
 23 24  1  0
M  END
>  <id>  (86) 
529

>  <scaffolds>  (86) 
['c1ccccc1', 'O=C1C(=Cc2ccccc2)COc2ccccc21', 'O=C(C=Cc1ccccc1)c1ccccc1', 'C(=Cc1ccccc1)Cc1ccccc1']

>  <name>  (86) 
Poleevansin

>  <formula>  (86) 
C17H14O7

>  <SMILES>  (86) 
COc2c(O)c(O)c(O)c3C(=O)C(=Cc1ccc(O)cc1)COc23

>  <ChEMBL_id>  (86) 


>  <ZINC_id>  (86) 


>  <PubChem_id>  (86) 


>  <DrugBank_id>  (86) 


>  <CAS_no>  (86) 
849727-87-3

>  <references>  (86) 
[{'journal': {'name': 'South African Journal of Botany', 'id': 1}, 'title': 'Homoisoflavanones and spirocyclic nortriterpenoids from three Eucomis species: E. comosa, E. schiffii and E. pallidiflora subsp. pole-evansii (Hyacinthaceae)', 'year': 2006, 'start_page': 428, 'volume': 72, 'issue': None, 'doi': '10.1016/j.sajb.2005.12.006', 'isbn': '', 'despositor': {'code': 'rah', 'first_name': 'Rowan', 'last_name': 'Hatherley', 'id': 20}, 'refauthors_set': [{'author': {'first_name': 'Chantal', 'initials': 'C', 'last_name': 'Koorbanally', 'id': 523}, 'first_author': True, 'id': 1034}, {'author': {'first_name': 'Neil', 'initials': 'NR', 'last_name': 'Crouch', 'id': 524}, 'first_author': None, 'id': 1035}, {'author': {'first_name': 'Angela', 'initials': 'A', 'last_name': 'Langlois', 'id': 712}, 'first_author': None, 'id': 1036}, {'author': {'first_name': 'Karen', 'initials': 'K', 'last_name': 'Du Toit', 'id': 713}, 'first_author': None, 'id': 1037}, {'author': {'first_name': 'Dulcie', 'initials': 'DA', 'last_name': 'Mulholland', 'id': 525}, 'first_author': None, 'id': 1038}, {'author': {'first_name': 'Siegfried', 'initials': 'SE', 'last_name': 'Drewes', 'id': 613}, 'first_author': None, 'id': 1039}], 'id': 344}, {'journal': {'name': 'Bioorganic & Medicinal Chemistry', 'id': 34}, 'title': 'Anti-inflammatory activity and QSAR studies of compounds isolated from Hyacinthaceae species and Tachiadenus longiflorus Griseb. (Gentianaceae)', 'year': 2005, 'start_page': 2561, 'volume': 13, 'issue': 7, 'doi': '10.1016/j.bmc.2005.01.036', 'isbn': '', 'despositor': {'code': 'rah', 'first_name': 'Rowan', 'last_name': 'Hatherley', 'id': 20}, 'refauthors_set': [{'author': {'first_name': 'Karen', 'initials': 'K', 'last_name': 'Du Toit', 'id': 713}, 'first_author': True, 'id': 1075}, {'author': {'first_name': 'Esameldin', 'initials': 'EE', 'last_name': 'Elgorashi', 'id': 594}, 'first_author': None, 'id': 1076}, {'author': {'first_name': 'Sarel', 'initials': 'SF', 'last_name': 'Malan', 'id': 759}, 'first_author': None, 'id': 1077}, {'author': {'first_name': 'Siegfried', 'initials': 'SE', 'last_name': 'Drewes', 'id': 613}, 'first_author': None, 'id': 1078}, {'author': {'first_name': 'Johannes', 'initials': 'J', 'last_name': 'Van Staden', 'id': 489}, 'first_author': None, 'id': 1079}, {'author': {'first_name': 'Neil', 'initials': 'NR', 'last_name': 'Crouch', 'id': 524}, 'first_author': None, 'id': 1080}, {'author': {'first_name': 'Dulcie', 'initials': 'DA', 'last_name': 'Mulholland', 'id': 525}, 'first_author': None, 'id': 1081}], 'id': 362}]

>  <classifications>  (86) 
[{'classification': 'Flavonoids', 'id': 776}, {'classification': 'Homoisoflavonoid', 'id': 783}, {'classification': 'Homoisoflavonoids (Classyfire)', 'id': 964}]

>  <molecular_mass>  (86) 
330.29

>  <warheads>  (86) 
ab_unsat_carbonyl:1

>  <n_warheads>  (86) 
1

>  <max_tier>  (86) 
1

>  <pains_flag>  (86) 
catechol_A(92)

>  <MW>  (86) 
330.3

>  <cLogP>  (86) 
2.18

>  <HBD>  (86) 
4

>  <HBA>  (86) 
7

>  <TPSA>  (86) 
116.5

>  <ArRings>  (86) 
2

$$$$
SANC00530_minRM1.pdb
     RDKit          3D

 32 33  0  0  1  0  0  0  0  0999 V2000
   -2.1870    1.1440   -3.2040 C   0  0  0  0  0  0  0  0  0  0  0  0
   -1.2640    1.8080   -2.3800 O   0  0  0  0  0  0  0  0  0  0  0  0
   -0.8990    1.1360   -1.2110 C   0  0  2  0  0  0  0  0  0  0  0  0
    0.0960    2.0750   -0.4910 C   0  0  0  0  0  0  0  0  0  0  0  0
   -0.4440    3.4250   -0.1860 C   0  0  0  0  0  0  0  0  0  0  0  0
   -0.6890    3.8580    1.0540 C   0  0  0  0  0  0  0  0  0  0  0  0
   -1.0150    5.2870    1.3140 C   0  0  0  0  0  0  0  0  0  0  0  0
   -0.6680    2.9630    2.2430 C   0  0  0  0  0  0  0  0  0  0  0  0
   -0.1170   -0.1340   -1.5430 C   0  0  0  0  0  0  0  0  0  0  0  0
    0.4580   -0.2590   -2.5980 O   0  0  0  0  0  0  0  0  0  0  0  0
   -0.0270   -1.2060   -0.4680 C   0  0  1  0  0  0  0  0  0  0  0  0
    0.3090   -2.3660   -1.1640 O   0  0  0  0  0  0  0  0  0  0  0  0
    1.0770   -0.8450    0.5400 C   0  0  0  0  0  0  0  0  0  0  0  0
    0.7820   -0.5660    1.6890 O   0  0  0  0  0  0  0  0  0  0  0  0
    2.4520   -0.8950    0.0440 C   0  0  0  0  0  0  0  0  0  0  0  0
    3.4710   -0.5150    0.8280 C   0  0  0  0  0  0  0  0  0  0  0  0
    4.8680   -0.6280    0.4370 C   0  0  0  0  0  0  0  0  0  0  0  0
    5.2400   -1.2280   -0.7660 C   0  0  0  0  0  0  0  0  0  0  0  0
    6.5830   -1.4070   -1.0700 C   0  0  0  0  0  0  0  0  0  0  0  0
    7.5620   -1.0040   -0.1690 C   0  0  0  0  0  0  0  0  0  0  0  0
    7.1980   -0.3340    0.9940 C   0  0  0  0  0  0  0  0  0  0  0  0
    5.8570   -0.1530    1.3030 C   0  0  0  0  0  0  0  0  0  0  0  0
   -1.3460   -1.4060    0.2850 C   0  0  0  0  0  0  0  0  0  0  0  0
   -1.5200   -2.4930    0.8040 O   0  0  0  0  0  0  0  0  0  0  0  0
   -2.2900   -0.3010    0.3620 C   0  0  0  0  0  0  0  0  0  0  0  0
   -3.4610   -0.4840    1.2760 C   0  0  0  0  0  0  0  0  0  0  0  0
   -4.6360   -1.0590    0.5620 C   0  0  0  0  0  0  0  0  0  0  0  0
   -5.1940   -2.2410    0.8340 C   0  0  0  0  0  0  0  0  0  0  0  0
   -6.4370   -2.6780    0.1370 C   0  0  0  0  0  0  0  0  0  0  0  0
   -4.6560   -3.2060    1.8290 C   0  0  0  0  0  0  0  0  0  0  0  0
   -2.0910    0.8350   -0.3380 C   0  0  0  0  0  0  0  0  0  0  0  0
   -2.9330    1.8830   -0.3460 O   0  0  0  0  0  0  0  0  0  0  0  0
  1  2  1  0
  3  2  1  0
  3  9  1  0
  3  4  1  1
  3 31  1  0
  4  5  1  0
  5  6  2  3
  6  7  1  0
  6  8  1  0
  9 10  2  0
  9 11  1  0
 11 12  1  6
 11 23  1  0
 11 13  1  0
 13 15  1  0
 13 14  2  0
 15 16  2  0
 16 17  1  0
 17 18  2  0
 17 22  1  0
 18 19  1  0
 19 20  2  0
 20 21  1  0
 21 22  2  0
 23 25  1  0
 23 24  2  0
 25 31  2  0
 25 26  1  0
 26 27  1  0
 27 28  2  3
 28 29  1  0
 28 30  1  0
 31 32  1  0
M  END
>  <id>  (87) 
530

>  <scaffolds>  (87) 
['c1ccccc1', 'C1=CCCCC1', 'O=C1C=CCCC1', 'O=C1CC=CCC1']

>  <name>  (87) 
Microfolian

>  <formula>  (87) 
C26H30O6

>  <SMILES>  (87) 
CO[C@]2(C/C=C(C)\C)C(=O)[C@@](O)(C(=O)/C=C/c1ccccc1)C(=O)C(C/C=C(C)\C)=C2O

>  <ChEMBL_id>  (87) 


>  <ZINC_id>  (87) 


>  <PubChem_id>  (87) 


>  <DrugBank_id>  (87) 


>  <CAS_no>  (87) 
462112-94-3

>  <references>  (87) 
[{'journal': {'name': 'Journal of Natural Products', 'id': 5}, 'title': 'Bioactive Constituents of Cedrelopsis microfoliata', 'year': 2002, 'start_page': 1349, 'volume': 65, 'issue': 9, 'doi': '10.1021/np0200562', 'isbn': '', 'despositor': {'code': 'NFA', 'first_name': 'Ngonidzashe', 'last_name': 'Faya', 'id': 21}, 'refauthors_set': [{'author': {'first_name': 'Neil', 'initials': 'NA', 'last_name': 'Koorbanally', 'id': 699}, 'first_author': True, 'id': 1046}, {'author': {'first_name': 'Milijaona', 'initials': 'M', 'last_name': 'Randrianarivelojosia', 'id': 726}, 'first_author': None, 'id': 1136}, {'author': {'first_name': 'Dulcie', 'initials': 'DA', 'last_name': 'Mulholland', 'id': 525}, 'first_author': None, 'id': 1137}, {'author': {'first_name': 'Linda', 'initials': 'L', 'last_name': 'Quarles van Ufford,', 'id': 727}, 'first_author': None, 'id': 1138}, {'author': {'first_name': 'Albert', 'initials': 'AJJ', 'last_name': 'van den Berg', 'id': 728}, 'first_author': None, 'id': 1139}], 'id': 349}]

>  <classifications>  (87) 
[{'classification': 'Chalcone', 'id': 760}, {'classification': 'Benzene and substituted derivatives (Classyfire)', 'id': 961}]

>  <molecular_mass>  (87) 
438.51

>  <warheads>  (87) 
ab_unsat_carbonyl:2

>  <n_warheads>  (87) 
2

>  <max_tier>  (87) 
1

>  <pains_flag>  (87) 


>  <MW>  (87) 
438.5

>  <cLogP>  (87) 
4.06

>  <HBD>  (87) 
2

>  <HBA>  (87) 
6

>  <TPSA>  (87) 
100.9

>  <ArRings>  (87) 
1

$$$$
SANC00536_minRM1.pdb
     RDKit          3D

 24 25  0  0  1  0  0  0  0  0999 V2000
    4.4140   -0.2250    1.3590 C   0  0  0  0  0  0  0  0  0  0  0  0
    3.0770   -0.3400    0.9630 O   0  0  0  0  0  0  0  0  0  0  0  0
    2.8450   -0.4980   -0.4170 C   0  0  1  0  0  0  0  0  0  0  0  0
    3.6670   -1.6520   -1.0100 C   0  0  0  0  0  0  0  0  0  0  0  0
    1.3970   -0.8990   -0.5380 C   0  0  0  0  0  0  0  0  0  0  0  0
    0.8160   -1.7520    0.3060 C   0  0  0  0  0  0  0  0  0  0  0  0
   -0.6200   -2.1760    0.1890 C   0  0  1  0  0  0  0  0  0  0  0  0
   -0.6610   -3.7030   -0.0200 C   0  0  0  0  0  0  0  0  0  0  0  0
   -2.0940   -4.1890   -0.2020 C   0  0  0  0  0  0  0  0  0  0  0  0
    0.1540   -4.0840   -1.2540 C   0  0  0  0  0  0  0  0  0  0  0  0
   -1.3650   -1.7530    1.4710 C   0  0  0  0  0  0  0  0  0  0  0  0
   -2.6940   -1.0500    1.1820 C   0  0  0  0  0  0  0  0  0  0  0  0
   -2.4930    0.2300    0.4820 C   0  0  0  0  0  0  0  0  0  0  0  0
   -1.3570    0.8420    0.1350 C   0  0  0  0  0  0  0  0  0  0  0  0
   -1.6840    2.0610   -0.6930 C   0  0  2  0  0  0  0  0  0  0  0  0
   -0.9990    3.3190   -0.1600 C   0  0  0  0  0  0  0  0  0  0  0  0
    0.4480    3.0390    0.1120 C   0  0  0  0  0  0  0  0  0  0  0  0
    0.9490    3.5550    1.4140 C   0  0  0  0  0  0  0  0  0  0  0  0
    1.2150    2.3700   -0.7540 C   0  0  0  0  0  0  0  0  0  0  0  0
    2.6590    2.0880   -0.5210 C   0  0  0  0  0  0  0  0  0  0  0  0
    3.1570    0.8050   -1.1860 C   0  0  0  0  0  0  0  0  0  0  0  0
   -3.1010    2.1960   -0.6180 O   0  0  0  0  0  0  0  0  0  0  0  0
   -3.6140    1.0820    0.0120 C   0  0  0  0  0  0  0  0  0  0  0  0
   -4.8150    0.9760    0.0920 O   0  0  0  0  0  0  0  0  0  0  0  0
  1  2  1  0
  3  2  1  0
  3 21  1  0
  3  4  1  6
  3  5  1  0
  5  6  2  0
  6  7  1  0
  7  8  1  1
  7 11  1  0
  8 10  1  0
  8  9  1  0
 11 12  1  0
 12 13  1  0
 13 23  1  0
 13 14  2  0
 14 15  1  0
 15 22  1  0
 15 16  1  1
 16 17  1  0
 17 19  2  0
 17 18  1  0
 19 20  1  0
 20 21  1  0
 22 23  1  0
 23 24  2  0
M  END
>  <id>  (88) 
536

>  <scaffolds>  (88) 
[]

>  <name>  (88) 
(-)-(1R*,4R*,10R*)-4-Methoxycembra-2E,7E,11Z-trien-20,10-olide

>  <formula>  (88) 
C21H32O3

>  <SMILES>  (88) 
CO[C@@]1(C)C=C[C@@H](C(C)C)CCC2=C[C@H](CC(C)=CCC1)OC2=O

>  <ChEMBL_id>  (88) 


>  <ZINC_id>  (88) 


>  <PubChem_id>  (88) 


>  <DrugBank_id>  (88) 


>  <CAS_no>  (88) 
1346224-10-9

>  <references>  (88) 
[{'journal': {'name': 'Journal of Natural Products', 'id': 5}, 'title': 'Cembranolides from the Leaves of Croton gratissimus', 'year': 2011, 'start_page': 2349, 'volume': 74, 'issue': None, 'doi': '10.1021/np2002012', 'isbn': '', 'despositor': {'code': 'NFA', 'first_name': 'Ngonidzashe', 'last_name': 'Faya', 'id': 21}, 'refauthors_set': [{'author': {'first_name': 'Moses', 'initials': 'MK', 'last_name': 'Langat', 'id': 730}, 'first_author': True, 'id': 1048}, {'author': {'first_name': 'Neil', 'initials': 'NR', 'last_name': 'Crouch', 'id': 524}, 'first_author': None, 'id': 1142}, {'author': {'first_name': 'Peter', 'initials': 'PJ', 'last_name': 'Smith', 'id': 490}, 'first_author': None, 'id': 1143}, {'author': {'first_name': 'Dulcie', 'initials': 'DA', 'last_name': 'Mulholland', 'id': 525}, 'first_author': None, 'id': 1144}], 'id': 351}]

>  <classifications>  (88) 
[{'classification': 'Cembranolide', 'id': 758}, {'classification': 'Phenol lipids (Classyfire)', 'id': 951}]

>  <molecular_mass>  (88) 
332.48

>  <warheads>  (88) 
ab_unsat_carbonyl:1

>  <n_warheads>  (88) 
1

>  <max_tier>  (88) 
1

>  <pains_flag>  (88) 


>  <MW>  (88) 
332.5

>  <cLogP>  (88) 
4.98

>  <HBD>  (88) 
0

>  <HBA>  (88) 
3

>  <TPSA>  (88) 
35.5

>  <ArRings>  (88) 
0

$$$$
SANC00537_minRM1.pdb
     RDKit          3D

 25 26  0  0  1  0  0  0  0  0999 V2000
   -4.6790   -0.4800   -1.2150 C   0  0  0  0  0  0  0  0  0  0  0  0
   -3.3180   -0.5940   -0.9090 O   0  0  0  0  0  0  0  0  0  0  0  0
   -2.9740   -0.5290    0.4550 C   0  0  1  0  0  0  0  0  0  0  0  0
   -3.6940   -1.6130    1.2700 C   0  0  0  0  0  0  0  0  0  0  0  0
   -1.4990   -0.8350    0.5050 C   0  0  0  0  0  0  0  0  0  0  0  0
   -0.9350   -1.8040   -0.2110 C   0  0  0  0  0  0  0  0  0  0  0  0
    0.5420   -2.1310   -0.1400 C   0  0  1  0  0  0  0  0  0  0  0  0
    1.0970   -1.7420    1.0800 O   0  0  0  0  0  0  0  0  0  0  0  0
    0.7300   -3.6590   -0.3560 C   0  0  0  0  0  0  0  0  0  0  0  0
    2.2000   -4.0500   -0.2960 C   0  0  0  0  0  0  0  0  0  0  0  0
   -0.0420   -4.4670    0.6820 C   0  0  0  0  0  0  0  0  0  0  0  0
    1.2530   -1.3120   -1.2490 C   0  0  0  0  0  0  0  0  0  0  0  0
    2.6040   -0.7000   -0.8680 C   0  0  0  0  0  0  0  0  0  0  0  0
    2.4430    0.6110   -0.2120 C   0  0  0  0  0  0  0  0  0  0  0  0
    1.4050    1.1140    0.4620 C   0  0  0  0  0  0  0  0  0  0  0  0
    1.7250    2.5220    0.9010 C   0  0  2  0  0  0  0  0  0  0  0  0
    0.8140    3.5780    0.2530 C   0  0  0  0  0  0  0  0  0  0  0  0
   -0.4870    3.0050   -0.2160 C   0  0  0  0  0  0  0  0  0  0  0  0
   -0.7260    3.0880   -1.6810 C   0  0  0  0  0  0  0  0  0  0  0  0
   -1.3710    2.4880    0.6430 C   0  0  0  0  0  0  0  0  0  0  0  0
   -2.7250    2.0210    0.2270 C   0  0  0  0  0  0  0  0  0  0  0  0
   -3.2740    0.8600    1.0550 C   0  0  0  0  0  0  0  0  0  0  0  0
    3.0650    2.7520    0.4700 O   0  0  0  0  0  0  0  0  0  0  0  0
    3.5090    1.6420   -0.2150 C   0  0  0  0  0  0  0  0  0  0  0  0
    4.6270    1.6680   -0.6750 O   0  0  0  0  0  0  0  0  0  0  0  0
  1  2  1  0
  3  2  1  0
  3  5  1  0
  3 22  1  0
  3  4  1  1
  5  6  2  0
  6  7  1  0
  7 12  1  0
  7  9  1  0
  7  8  1  1
  9 10  1  0
  9 11  1  0
 12 13  1  0
 13 14  1  0
 14 24  1  0
 14 15  2  0
 15 16  1  0
 16 17  1  6
 16 23  1  0
 17 18  1  0
 18 19  1  0
 18 20  2  0
 20 21  1  0
 21 22  1  0
 23 24  1  0
 24 25  2  0
M  END
>  <id>  (89) 
537

>  <scaffolds>  (89) 
[]

>  <name>  (89) 
(-)-(1S*,4R*,10R*)-1-Hydroxy-4-methoxycembra-2E,7E,11Z-trien-20,10-olide

>  <formula>  (89) 
C21H32O4

>  <SMILES>  (89) 
CO[C@@]1(C)C=C[C@@](O)(C(C)C)CCC2=C[C@H](CC(C)=CCC1)OC2=O

>  <ChEMBL_id>  (89) 


>  <ZINC_id>  (89) 


>  <PubChem_id>  (89) 


>  <DrugBank_id>  (89) 


>  <CAS_no>  (89) 
1346224-11-0

>  <references>  (89) 
[{'journal': {'name': 'Journal of Natural Products', 'id': 5}, 'title': 'Cembranolides from the Leaves of Croton gratissimus', 'year': 2011, 'start_page': 2349, 'volume': 74, 'issue': None, 'doi': '10.1021/np2002012', 'isbn': '', 'despositor': {'code': 'NFA', 'first_name': 'Ngonidzashe', 'last_name': 'Faya', 'id': 21}, 'refauthors_set': [{'author': {'first_name': 'Moses', 'initials': 'MK', 'last_name': 'Langat', 'id': 730}, 'first_author': True, 'id': 1048}, {'author': {'first_name': 'Neil', 'initials': 'NR', 'last_name': 'Crouch', 'id': 524}, 'first_author': None, 'id': 1142}, {'author': {'first_name': 'Peter', 'initials': 'PJ', 'last_name': 'Smith', 'id': 490}, 'first_author': None, 'id': 1143}, {'author': {'first_name': 'Dulcie', 'initials': 'DA', 'last_name': 'Mulholland', 'id': 525}, 'first_author': None, 'id': 1144}], 'id': 351}]

>  <classifications>  (89) 
[{'classification': 'Cembranolide', 'id': 758}, {'classification': 'Phenol lipids (Classyfire)', 'id': 951}]

>  <molecular_mass>  (89) 
348.48

>  <warheads>  (89) 
ab_unsat_carbonyl:1

>  <n_warheads>  (89) 
1

>  <max_tier>  (89) 
1

>  <pains_flag>  (89) 


>  <MW>  (89) 
348.5

>  <cLogP>  (89) 
4.1

>  <HBD>  (89) 
1

>  <HBA>  (89) 
4

>  <TPSA>  (89) 
55.8

>  <ArRings>  (89) 
0

$$$$
SANC00538_minRM1.pdb
     RDKit          3D

 24 25  0  0  1  0  0  0  0  0999 V2000
    2.1740    1.1760   -1.4550 C   0  0  0  0  0  0  0  0  0  0  0  0
    2.0060    1.7710   -0.1030 C   0  0  0  0  0  0  0  0  0  0  0  0
    0.8990    2.4320    0.2520 C   0  0  0  0  0  0  0  0  0  0  0  0
   -0.2350    2.6700   -0.6860 C   0  0  0  0  0  0  0  0  0  0  0  0
   -1.5080    3.1640    0.0090 C   0  0  0  0  0  0  0  0  0  0  0  0
   -2.6870    2.1750   -0.1350 C   0  0  1  0  0  0  0  0  0  0  0  0
   -3.9200    2.7000    0.6170 C   0  0  0  0  0  0  0  0  0  0  0  0
   -2.9590    2.1160   -1.5050 O   0  0  0  0  0  0  0  0  0  0  0  0
   -2.2720    0.8520    0.4480 C   0  0  0  0  0  0  0  0  0  0  0  0
   -1.9350   -0.2090   -0.2800 C   0  0  0  0  0  0  0  0  0  0  0  0
   -1.3460   -1.4690    0.3050 C   0  0  1  0  0  0  0  0  0  0  0  0
   -0.9880   -1.3010    1.6450 O   0  0  0  0  0  0  0  0  0  0  0  0
   -2.3890   -2.6160    0.3160 C   0  0  0  0  0  0  0  0  0  0  0  0
   -3.5700   -2.2710    1.2160 C   0  0  0  0  0  0  0  0  0  0  0  0
   -2.8950   -2.9010   -1.0920 C   0  0  0  0  0  0  0  0  0  0  0  0
   -0.1070   -1.8410   -0.5560 C   0  0  0  0  0  0  0  0  0  0  0  0
    1.0040   -2.5740    0.2070 C   0  0  0  0  0  0  0  0  0  0  0  0
    2.0830   -1.6140    0.5210 C   0  0  0  0  0  0  0  0  0  0  0  0
    2.1350   -0.6280    1.4230 C   0  0  0  0  0  0  0  0  0  0  0  0
    3.4150    0.1520    1.2290 C   0  0  2  0  0  0  0  0  0  0  0  0
    3.1530    1.6130    0.8420 C   0  0  0  0  0  0  0  0  0  0  0  0
    4.1050   -0.5060    0.1720 O   0  0  0  0  0  0  0  0  0  0  0  0
    3.3360   -1.5550   -0.2750 C   0  0  0  0  0  0  0  0  0  0  0  0
    3.7640   -2.2380   -1.1750 O   0  0  0  0  0  0  0  0  0  0  0  0
  1  2  1  0
  2  3  2  0
  2 21  1  0
  3  4  1  0
  4  5  1  0
  5  6  1  0
  6  8  1  0
  6  9  1  0
  6  7  1  1
  9 10  2  0
 10 11  1  0
 11 16  1  0
 11 13  1  0
 11 12  1  1
 13 15  1  0
 13 14  1  0
 16 17  1  0
 17 18  1  0
 18 23  1  0
 18 19  2  0
 19 20  1  0
 20 22  1  0
 20 21  1  6
 22 23  1  0
 23 24  2  0
M  END
>  <id>  (90) 
538

>  <scaffolds>  (90) 
[]

>  <name>  (90) 
(-)-(1S*,4S*,10R*)-1,4-Dihydroxycembra-2E,7E,11Z-trien-20,10-olide (3)

>  <formula>  (90) 
C20H30O4

>  <SMILES>  (90) 
CC1=CCC[C@@](C)(O)C=C[C@@](O)(C(C)C)CCC2=C[C@H](C1)OC2=O

>  <ChEMBL_id>  (90) 


>  <ZINC_id>  (90) 


>  <PubChem_id>  (90) 


>  <DrugBank_id>  (90) 


>  <CAS_no>  (90) 
1346224-12-1

>  <references>  (90) 
[{'journal': {'name': 'Journal of Natural Products', 'id': 5}, 'title': 'Cembranolides from the Leaves of Croton gratissimus', 'year': 2011, 'start_page': 2349, 'volume': 74, 'issue': None, 'doi': '10.1021/np2002012', 'isbn': '', 'despositor': {'code': 'NFA', 'first_name': 'Ngonidzashe', 'last_name': 'Faya', 'id': 21}, 'refauthors_set': [{'author': {'first_name': 'Moses', 'initials': 'MK', 'last_name': 'Langat', 'id': 730}, 'first_author': True, 'id': 1048}, {'author': {'first_name': 'Neil', 'initials': 'NR', 'last_name': 'Crouch', 'id': 524}, 'first_author': None, 'id': 1142}, {'author': {'first_name': 'Peter', 'initials': 'PJ', 'last_name': 'Smith', 'id': 490}, 'first_author': None, 'id': 1143}, {'author': {'first_name': 'Dulcie', 'initials': 'DA', 'last_name': 'Mulholland', 'id': 525}, 'first_author': None, 'id': 1144}], 'id': 351}]

>  <classifications>  (90) 
[{'classification': 'Cembranolide', 'id': 758}, {'classification': 'Phenol lipids (Classyfire)', 'id': 951}]

>  <molecular_mass>  (90) 
334.45

>  <warheads>  (90) 
ab_unsat_carbonyl:1

>  <n_warheads>  (90) 
1

>  <max_tier>  (90) 
1

>  <pains_flag>  (90) 


>  <MW>  (90) 
334.5

>  <cLogP>  (90) 
3.44

>  <HBD>  (90) 
2

>  <HBA>  (90) 
4

>  <TPSA>  (90) 
66.8

>  <ArRings>  (90) 
0

$$$$
SANC00539_minRM1.pdb
     RDKit          3D

 22 23  0  0  1  0  0  0  0  0999 V2000
    4.1770   -1.9430   -0.1660 C   0  0  0  0  0  0  0  0  0  0  0  0
    3.0270   -1.6860   -0.7820 C   0  0  0  0  0  0  0  0  0  0  0  0
    2.9040   -1.5570   -2.2570 C   0  0  0  0  0  0  0  0  0  0  0  0
    1.7800   -1.5270   -0.0300 C   0  0  0  0  0  0  0  0  0  0  0  0
    1.5340   -0.4350    0.6920 C   0  0  0  0  0  0  0  0  0  0  0  0
    2.4890    0.6610    0.8000 C   0  0  0  0  0  0  0  0  0  0  0  0
    2.1980    1.9000    0.4010 C   0  0  0  0  0  0  0  0  0  0  0  0
    3.1580    3.0250    0.5530 C   0  0  0  0  0  0  0  0  0  0  0  0
    0.8880    2.2490   -0.2240 C   0  0  0  0  0  0  0  0  0  0  0  0
   -0.0790    2.7860    0.8420 C   0  0  0  0  0  0  0  0  0  0  0  0
   -1.3850    2.0700    0.8070 C   0  0  0  0  0  0  0  0  0  0  0  0
   -2.2020    2.0510   -0.2470 C   0  0  0  0  0  0  0  0  0  0  0  0
   -1.9160    2.7500   -1.5270 C   0  0  0  0  0  0  0  0  0  0  0  0
   -3.5010    1.3150   -0.1750 C   0  0  0  0  0  0  0  0  0  0  0  0
   -3.3220   -0.2030   -0.2060 C   0  0  1  0  0  0  0  0  0  0  0  0
   -2.2520   -0.7080   -1.1440 C   0  0  0  0  0  0  0  0  0  0  0  0
   -1.4210   -1.5180   -0.4710 C   0  0  0  0  0  0  0  0  0  0  0  0
   -0.3540   -2.3680   -1.0340 C   0  0  0  0  0  0  0  0  0  0  0  0
    0.8230   -2.6700   -0.1090 C   0  0  0  0  0  0  0  0  0  0  0  0
   -1.8530   -1.5060    0.9500 C   0  0  0  0  0  0  0  0  0  0  0  0
   -1.4660   -2.0670    1.9490 O   0  0  0  0  0  0  0  0  0  0  0  0
   -2.9360   -0.6650    1.0830 O   0  0  0  0  0  0  0  0  0  0  0  0
  1  2  2  0
  2  3  1  0
  2  4  1  0
  4 19  1  0
  4  5  2  0
  5  6  1  0
  6  7  2  0
  7  9  1  0
  7  8  1  0
  9 10  1  0
 10 11  1  0
 11 12  2  0
 12 13  1  0
 12 14  1  0
 15 14  1  1
 15 16  1  0
 15 22  1  0
 16 17  2  0
 17 18  1  0
 17 20  1  0
 18 19  1  0
 20 22  1  0
 20 21  2  0
M  END
>  <id>  (91) 
539

>  <scaffolds>  (91) 
[]

>  <name>  (91) 
(+)-(10R*)-Cembra-1E,3E,7E,11Z,16-pentaen-20,10-olide

>  <formula>  (91) 
C20H26O2

>  <SMILES>  (91) 
C=C(C)C1=CC=C(C)CCC=C(C)CC2C=C(CC1)C(=O)O2

>  <ChEMBL_id>  (91) 


>  <ZINC_id>  (91) 


>  <PubChem_id>  (91) 


>  <DrugBank_id>  (91) 


>  <CAS_no>  (91) 
1346224-14-3

>  <references>  (91) 
[{'journal': {'name': 'Journal of Natural Products', 'id': 5}, 'title': 'Cembranolides from the Leaves of Croton gratissimus', 'year': 2011, 'start_page': 2349, 'volume': 74, 'issue': None, 'doi': '10.1021/np2002012', 'isbn': '', 'despositor': {'code': 'NFA', 'first_name': 'Ngonidzashe', 'last_name': 'Faya', 'id': 21}, 'refauthors_set': [{'author': {'first_name': 'Moses', 'initials': 'MK', 'last_name': 'Langat', 'id': 730}, 'first_author': True, 'id': 1048}, {'author': {'first_name': 'Neil', 'initials': 'NR', 'last_name': 'Crouch', 'id': 524}, 'first_author': None, 'id': 1142}, {'author': {'first_name': 'Peter', 'initials': 'PJ', 'last_name': 'Smith', 'id': 490}, 'first_author': None, 'id': 1143}, {'author': {'first_name': 'Dulcie', 'initials': 'DA', 'last_name': 'Mulholland', 'id': 525}, 'first_author': None, 'id': 1144}], 'id': 351}]

>  <classifications>  (91) 
[{'classification': 'Cembranolide', 'id': 758}, {'classification': 'Phenol lipids (Classyfire)', 'id': 951}]

>  <molecular_mass>  (91) 
298.42

>  <warheads>  (91) 
ab_unsat_carbonyl:1

>  <n_warheads>  (91) 
1

>  <max_tier>  (91) 
1

>  <pains_flag>  (91) 


>  <MW>  (91) 
298.4

>  <cLogP>  (91) 
5.2

>  <HBD>  (91) 
0

>  <HBA>  (91) 
2

>  <TPSA>  (91) 
26.3

>  <ArRings>  (91) 
0

$$$$
SANC00541_minRM1.pdb
     RDKit          3D

 24 25  0  0  1  0  0  0  0  0999 V2000
    3.0520    2.7050   -1.7350 C   0  0  0  0  0  0  0  0  0  0  0  0
    3.2270    2.1600   -0.4580 O   0  0  0  0  0  0  0  0  0  0  0  0
    2.1250    1.4120    0.0080 C   0  0  2  0  0  0  0  0  0  0  0  0
    0.9760    2.3530    0.4500 C   0  0  0  0  0  0  0  0  0  0  0  0
   -0.1820    2.2710   -0.4810 C   0  0  0  0  0  0  0  0  0  0  0  0
   -1.4590    2.3160   -0.0920 C   0  0  0  0  0  0  0  0  0  0  0  0
   -1.8740    2.4470    1.3290 C   0  0  0  0  0  0  0  0  0  0  0  0
   -2.5640    2.2470   -1.0970 C   0  0  0  0  0  0  0  0  0  0  0  0
   -3.1570    0.8390   -1.1750 C   0  0  1  0  0  0  0  0  0  0  0  0
   -2.1070   -0.2410   -1.3340 C   0  0  0  0  0  0  0  0  0  0  0  0
   -2.2340   -1.1200   -0.3330 C   0  0  0  0  0  0  0  0  0  0  0  0
   -1.5740   -2.4070   -0.0420 C   0  0  0  0  0  0  0  0  0  0  0  0
   -0.2370   -2.6120   -0.7540 C   0  0  0  0  0  0  0  0  0  0  0  0
    0.9410   -2.0210   -0.0520 C   0  0  0  0  0  0  0  0  0  0  0  0
    2.2820   -2.6150   -0.3860 C   0  0  0  0  0  0  0  0  0  0  0  0
    2.4750   -3.9050    0.4060 C   0  0  0  0  0  0  0  0  0  0  0  0
    2.4380   -2.8800   -1.8790 C   0  0  0  0  0  0  0  0  0  0  0  0
    0.8330   -1.0250    0.8300 C   0  0  0  0  0  0  0  0  0  0  0  0
    1.9770   -0.4900    1.5630 C   0  0  0  0  0  0  0  0  0  0  0  0
    2.6000    0.6380    1.2110 C   0  0  0  0  0  0  0  0  0  0  0  0
    3.7360    1.1850    1.9940 C   0  0  0  0  0  0  0  0  0  0  0  0
   -3.3250   -0.6290    0.5530 C   0  0  0  0  0  0  0  0  0  0  0  0
   -3.8030   -1.0630    1.5760 O   0  0  0  0  0  0  0  0  0  0  0  0
   -3.8350    0.5410    0.0410 O   0  0  0  0  0  0  0  0  0  0  0  0
  1  2  1  0
  3  2  1  1
  3  4  1  0
  3 20  1  0
  4  5  1  0
  5  6  2  0
  6  8  1  0
  6  7  1  0
  9  8  1  1
  9 10  1  0
  9 24  1  0
 10 11  2  0
 11 12  1  0
 11 22  1  0
 12 13  1  0
 13 14  1  0
 14 15  1  0
 14 18  2  0
 15 17  1  0
 15 16  1  0
 18 19  1  0
 19 20  2  0
 20 21  1  0
 22 24  1  0
 22 23  2  0
M  END
>  <id>  (92) 
541

>  <scaffolds>  (92) 
[]

>  <name>  (92) 
(+)-(5R*,10R*)-5-Methoxycembra-1E,3E,7E,11Z,15-pentaen-20,10-olide

>  <formula>  (92) 
C21H30O3

>  <SMILES>  (92) 
CO[C@@H]1CC=C(C)C[C@H]2C=C(CCC(C(C)C)=CC=C1C)C(=O)O2

>  <ChEMBL_id>  (92) 


>  <ZINC_id>  (92) 


>  <PubChem_id>  (92) 


>  <DrugBank_id>  (92) 


>  <CAS_no>  (92) 
1346224-16-5

>  <references>  (92) 
[{'journal': {'name': 'Journal of Natural Products', 'id': 5}, 'title': 'Cembranolides from the Leaves of Croton gratissimus', 'year': 2011, 'start_page': 2349, 'volume': 74, 'issue': None, 'doi': '10.1021/np2002012', 'isbn': '', 'despositor': {'code': 'NFA', 'first_name': 'Ngonidzashe', 'last_name': 'Faya', 'id': 21}, 'refauthors_set': [{'author': {'first_name': 'Moses', 'initials': 'MK', 'last_name': 'Langat', 'id': 730}, 'first_author': True, 'id': 1048}, {'author': {'first_name': 'Neil', 'initials': 'NR', 'last_name': 'Crouch', 'id': 524}, 'first_author': None, 'id': 1142}, {'author': {'first_name': 'Peter', 'initials': 'PJ', 'last_name': 'Smith', 'id': 490}, 'first_author': None, 'id': 1143}, {'author': {'first_name': 'Dulcie', 'initials': 'DA', 'last_name': 'Mulholland', 'id': 525}, 'first_author': None, 'id': 1144}], 'id': 351}]

>  <classifications>  (92) 
[{'classification': 'Cembranolide', 'id': 758}, {'classification': 'Phenol lipids (Classyfire)', 'id': 951}]

>  <molecular_mass>  (92) 
330.46

>  <warheads>  (92) 
ab_unsat_carbonyl:1

>  <n_warheads>  (92) 
1

>  <max_tier>  (92) 
1

>  <pains_flag>  (92) 


>  <MW>  (92) 
330.5

>  <cLogP>  (92) 
4.9

>  <HBD>  (92) 
0

>  <HBA>  (92) 
3

>  <TPSA>  (92) 
35.5

>  <ArRings>  (92) 
0

$$$$
SANC00542_minRM1.pdb
     RDKit          3D

 25 26  0  0  1  0  0  0  0  0999 V2000
    0.3700    4.3740   -0.5450 C   0  0  0  0  0  0  0  0  0  0  0  0
    0.2280    3.3570    0.3010 C   0  0  0  0  0  0  0  0  0  0  0  0
   -1.1300    2.8760    0.6910 C   0  0  0  0  0  0  0  0  0  0  0  0
   -1.8640    2.2840   -0.5200 C   0  0  1  0  0  0  0  0  0  0  0  0
   -1.3130    0.9340   -0.9270 C   0  0  0  0  0  0  0  0  0  0  0  0
   -2.2540    0.0040   -0.7460 C   0  0  0  0  0  0  0  0  0  0  0  0
   -2.3000   -1.4360   -1.0480 C   0  0  0  0  0  0  0  0  0  0  0  0
   -0.9520   -2.1180   -1.2490 C   0  0  0  0  0  0  0  0  0  0  0  0
   -0.0750   -2.3870    0.0060 C   0  0  2  0  0  0  0  0  0  0  0  0
    0.5100   -3.6550   -0.1230 O   0  0  0  0  0  0  0  0  0  0  0  0
   -0.8630   -2.4660    1.3370 C   0  0  0  0  0  0  0  0  0  0  0  0
   -1.8890   -3.5950    1.3160 C   0  0  0  0  0  0  0  0  0  0  0  0
    0.0800   -2.6960    2.5160 C   0  0  0  0  0  0  0  0  0  0  0  0
    1.0010   -1.3200    0.0950 C   0  0  0  0  0  0  0  0  0  0  0  0
    2.0750   -1.3530   -0.6890 C   0  0  0  0  0  0  0  0  0  0  0  0
    3.2660   -0.4300   -0.6200 C   0  0  1  0  0  0  0  0  0  0  0  0
    4.4630   -1.2680   -0.1350 C   0  0  0  0  0  0  0  0  0  0  0  0
    3.5290    0.1120   -1.8840 O   0  0  0  0  0  0  0  0  0  0  0  0
    3.0910    0.7870    0.3070 C   0  0  0  0  0  0  0  0  0  0  0  0
    2.0230    1.7380   -0.2190 C   0  0  0  0  0  0  0  0  0  0  0  0
    1.4640    2.6850    0.8590 C   0  0  2  0  0  0  0  0  0  0  0  0
    1.1760    1.9180    1.9910 O   0  0  0  0  0  0  0  0  0  0  0  0
   -3.4630    0.6910   -0.2190 C   0  0  0  0  0  0  0  0  0  0  0  0
   -4.5550    0.2870    0.1020 O   0  0  0  0  0  0  0  0  0  0  0  0
   -3.2110    2.0400   -0.1250 O   0  0  0  0  0  0  0  0  0  0  0  0
  1  2  2  0
  2  3  1  0
  2 21  1  0
  4  3  1  1
  4  5  1  0
  4 25  1  0
  5  6  2  0
  6  7  1  0
  6 23  1  0
  7  8  1  0
  8  9  1  0
  9 10  1  6
  9 14  1  0
  9 11  1  0
 11 12  1  0
 11 13  1  0
 14 15  2  0
 15 16  1  0
 16 18  1  0
 16 17  1  1
 16 19  1  0
 19 20  1  0
 20 21  1  0
 21 22  1  1
 23 25  1  0
 23 24  2  0
M  END
>  <id>  (93) 
542

>  <scaffolds>  (93) 
[]

>  <name>  (93) 
(+)-(1S*,4S*,7R*,10R*)-1,4,7-Trihydroxycembra-2E,8(19),11Z-trien-20,10-olide

>  <formula>  (93) 
C20H30O5

>  <SMILES>  (93) 
C=C1C[C@H]2C=C(CC[C@](O)(C(C)C)C=C[C@@](C)(O)CC[C@@H]1O)C(=O)O2

>  <ChEMBL_id>  (93) 


>  <ZINC_id>  (93) 


>  <PubChem_id>  (93) 


>  <DrugBank_id>  (93) 


>  <CAS_no>  (93) 
1346224-18-7

>  <references>  (93) 
[{'journal': {'name': 'Journal of Natural Products', 'id': 5}, 'title': 'Cembranolides from the Leaves of Croton gratissimus', 'year': 2011, 'start_page': 2349, 'volume': 74, 'issue': None, 'doi': '10.1021/np2002012', 'isbn': '', 'despositor': {'code': 'NFA', 'first_name': 'Ngonidzashe', 'last_name': 'Faya', 'id': 21}, 'refauthors_set': [{'author': {'first_name': 'Moses', 'initials': 'MK', 'last_name': 'Langat', 'id': 730}, 'first_author': True, 'id': 1048}, {'author': {'first_name': 'Neil', 'initials': 'NR', 'last_name': 'Crouch', 'id': 524}, 'first_author': None, 'id': 1142}, {'author': {'first_name': 'Peter', 'initials': 'PJ', 'last_name': 'Smith', 'id': 490}, 'first_author': None, 'id': 1143}, {'author': {'first_name': 'Dulcie', 'initials': 'DA', 'last_name': 'Mulholland', 'id': 525}, 'first_author': None, 'id': 1144}], 'id': 351}]

>  <classifications>  (93) 
[{'classification': 'Cembranolide', 'id': 758}, {'classification': 'Phenol lipids (Classyfire)', 'id': 951}]

>  <molecular_mass>  (93) 
350.45

>  <warheads>  (93) 
ab_unsat_carbonyl:1

>  <n_warheads>  (93) 
1

>  <max_tier>  (93) 
1

>  <pains_flag>  (93) 


>  <MW>  (93) 
350.5

>  <cLogP>  (93) 
2.41

>  <HBD>  (93) 
3

>  <HBA>  (93) 
5

>  <TPSA>  (93) 
87.0

>  <ArRings>  (93) 
0

$$$$
SANC00548_minRM1.pdb
     RDKit          3D

 45 50  0  0  1  0  0  0  0  0999 V2000
   -1.1110   -1.0520   -0.1970 C   0  0  1  0  0  0  0  0  0  0  0  0
    0.3470   -0.8170    0.2120 C   0  0  2  0  0  0  0  0  0  0  0  0
    0.7080    0.6600    0.0890 C   0  0  0  0  0  0  0  0  0  0  0  0
    1.2830   -1.6250   -0.7030 C   0  0  0  0  0  0  0  0  0  0  0  0
    2.7310   -1.5300   -0.2240 C   0  0  0  0  0  0  0  0  0  0  0  0
    3.6660   -2.2480   -1.2070 C   0  0  2  0  0  0  0  0  0  0  0  0
    3.3750   -3.6050   -1.2980 O   0  0  0  0  0  0  0  0  0  0  0  0
    5.1780   -2.0430   -0.8510 C   0  0  0  0  0  0  0  0  0  0  0  0
    5.4990   -2.4630    0.5780 C   0  0  0  0  0  0  0  0  0  0  0  0
    6.0430   -2.8240   -1.8440 C   0  0  0  0  0  0  0  0  0  0  0  0
    5.3510   -0.6570   -1.0540 O   0  0  0  0  0  0  0  0  0  0  0  0
    6.5920   -0.1110   -0.7260 C   0  0  2  0  0  0  0  0  0  0  0  0
    6.4560    0.2330    0.6330 O   0  0  0  0  0  0  0  0  0  0  0  0
    7.5950    0.8740    1.1490 C   0  0  2  0  0  0  0  0  0  0  0  0
    7.2870    1.0790    2.6480 C   0  0  0  0  0  0  0  0  0  0  0  0
    7.3520   -0.1960    3.2200 O   0  0  0  0  0  0  0  0  0  0  0  0
    7.7660    2.2420    0.4390 C   0  0  1  0  0  0  0  0  0  0  0  0
    8.9420    2.7850    0.9540 O   0  0  0  0  0  0  0  0  0  0  0  0
    7.9180    1.9930   -1.0850 C   0  0  2  0  0  0  0  0  0  0  0  0
    7.9340    3.2620   -1.6620 O   0  0  0  0  0  0  0  0  0  0  0  0
    6.6890    1.1910   -1.5750 C   0  0  1  0  0  0  0  0  0  0  0  0
    6.9610    0.8690   -2.9030 O   0  0  0  0  0  0  0  0  0  0  0  0
   -1.5280   -2.5350   -0.0770 C   0  0  0  0  0  0  0  0  0  0  0  0
   -3.0060   -2.5630    0.3480 C   0  0  0  0  0  0  0  0  0  0  0  0
   -3.4670   -1.1060    0.2150 C   0  0  2  0  0  0  0  0  0  0  0  0
   -3.8270   -0.8520   -1.2530 C   0  0  0  0  0  0  0  0  0  0  0  0
   -2.1930   -0.3340    0.6380 C   0  0  1  0  0  0  0  0  0  0  0  0
   -1.8930   -0.5070    2.1280 C   0  0  0  0  0  0  0  0  0  0  0  0
   -2.4310    1.1360    0.3300 C   0  0  0  0  0  0  0  0  0  0  0  0
   -3.6600    1.6250    1.0850 C   0  0  0  0  0  0  0  0  0  0  0  0
   -4.9160    0.7750    0.9730 C   0  0  1  0  0  0  0  0  0  0  0  0
   -6.0720    1.4470    1.6960 C   0  0  0  0  0  0  0  0  0  0  0  0
   -6.1490    1.2420    0.1990 C   0  0  1  0  0  0  0  0  0  0  0  0
   -6.0620    2.3720   -0.7690 C   0  0  0  0  0  0  0  0  0  0  0  0
   -5.0130    2.8020   -1.2150 O   0  0  0  0  0  0  0  0  0  0  0  0
   -7.3490    2.9050   -1.2430 C   0  0  0  0  0  0  0  0  0  0  0  0
   -8.4640    2.1860   -1.1670 C   0  0  0  0  0  0  0  0  0  0  0  0
   -8.5460    0.8280   -0.5360 C   0  0  0  0  0  0  0  0  0  0  0  0
   -9.3540    1.0100    0.7510 C   0  0  0  0  0  0  0  0  0  0  0  0
   -9.3290   -0.0830   -1.4890 C   0  0  0  0  0  0  0  0  0  0  0  0
   -7.1460    0.2150   -0.2970 C   0  0  2  0  0  0  0  0  0  0  0  0
   -7.2060   -0.9470    0.6910 C   0  0  0  0  0  0  0  0  0  0  0  0
   -5.8420   -1.6430    0.7400 C   0  0  2  0  0  0  0  0  0  0  0  0
   -5.8460   -2.6160    1.7520 O   0  0  0  0  0  0  0  0  0  0  0  0
   -4.6590   -0.7140    1.1010 C   0  0  1  0  0  0  0  0  0  0  0  0
  1 23  1  1
  1  2  1  0
  1 27  1  0
  2  4  1  0
  2  3  1  6
  4  5  1  0
  5  6  1  0
  6  7  1  1
  6  8  1  0
  8 10  1  0
  8 11  1  0
  8  9  1  0
 12 11  1  6
 12 21  1  0
 12 13  1  0
 13 14  1  0
 14 17  1  0
 14 15  1  1
 15 16  1  0
 17 19  1  0
 17 18  1  1
 19 20  1  6
 19 21  1  0
 21 22  1  6
 23 24  1  0
 24 25  1  0
 25 26  1  6
 25 27  1  0
 25 45  1  0
 27 29  1  0
 27 28  1  1
 29 30  1  0
 31 30  1  6
 31 33  1  0
 31 45  1  0
 31 32  1  0
 33 32  1  1
 33 34  1  0
 33 41  1  0
 34 36  1  0
 34 35  2  0
 36 37  2  0
 37 38  1  0
 38 40  1  0
 38 41  1  0
 38 39  1  0
 41 42  1  1
 42 43  1  0
 45 43  1  6
 43 44  1  1
M  END
>  <id>  (94) 
548

>  <scaffolds>  (94) 
['C1=CCCCC1', 'C1=CCC2CCCCC2C1', 'C1CCOCC1', 'C1CCC(C2CCCC2)CC1', 'C1CCCCC1', 'O=C1C=CCCC1', 'O=C1C=CCC2CCC3C4CCC(CCCCCOC5CCCCO5)C4CCC34CC124', 'C1CCC2CCCCC2C1']

>  <name>  (94) 
Sutherlandioside D

>  <formula>  (94) 
C36H58O9

>  <SMILES>  (94) 
[H][C@]2([C@H](C)CC[C@H](O)C(C)(C)O[C@@H]1O[C@H](CO)[C@@H](O)[C@H](O)[C@H]1O)CC[C@]5(C)[C@]2(C)CC[C@@]36C[C@@]34C(=O)C=CC(C)(C)[C@]4([H])C[C@H](O)[C@@]56[H]

>  <ChEMBL_id>  (94) 


>  <ZINC_id>  (94) 


>  <PubChem_id>  (94) 


>  <DrugBank_id>  (94) 


>  <CAS_no>  (94) 
1055329-49-1

>  <references>  (94) 
[{'journal': {'name': 'Journal of Natural Products', 'id': 5}, 'title': 'Cycloartane Glycosides from Sutherlandia frutescens', 'year': 2008, 'start_page': 1749, 'volume': 71, 'issue': 10, 'doi': '10.1021/np800328r', 'isbn': '', 'despositor': {'code': 'NFA', 'first_name': 'Ngonidzashe', 'last_name': 'Faya', 'id': 21}, 'refauthors_set': [{'author': {'first_name': 'Xiang', 'initials': 'x', 'last_name': 'Fu', 'id': 731}, 'first_author': True, 'id': 1062}, {'author': {'first_name': 'Troy', 'initials': 'TJ', 'last_name': 'Smillie', 'id': 732}, 'first_author': None, 'id': 1147}, {'author': {'first_name': 'Paulo', 'initials': 'P', 'last_name': 'Carvalho', 'id': 733}, 'first_author': None, 'id': 1148}, {'author': {'first_name': 'Quinton', 'initials': 'Q', 'last_name': 'Johnson', 'id': 735}, 'first_author': None, 'id': 1149}, {'author': {'first_name': 'William', 'initials': 'W', 'last_name': 'Folk', 'id': 736}, 'first_author': None, 'id': 1150}, {'author': {'first_name': 'Mitchell', 'initials': 'MA', 'last_name': 'Avery', 'id': 737}, 'first_author': None, 'id': 1151}, {'author': {'first_name': 'Ikhlas', 'initials': 'IA', 'last_name': 'Khan', 'id': 738}, 'first_author': None, 'id': 1152}, {'author': {'first_name': 'Wilfred', 'initials': 'W', 'last_name': 'Mabusela', 'id': 792}, 'first_author': None, 'id': 1153}], 'id': 353}]

>  <classifications>  (94) 
[{'classification': 'Cycloartane', 'id': 766}, {'classification': 'Glycoside', 'id': 781}, {'classification': 'Phenol lipids (Classyfire)', 'id': 951}]

>  <molecular_mass>  (94) 
634.84

>  <warheads>  (94) 
ab_unsat_carbonyl:1

>  <n_warheads>  (94) 
1

>  <max_tier>  (94) 
1

>  <pains_flag>  (94) 


>  <MW>  (94) 
634.9

>  <cLogP>  (94) 
3.11

>  <HBD>  (94) 
6

>  <HBA>  (94) 
9

>  <TPSA>  (94) 
156.9

>  <ArRings>  (94) 
0

$$$$
SANC00560_minRM1.pdb
     RDKit          3D

 16 17  0  0  1  0  0  0  0  0999 V2000
   -0.2610   -0.2360    0.8380 C   0  0  1  0  0  0  0  0  0  0  0  0
   -0.0840   -1.7420    0.5240 C   0  0  0  0  0  0  0  0  0  0  0  0
    1.3110   -1.8520   -0.0040 C   0  0  0  0  0  0  0  0  0  0  0  0
    2.0020   -0.7260    0.1880 C   0  0  0  0  0  0  0  0  0  0  0  0
    3.4160   -0.4590   -0.1860 C   0  0  0  0  0  0  0  0  0  0  0  0
    4.0470   -1.7020   -0.3300 O   0  0  0  0  0  0  0  0  0  0  0  0
    1.1880    0.3060    0.9100 C   0  0  1  0  0  0  0  0  0  0  0  0
    1.3200    1.7080    0.3090 C   0  0  2  0  0  0  0  0  0  0  0  0
    0.6450    2.5630    1.1740 O   0  0  0  0  0  0  0  0  0  0  0  0
    0.7030    1.8500   -0.9510 O   0  0  0  0  0  0  0  0  0  0  0  0
   -0.5420    1.3370   -1.0750 C   0  0  0  0  0  0  0  0  0  0  0  0
   -1.0480    0.4020   -0.2530 C   0  0  0  0  0  0  0  0  0  0  0  0
   -2.4350   -0.0080   -0.4660 C   0  0  0  0  0  0  0  0  0  0  0  0
   -3.1460    0.2920   -1.4150 O   0  0  0  0  0  0  0  0  0  0  0  0
   -2.9380   -0.7860    0.5290 O   0  0  0  0  0  0  0  0  0  0  0  0
   -4.2810   -1.1950    0.4050 C   0  0  0  0  0  0  0  0  0  0  0  0
  1 12  1  0
  1  2  1  6
  1  7  1  0
  2  3  1  0
  3  4  2  0
  4  5  1  0
  7  4  1  6
  5  6  1  0
  7  8  1  0
  8 10  1  0
  8  9  1  1
 10 11  1  0
 11 12  2  0
 12 13  1  0
 13 14  2  0
 13 15  1  0
 15 16  1  0
M  END
>  <id>  (95) 
560

>  <scaffolds>  (95) 
['C1=CC2COC=CC2C1']

>  <name>  (95) 
Genipin

>  <formula>  (95) 
C11H14O5

>  <SMILES>  (95) 
[H][C@]12CC=C(CO)[C@@]1([H])[C@H](O)OC=C2C(=O)OC

>  <ChEMBL_id>  (95) 


>  <ZINC_id>  (95) 


>  <PubChem_id>  (95) 


>  <DrugBank_id>  (95) 


>  <CAS_no>  (95) 
6902-77-8

>  <references>  (95) 
[{'journal': {'name': 'Journal of Natural Products', 'id': 5}, 'title': 'Iridoid Molluscicidal Compounds from Apodytes dimidiata', 'year': 1996, 'start_page': 1169, 'volume': 59, 'issue': None, 'doi': '10.1021/np960404y', 'isbn': '', 'despositor': {'code': 'NFA', 'first_name': 'Ngonidzashe', 'last_name': 'Faya', 'id': 21}, 'refauthors_set': [{'author': {'first_name': 'Siegfried', 'initials': 'SE', 'last_name': 'Drewes', 'id': 613}, 'first_author': True, 'id': 1066}, {'author': {'first_name': 'Louis', 'initials': 'L', 'last_name': 'Kayonga', 'id': 752}, 'first_author': None, 'id': 1164}], 'id': 358}]

>  <classifications>  (95) 
[{'classification': 'Iridoid', 'id': 788}, {'classification': 'Monoterpene', 'id': 795}, {'classification': 'Terpenoid', 'id': 839}, {'classification': 'Phenol lipids (Classyfire)', 'id': 951}]

>  <molecular_mass>  (95) 
226.23

>  <warheads>  (95) 
ab_unsat_carbonyl:1

>  <n_warheads>  (95) 
1

>  <max_tier>  (95) 
1

>  <pains_flag>  (95) 


>  <MW>  (95) 
226.2

>  <cLogP>  (95) 
-0.05

>  <HBD>  (95) 
2

>  <HBA>  (95) 
5

>  <TPSA>  (95) 
76.0

>  <ArRings>  (95) 
0

$$$$
SANC00561_minRM1.pdb
     RDKit          3D

 19 20  0  0  1  0  0  0  0  0999 V2000
   -1.2290   -0.0800    0.8640 C   0  0  1  0  0  0  0  0  0  0  0  0
   -0.7400   -1.5400    0.7020 C   0  0  0  0  0  0  0  0  0  0  0  0
    0.6800   -1.4120    0.2540 C   0  0  0  0  0  0  0  0  0  0  0  0
    1.1240   -0.1580    0.3730 C   0  0  0  0  0  0  0  0  0  0  0  0
    2.4740    0.3680    0.0480 C   0  0  0  0  0  0  0  0  0  0  0  0
    3.3540   -0.7430    0.0750 O   0  0  0  0  0  0  0  0  0  0  0  0
    4.6610   -0.5080   -0.2100 C   0  0  0  0  0  0  0  0  0  0  0  0
    5.4700   -1.7610   -0.1510 C   0  0  0  0  0  0  0  0  0  0  0  0
    5.0440    0.6180   -0.4710 O   0  0  0  0  0  0  0  0  0  0  0  0
    0.0760    0.7470    0.9510 C   0  0  1  0  0  0  0  0  0  0  0  0
   -0.0280    2.0900    0.2220 C   0  0  2  0  0  0  0  0  0  0  0  0
   -0.9110    2.8630    0.9680 O   0  0  0  0  0  0  0  0  0  0  0  0
   -0.5810    1.9940   -1.0710 O   0  0  0  0  0  0  0  0  0  0  0  0
   -1.6930    1.2370   -1.2000 C   0  0  0  0  0  0  0  0  0  0  0  0
   -2.0570    0.2920   -0.3150 C   0  0  0  0  0  0  0  0  0  0  0  0
   -3.3210   -0.4030   -0.5490 C   0  0  0  0  0  0  0  0  0  0  0  0
   -4.0190   -0.3300   -1.5500 O   0  0  0  0  0  0  0  0  0  0  0  0
   -3.7200   -1.1840    0.4910 O   0  0  0  0  0  0  0  0  0  0  0  0
   -4.9490   -1.8590    0.3490 C   0  0  0  0  0  0  0  0  0  0  0  0
  1 15  1  0
  1  2  1  6
  1 10  1  0
  2  3  1  0
  3  4  2  0
  4  5  1  0
 10  4  1  6
  5  6  1  0
  6  7  1  0
  7  9  2  0
  7  8  1  0
 10 11  1  0
 11 13  1  0
 11 12  1  1
 13 14  1  0
 14 15  2  0
 15 16  1  0
 16 17  2  0
 16 18  1  0
 18 19  1  0
M  END
>  <id>  (96) 
561

>  <scaffolds>  (96) 
['C1=CC2COC=CC2C1']

>  <name>  (96) 
10-Acetyl genipin

>  <formula>  (96) 
C13H16O6

>  <SMILES>  (96) 
[H][C@]12CC=C(COC(C)=O)[C@@]1([H])[C@H](O)OC=C2C(=O)OC

>  <ChEMBL_id>  (96) 


>  <ZINC_id>  (96) 


>  <PubChem_id>  (96) 


>  <DrugBank_id>  (96) 


>  <CAS_no>  (96) 
62218-51-3

>  <references>  (96) 
[{'journal': {'name': 'Journal of Natural Products', 'id': 5}, 'title': 'Iridoid Molluscicidal Compounds from Apodytes dimidiata', 'year': 1996, 'start_page': 1169, 'volume': 59, 'issue': None, 'doi': '10.1021/np960404y', 'isbn': '', 'despositor': {'code': 'NFA', 'first_name': 'Ngonidzashe', 'last_name': 'Faya', 'id': 21}, 'refauthors_set': [{'author': {'first_name': 'Siegfried', 'initials': 'SE', 'last_name': 'Drewes', 'id': 613}, 'first_author': True, 'id': 1066}, {'author': {'first_name': 'Louis', 'initials': 'L', 'last_name': 'Kayonga', 'id': 752}, 'first_author': None, 'id': 1164}], 'id': 358}]

>  <classifications>  (96) 
[{'classification': 'Iridoid', 'id': 788}, {'classification': 'Monoterpene', 'id': 795}, {'classification': 'Terpenoid', 'id': 839}, {'classification': 'Phenol lipids (Classyfire)', 'id': 951}]

>  <molecular_mass>  (96) 
268.26

>  <warheads>  (96) 
ab_unsat_carbonyl:1

>  <n_warheads>  (96) 
1

>  <max_tier>  (96) 
1

>  <pains_flag>  (96) 


>  <MW>  (96) 
268.3

>  <cLogP>  (96) 
0.52

>  <HBD>  (96) 
1

>  <HBA>  (96) 
6

>  <TPSA>  (96) 
82.1

>  <ArRings>  (96) 
0

$$$$
SANC00578_minRM1.pdb
     RDKit          3D

 25 26  0  0  1  0  0  0  0  0999 V2000
   -0.7090   -1.1240    2.4120 C   0  0  0  0  0  0  0  0  0  0  0  0
    0.0300   -2.2920    1.7640 C   0  0  0  0  0  0  0  0  0  0  0  0
   -0.6400   -3.6200    2.1010 C   0  0  0  0  0  0  0  0  0  0  0  0
    0.1200   -2.1280    0.2790 C   0  0  0  0  0  0  0  0  0  0  0  0
   -0.9230   -1.8930   -0.5250 C   0  0  0  0  0  0  0  0  0  0  0  0
   -2.3210   -1.8280   -0.0630 C   0  0  2  0  0  0  0  0  0  0  0  0
   -3.2860   -1.7480   -1.1030 O   0  0  0  0  0  0  0  0  0  0  0  0
   -3.1990   -0.6090   -0.2610 C   0  0  1  0  0  0  0  0  0  0  0  0
   -4.3710   -0.4440    0.6700 C   0  0  0  0  0  0  0  0  0  0  0  0
   -2.7290    0.6310   -0.9900 C   0  0  0  0  0  0  0  0  0  0  0  0
   -2.6440    1.8940   -0.1360 C   0  0  0  0  0  0  0  0  0  0  0  0
   -1.2610    2.1430    0.4620 C   0  0  0  0  0  0  0  0  0  0  0  0
   -0.2670    2.6670   -0.5780 C   0  0  1  0  0  0  0  0  0  0  0  0
   -0.7360    4.0240   -1.1310 C   0  0  0  0  0  0  0  0  0  0  0  0
    0.1420    4.3190   -2.1790 O   0  0  0  0  0  0  0  0  0  0  0  0
    1.0800    2.8630    0.0930 C   0  0  0  0  0  0  0  0  0  0  0  0
    1.2320    3.7040    0.9580 O   0  0  0  0  0  0  0  0  0  0  0  0
    2.2080    1.9580   -0.3360 C   0  0  0  0  0  0  0  0  0  0  0  0
    1.9370    0.5620    0.2140 C   0  0  0  0  0  0  0  0  0  0  0  0
    3.0900   -0.3950   -0.0920 C   0  0  1  0  0  0  0  0  0  0  0  0
    4.3520    0.0610    0.6310 C   0  0  0  0  0  0  0  0  0  0  0  0
    2.7120   -1.8210    0.3780 C   0  0  2  0  0  0  0  0  0  0  0  0
    3.8020   -2.6250    0.0350 O   0  0  0  0  0  0  0  0  0  0  0  0
    1.4540   -2.2960   -0.3510 C   0  0  0  0  0  0  0  0  0  0  0  0
    1.5680   -2.8310   -1.4400 O   0  0  0  0  0  0  0  0  0  0  0  0
  1  2  1  0
  2  4  1  0
  2  3  1  0
  4  5  2  0
  4 24  1  0
  5  6  1  0
  6  7  1  6
  6  8  1  0
  7  8  1  0
  8 10  1  0
  8  9  1  1
 10 11  1  0
 11 12  1  0
 12 13  1  0
 13 14  1  1
 13 16  1  0
 14 15  1  0
 16 18  1  0
 16 17  2  0
 18 19  1  0
 19 20  1  0
 20 22  1  0
 20 21  1  1
 22 24  1  0
 22 23  1  6
 24 25  2  0
M  END
>  <id>  (97) 
578

>  <scaffolds>  (97) 
[]

>  <name>  (97) 
7,8-Dihydroflabellatene B

>  <formula>  (97) 
C20H32O5

>  <SMILES>  (97) 
CC(C)C2=C[C@@H]1O[C@]1(C)CCC[C@@H](CO)C(=O)CC[C@@H](C)[C@H](O)C2=O

>  <ChEMBL_id>  (97) 


>  <ZINC_id>  (97) 


>  <PubChem_id>  (97) 


>  <DrugBank_id>  (97) 


>  <CAS_no>  (97) 
745819-67-4

>  <references>  (97) 
[{'journal': {'name': 'Journal of Natural Products', 'id': 5}, 'title': 'New Cytotoxic Cembranes from the Sea Pen Gyrophyllum sibogae', 'year': 2004, 'start_page': 1190, 'volume': 67, 'issue': 7, 'doi': '10.1021/np049903m', 'isbn': '', 'despositor': {'code': 'NFA', 'first_name': 'Ngonidzashe', 'last_name': 'Faya', 'id': 21}, 'refauthors_set': [{'author': {'first_name': 'Fernando', 'initials': 'F', 'last_name': 'Reyes', 'id': 760}, 'first_author': True, 'id': 1082}, {'author': {'first_name': 'Ana', 'initials': 'A', 'last_name': 'Arda', 'id': 761}, 'first_author': False, 'id': 1083}, {'author': {'first_name': 'Rocio', 'initials': 'R', 'last_name': 'Martin', 'id': 762}, 'first_author': False, 'id': 1084}, {'author': {'first_name': 'Rogelio', 'initials': 'R', 'last_name': 'Fernandez', 'id': 763}, 'first_author': False, 'id': 1085}, {'author': {'first_name': 'Ana', 'initials': 'A', 'last_name': 'Rueda', 'id': 764}, 'first_author': False, 'id': 1086}, {'author': {'first_name': 'David', 'initials': 'D', 'last_name': 'Montalvo', 'id': 765}, 'first_author': False, 'id': 1087}, {'author': {'first_name': 'Christina', 'initials': 'C', 'last_name': 'Gomez', 'id': 766}, 'first_author': False, 'id': 1088}, {'author': {'first_name': 'Carlos', 'initials': 'C', 'last_name': 'Jimenez', 'id': 767}, 'first_author': False, 'id': 1089}, {'author': {'first_name': 'Jaime', 'initials': 'J', 'last_name': 'Rodriguez', 'id': 768}, 'first_author': False, 'id': 1090}, {'author': {'first_name': 'Jose', 'initials': 'JM', 'last_name': 'Sanchez-Puelles', 'id': 769}, 'first_author': False, 'id': 1091}], 'id': 363}]

>  <classifications>  (97) 
[{'classification': 'Cembrane', 'id': 757}, {'classification': 'Diterpene', 'id': 771}, {'classification': 'Terpenoid', 'id': 839}, {'classification': 'Phenol lipids (Classyfire)', 'id': 951}]

>  <molecular_mass>  (97) 
352.46

>  <warheads>  (97) 
ab_unsat_carbonyl:1

>  <n_warheads>  (97) 
1

>  <max_tier>  (97) 
1

>  <pains_flag>  (97) 


>  <MW>  (97) 
352.5

>  <cLogP>  (97) 
2.43

>  <HBD>  (97) 
2

>  <HBA>  (97) 
5

>  <TPSA>  (97) 
87.1

>  <ArRings>  (97) 
0

$$$$
SANC00581_minRM1.pdb
     RDKit          3D

 49 53  0  0  1  0  0  0  0  0999 V2000
    3.5680   -5.2450    1.4410 C   0  0  0  0  0  0  0  0  0  0  0  0
    3.7900   -4.0500    0.5740 C   0  0  0  0  0  0  0  0  0  0  0  0
    4.8470   -3.5980    0.1740 O   0  0  0  0  0  0  0  0  0  0  0  0
    2.6120   -3.4490    0.2580 O   0  0  0  0  0  0  0  0  0  0  0  0
    2.6430   -2.2980   -0.5540 C   0  0  1  0  0  0  0  0  0  0  0  0
    2.8530   -2.7240   -2.0250 C   0  0  1  0  0  0  0  0  0  0  0  0
    2.1470   -3.8720   -2.3450 O   0  0  0  0  0  0  0  0  0  0  0  0
    2.4910   -1.5440   -2.9520 C   0  0  0  0  0  0  0  0  0  0  0  0
    1.1980   -1.0740   -2.6910 O   0  0  0  0  0  0  0  0  0  0  0  0
    1.0650   -0.5400   -1.3960 C   0  0  1  0  0  0  0  0  0  0  0  0
   -0.2760   -0.1560   -1.3340 O   0  0  0  0  0  0  0  0  0  0  0  0
   -0.5400    1.1140   -1.9040 C   0  0  0  0  0  0  0  0  0  0  0  0
   -1.8950    1.5700   -1.4860 C   0  0  1  0  0  0  0  0  0  0  0  0
   -3.0580    0.9040   -1.3780 C   0  0  0  0  0  0  0  0  0  0  0  0
   -3.2700   -0.4360   -0.7870 C   0  0  1  0  0  0  0  0  0  0  0  0
   -3.2220   -0.1290    0.7500 C   0  0  2  0  0  0  0  0  0  0  0  0
   -1.7680    0.1350    1.1680 C   0  0  0  0  0  0  0  0  0  0  0  0
   -1.3100    1.4930    1.7620 C   0  0  1  0  0  0  0  0  0  0  0  0
    0.0550    1.4800    1.3550 O   0  0  0  0  0  0  0  0  0  0  0  0
    1.0230    2.0800    2.0960 C   0  0  0  0  0  0  0  0  0  0  0  0
    0.8600    2.3380    3.2750 O   0  0  0  0  0  0  0  0  0  0  0  0
    2.2070    2.3230    1.2590 C   0  0  0  0  0  0  0  0  0  0  0  0
    3.4320    2.3820    1.7840 C   0  0  0  0  0  0  0  0  0  0  0  0
    4.5890    2.6170    0.9510 C   0  0  0  0  0  0  0  0  0  0  0  0
    5.8960    2.8680    1.3730 C   0  0  0  0  0  0  0  0  0  0  0  0
    6.6440    3.0360    0.2080 N   0  0  0  0  0  0  0  0  0  0  0  0
    8.0760    3.2950    0.1410 C   0  0  0  0  0  0  0  0  0  0  0  0
    5.7750    2.8720   -0.8810 C   0  0  0  0  0  0  0  0  0  0  0  0
    4.5210    2.6210   -0.4530 N   0  0  0  0  0  0  0  0  0  0  0  0
   -1.8790    2.8910    1.3170 C   0  0  1  0  0  0  0  0  0  0  0  0
   -2.6310    3.5550    2.4690 C   0  0  0  0  0  0  0  0  0  0  0  0
   -0.7580    3.7740    0.7740 C   0  0  0  0  0  0  0  0  0  0  0  0
   -0.8120    3.7690   -0.5580 C   0  0  0  0  0  0  0  0  0  0  0  0
   -2.0470    2.9920   -0.9880 C   0  0  1  0  0  0  0  0  0  0  0  0
   -2.8590    3.7100   -1.8430 O   0  0  0  0  0  0  0  0  0  0  0  0
   -2.7800    2.8340    0.2380 O   0  0  0  0  0  0  0  0  0  0  0  0
   -3.7650   -1.2950    1.5250 C   0  0  0  0  0  0  0  0  0  0  0  0
   -3.7110   -1.1850    3.0100 C   0  0  0  0  0  0  0  0  0  0  0  0
   -4.2860   -2.3840    0.9540 C   0  0  0  0  0  0  0  0  0  0  0  0
   -4.4380   -2.5410   -0.5170 C   0  0  0  0  0  0  0  0  0  0  0  0
   -4.5710   -1.1590   -1.1820 C   0  0  1  0  0  0  0  0  0  0  0  0
   -5.9170   -0.5420   -0.7520 C   0  0  0  0  0  0  0  0  0  0  0  0
   -6.2540    0.7790   -1.4350 C   0  0  0  0  0  0  0  0  0  0  0  0
   -7.0590   -1.5060   -1.1010 C   0  0  0  0  0  0  0  0  0  0  0  0
    1.2700   -1.6300   -0.3080 C   0  0  1  0  0  0  0  0  0  0  0  0
    0.2540   -2.5800   -0.4930 O   0  0  0  0  0  0  0  0  0  0  0  0
   -0.1410   -3.3400    0.5650 C   0  0  0  0  0  0  0  0  0  0  0  0
   -1.1110   -4.3980    0.1510 C   0  0  0  0  0  0  0  0  0  0  0  0
    0.2670   -3.1200    1.6880 O   0  0  0  0  0  0  0  0  0  0  0  0
  1  2  1  0
  2  3  2  0
  2  4  1  0
  5  4  1  1
  5  6  1  0
  5 45  1  0
  6  8  1  0
  6  7  1  6
  8  9  1  0
  9 10  1  0
 10 11  1  6
 10 45  1  0
 11 12  1  0
 13 12  1  1
 13 14  1  0
 13 34  1  0
 15 14  1  6
 15 41  1  0
 15 16  1  0
 16 17  1  1
 16 37  1  0
 17 18  1  0
 18 30  1  0
 18 19  1  6
 19 20  1  0
 20 22  1  0
 20 21  2  0
 22 23  2  0
 23 24  1  0
 24 29  1  0
 24 25  2  0
 25 26  1  0
 26 28  1  0
 26 27  1  0
 28 29  2  0
 30 36  1  0
 30 32  1  0
 30 31  1  1
 32 33  2  0
 33 34  1  0
 34 35  1  6
 34 36  1  0
 37 39  2  0
 37 38  1  0
 39 40  1  0
 40 41  1  0
 41 42  1  1
 42 43  1  0
 42 44  1  0
 45 46  1  6
 46 47  1  0
 47 48  1  0
 47 49  2  0
M  END
>  <id>  (98) 
581

>  <scaffolds>  (98) 
['C1=CCCCC1', 'C1CCOCC1', 'O=C(C=Cc1c[nH]cn1)OC1CC2C=CCCC2C=C(COC2CCCCO2)C2C=CC1O2', 'O=C(C=Cc1c[nH]cn1)OC1CC2C=CCCC2C=CC2C=CC1O2']

>  <name>  (98) 
Eleuthoside A

>  <formula>  (98) 
C36H48N2O11

>  <SMILES>  (98) 
CC1=CC[C@@H]([C@@H]/2[C@H]1C[C@@H]([C@@]3(C=C[C@@](O3)(/C(=C2)/CO[C@H]4[C@H]([C@@H]([C@@H](CO4)O)OC(=O)C)OC(=O)C)O)C)OC(=O)/C=C/C5=CN(C=N5)C)C(C)C

>  <ChEMBL_id>  (98) 


>  <ZINC_id>  (98) 


>  <PubChem_id>  (98) 
 11104406

>  <DrugBank_id>  (98) 


>  <CAS_no>  (98) 
180692-76-6

>  <references>  (98) 
[{'journal': {'name': 'Journal of Natural Products', 'id': 5}, 'title': 'Sarcodictyin A and Two Novel Diterpenoid Glycosides, Eleuthosides A and B, from the Soft Coral Eleutherobia aurea', 'year': 1996, 'start_page': 873, 'volume': 59, 'issue': None, 'doi': '10.1021/np960361l', 'isbn': '', 'despositor': {'code': 'NFA', 'first_name': 'Ngonidzashe', 'last_name': 'Faya', 'id': 21}, 'refauthors_set': [{'author': {'first_name': 'Sharon', 'initials': 'S', 'last_name': 'Ketzinel', 'id': 770}, 'first_author': True, 'id': 1096}, {'author': {'first_name': 'Michael', 'initials': 'M', 'last_name': 'Schleyer', 'id': 452}, 'first_author': False, 'id': 1098}, {'author': {'first_name': 'Yehuda', 'initials': 'Y', 'last_name': 'Benayahu', 'id': 535}, 'first_author': False, 'id': 1099}, {'author': {'first_name': 'Yoel', 'initials': 'Y', 'last_name': 'Kashman', 'id': 536}, 'first_author': False, 'id': 1100}], 'id': 365}]

>  <classifications>  (98) 
[{'classification': 'Diterpene', 'id': 771}, {'classification': 'Glycoside', 'id': 781}, {'classification': 'Terpenoid', 'id': 839}, {'classification': 'Phenol lipids (Classyfire)', 'id': 951}]

>  <molecular_mass>  (98) 
684.77

>  <warheads>  (98) 
ab_unsat_carbonyl:1

>  <n_warheads>  (98) 
1

>  <max_tier>  (98) 
1

>  <pains_flag>  (98) 


>  <MW>  (98) 
686.8

>  <cLogP>  (98) 
3.24

>  <HBD>  (98) 
2

>  <HBA>  (98) 
12

>  <TPSA>  (98) 
164.9

>  <ArRings>  (98) 
1

$$$$
SANC00582_minRM1.pdb
     RDKit          3D

 49 53  0  0  1  0  0  0  0  0999 V2000
    5.0740   -3.9940   -3.5980 C   0  0  0  0  0  0  0  0  0  0  0  0
    4.8520   -3.1610   -2.3770 C   0  0  0  0  0  0  0  0  0  0  0  0
    5.5710   -2.2880   -1.9290 O   0  0  0  0  0  0  0  0  0  0  0  0
    3.6930   -3.5010   -1.7560 O   0  0  0  0  0  0  0  0  0  0  0  0
    3.3150   -2.7840   -0.6010 C   0  0  1  0  0  0  0  0  0  0  0  0
    2.8210   -1.3800   -0.9920 C   0  0  0  0  0  0  0  0  0  0  0  0
    2.3330   -0.7340    0.1500 O   0  0  0  0  0  0  0  0  0  0  0  0
    1.2390   -1.3330    0.7840 C   0  0  1  0  0  0  0  0  0  0  0  0
    0.1470   -1.3570   -0.0880 O   0  0  0  0  0  0  0  0  0  0  0  0
   -0.3140   -0.0520   -0.4030 C   0  0  0  0  0  0  0  0  0  0  0  0
   -1.5240   -0.1860   -1.2600 C   0  0  1  0  0  0  0  0  0  0  0  0
   -2.7480   -0.6100   -0.9100 C   0  0  0  0  0  0  0  0  0  0  0  0
   -3.3880   -0.4270    0.4200 C   0  0  1  0  0  0  0  0  0  0  0  0
   -3.8680    1.0660    0.2830 C   0  0  2  0  0  0  0  0  0  0  0  0
   -2.6790    2.0070    0.5260 C   0  0  0  0  0  0  0  0  0  0  0  0
   -2.1500    2.9480   -0.5870 C   0  0  1  0  0  0  0  0  0  0  0  0
   -0.7450    3.0180   -0.3910 O   0  0  0  0  0  0  0  0  0  0  0  0
   -0.2000    3.6420    0.6840 C   0  0  0  0  0  0  0  0  0  0  0  0
   -0.8810    4.3430    1.4120 O   0  0  0  0  0  0  0  0  0  0  0  0
    1.2320    3.3260    0.7600 C   0  0  0  0  0  0  0  0  0  0  0  0
    2.1240    4.1850    1.2600 C   0  0  0  0  0  0  0  0  0  0  0  0
    3.5320    3.8520    1.2500 C   0  0  0  0  0  0  0  0  0  0  0  0
    4.5630    4.4650    1.9600 C   0  0  0  0  0  0  0  0  0  0  0  0
    5.7270    3.7790    1.6040 N   0  0  0  0  0  0  0  0  0  0  0  0
    7.0590    4.0400    2.1310 C   0  0  0  0  0  0  0  0  0  0  0  0
    5.3650    2.7720    0.6940 C   0  0  0  0  0  0  0  0  0  0  0  0
    4.0400    2.8040    0.4600 N   0  0  0  0  0  0  0  0  0  0  0  0
   -2.2170    2.6630   -2.1370 C   0  0  1  0  0  0  0  0  0  0  0  0
   -3.1590    3.6570   -2.8130 C   0  0  0  0  0  0  0  0  0  0  0  0
   -0.8080    2.7030   -2.7280 C   0  0  0  0  0  0  0  0  0  0  0  0
   -0.4010    1.4520   -2.9480 C   0  0  0  0  0  0  0  0  0  0  0  0
   -1.5360    0.5040   -2.6040 C   0  0  1  0  0  0  0  0  0  0  0  0
   -1.8360   -0.3920   -3.6080 O   0  0  0  0  0  0  0  0  0  0  0  0
   -2.6730    1.3830   -2.4900 O   0  0  0  0  0  0  0  0  0  0  0  0
   -4.9880    1.3900    1.2200 C   0  0  0  0  0  0  0  0  0  0  0  0
   -5.4470    2.8090    1.2450 C   0  0  0  0  0  0  0  0  0  0  0  0
   -5.6010    0.4790    1.9740 C   0  0  0  0  0  0  0  0  0  0  0  0
   -5.2560   -0.9630    1.9570 C   0  0  0  0  0  0  0  0  0  0  0  0
   -4.5760   -1.3730    0.6450 C   0  0  2  0  0  0  0  0  0  0  0  0
   -4.1480   -2.8520    0.7340 C   0  0  0  0  0  0  0  0  0  0  0  0
   -5.3620   -3.7390    1.0200 C   0  0  0  0  0  0  0  0  0  0  0  0
   -3.4880   -3.3610   -0.5430 C   0  0  0  0  0  0  0  0  0  0  0  0
    1.6010   -2.7830    1.1880 C   0  0  1  0  0  0  0  0  0  0  0  0
    0.4860   -3.5020    1.6530 O   0  0  0  0  0  0  0  0  0  0  0  0
   -0.0010   -3.1890    2.8810 C   0  0  0  0  0  0  0  0  0  0  0  0
   -1.0860   -4.1200    3.3040 C   0  0  0  0  0  0  0  0  0  0  0  0
    0.4510   -2.2490    3.5140 O   0  0  0  0  0  0  0  0  0  0  0  0
    2.1310   -3.5990   -0.0130 C   0  0  1  0  0  0  0  0  0  0  0  0
    1.0830   -3.6960   -0.9170 O   0  0  0  0  0  0  0  0  0  0  0  0
  1  2  1  0
  2  3  2  0
  2  4  1  0
  5  4  1  6
  5  6  1  0
  5 48  1  0
  6  7  1  0
  7  8  1  0
  8  9  1  6
  8 43  1  0
  9 10  1  0
 11 10  1  1
 11 32  1  0
 11 12  1  0
 13 12  1  6
 13 14  1  0
 13 39  1  0
 14 15  1  1
 14 35  1  0
 15 16  1  0
 16 28  1  0
 16 17  1  1
 17 18  1  0
 18 20  1  0
 18 19  2  0
 20 21  2  0
 21 22  1  0
 22 27  1  0
 22 23  2  0
 23 24  1  0
 24 26  1  0
 24 25  1  0
 26 27  2  0
 28 29  1  6
 28 30  1  0
 28 34  1  0
 30 31  2  0
 31 32  1  0
 32 33  1  6
 32 34  1  0
 35 36  1  0
 35 37  2  0
 37 38  1  0
 38 39  1  0
 39 40  1  1
 40 42  1  0
 40 41  1  0
 43 48  1  0
 43 44  1  6
 44 45  1  0
 45 46  1  0
 45 47  2  0
 48 49  1  6
M  END
>  <id>  (99) 
582

>  <scaffolds>  (99) 
['C1=CCCCC1', 'C1CCOCC1', 'O=C(C=Cc1c[nH]cn1)OC1CC2C=CCCC2C=C(COC2CCCCO2)C2C=CC1O2', 'O=C(C=Cc1c[nH]cn1)OC1CC2C=CCCC2C=CC2C=CC1O2']

>  <name>  (99) 
Eleuthoside B

>  <formula>  (99) 
C36H48N2O11

>  <SMILES>  (99) 
CC(=O)OC5COC(OCC2=CC4C(CC(OC(=O)/C=C/c1cn(C)cn1)C3(C)C=CC2(O)O3)C(C)=CC[C@@H]4C(C)C)C(OC(C)=O)C5O

>  <ChEMBL_id>  (99) 


>  <ZINC_id>  (99) 


>  <PubChem_id>  (99) 


>  <DrugBank_id>  (99) 


>  <CAS_no>  (99) 
180692-77-7

>  <references>  (99) 
[{'journal': {'name': 'Journal of Natural Products', 'id': 5}, 'title': 'Sarcodictyin A and Two Novel Diterpenoid Glycosides, Eleuthosides A and B, from the Soft Coral Eleutherobia aurea', 'year': 1996, 'start_page': 873, 'volume': 59, 'issue': None, 'doi': '10.1021/np960361l', 'isbn': '', 'despositor': {'code': 'NFA', 'first_name': 'Ngonidzashe', 'last_name': 'Faya', 'id': 21}, 'refauthors_set': [{'author': {'first_name': 'Sharon', 'initials': 'S', 'last_name': 'Ketzinel', 'id': 770}, 'first_author': True, 'id': 1096}, {'author': {'first_name': 'Michael', 'initials': 'M', 'last_name': 'Schleyer', 'id': 452}, 'first_author': False, 'id': 1098}, {'author': {'first_name': 'Yehuda', 'initials': 'Y', 'last_name': 'Benayahu', 'id': 535}, 'first_author': False, 'id': 1099}, {'author': {'first_name': 'Yoel', 'initials': 'Y', 'last_name': 'Kashman', 'id': 536}, 'first_author': False, 'id': 1100}], 'id': 365}]

>  <classifications>  (99) 
[{'classification': 'Diterpene', 'id': 771}, {'classification': 'Glycoside', 'id': 781}, {'classification': 'Terpenoid', 'id': 839}, {'classification': 'Phenol lipids (Classyfire)', 'id': 951}]

>  <molecular_mass>  (99) 
684.77

>  <warheads>  (99) 
ab_unsat_carbonyl:1

>  <n_warheads>  (99) 
1

>  <max_tier>  (99) 
1

>  <pains_flag>  (99) 


>  <MW>  (99) 
686.8

>  <cLogP>  (99) 
3.24

>  <HBD>  (99) 
2

>  <HBA>  (99) 
12

>  <TPSA>  (99) 
164.9

>  <ArRings>  (99) 
1

$$$$
SANC00583_minRM1.pdb
     RDKit          3D

 36 39  0  0  1  0  0  0  0  0999 V2000
   -3.2210    0.9320   -0.1400 C   0  0  1  0  0  0  0  0  0  0  0  0
   -3.2140   -0.4890   -0.5680 C   0  0  0  0  0  0  0  0  0  0  0  0
   -2.2520   -1.2690   -1.0980 C   0  0  1  0  0  0  0  0  0  0  0  0
   -1.3100   -0.9290   -2.1600 C   0  0  0  0  0  0  0  0  0  0  0  0
   -0.8750    0.1660   -2.4860 O   0  0  0  0  0  0  0  0  0  0  0  0
   -0.9340   -2.0190   -2.8940 O   0  0  0  0  0  0  0  0  0  0  0  0
    0.0350   -1.8100   -3.8990 C   0  0  0  0  0  0  0  0  0  0  0  0
   -2.0810   -2.5680   -0.3340 C   0  0  1  0  0  0  0  0  0  0  0  0
   -3.1270   -3.4060   -0.6340 O   0  0  0  0  0  0  0  0  0  0  0  0
   -0.7030   -3.1920   -0.3960 C   0  0  0  0  0  0  0  0  0  0  0  0
   -0.0700   -2.9520    0.7520 C   0  0  0  0  0  0  0  0  0  0  0  0
   -0.9880   -2.1860    1.6910 C   0  0  2  0  0  0  0  0  0  0  0  0
   -1.1430   -2.9390    3.0130 C   0  0  0  0  0  0  0  0  0  0  0  0
   -2.2440   -2.2080    1.0500 O   0  0  0  0  0  0  0  0  0  0  0  0
   -0.5030   -0.7180    1.9850 C   0  0  1  0  0  0  0  0  0  0  0  0
    0.8960   -0.8750    1.8190 O   0  0  0  0  0  0  0  0  0  0  0  0
    1.7710    0.1030    2.1680 C   0  0  0  0  0  0  0  0  0  0  0  0
    1.4540    0.9640    2.9830 O   0  0  0  0  0  0  0  0  0  0  0  0
    3.0350   -0.0700    1.4410 C   0  0  0  0  0  0  0  0  0  0  0  0
    4.0390    0.8040    1.5890 C   0  0  0  0  0  0  0  0  0  0  0  0
    5.2570    0.6720    0.8220 C   0  0  0  0  0  0  0  0  0  0  0  0
    6.3980    1.4750    0.9110 C   0  0  0  0  0  0  0  0  0  0  0  0
    7.2820    0.9880   -0.0510 N   0  0  0  0  0  0  0  0  0  0  0  0
    8.6170    1.5040   -0.3200 C   0  0  0  0  0  0  0  0  0  0  0  0
    6.6550   -0.0970   -0.6870 C   0  0  0  0  0  0  0  0  0  0  0  0
    5.4260   -0.3050   -0.1740 N   0  0  0  0  0  0  0  0  0  0  0  0
   -0.9610    0.4080    1.0430 C   0  0  0  0  0  0  0  0  0  0  0  0
   -2.4260    0.8480    1.2060 C   0  0  1  0  0  0  0  0  0  0  0  0
   -2.4630    2.2000    1.8550 C   0  0  0  0  0  0  0  0  0  0  0  0
   -2.2300    2.2130    3.3230 C   0  0  0  0  0  0  0  0  0  0  0  0
   -2.6710    3.3210    1.1660 C   0  0  0  0  0  0  0  0  0  0  0  0
   -2.9190    3.3770   -0.3000 C   0  0  0  0  0  0  0  0  0  0  0  0
   -2.6710    2.0450   -1.0210 C   0  0  2  0  0  0  0  0  0  0  0  0
   -3.3430    2.0310   -2.4050 C   0  0  0  0  0  0  0  0  0  0  0  0
   -4.8470    2.2700   -2.3280 C   0  0  0  0  0  0  0  0  0  0  0  0
   -2.7040    3.0820   -3.3100 C   0  0  0  0  0  0  0  0  0  0  0  0
  1 33  1  0
  1  2  1  6
  1 28  1  0
  2  3  1  0
  3  4  1  1
  3  8  1  0
  4  6  1  0
  4  5  2  0
  6  7  1  0
  8  9  1  6
  8 10  1  0
  8 14  1  0
 10 11  2  0
 11 12  1  0
 12 14  1  0
 12 15  1  0
 12 13  1  1
 15 27  1  0
 15 16  1  6
 16 17  1  0
 17 19  1  0
 17 18  2  0
 19 20  2  0
 20 21  1  0
 21 26  1  0
 21 22  2  0
 22 23  1  0
 23 25  1  0
 23 24  1  0
 25 26  2  0
 28 27  1  6
 28 29  1  0
 29 31  2  0
 29 30  1  0
 31 32  1  0
 32 33  1  0
 33 34  1  6
 34 36  1  0
 34 35  1  0
M  END
>  <id>  (100) 
583

>  <scaffolds>  (100) 
['C1=CCCCC1', 'O=C(C=Cc1c[nH]cn1)OC1CC2C=CCCC2C=CC2C=CC1O2']

>  <name>  (100) 
Sarcodictyin A

>  <formula>  (100) 
C28H36N2O6

>  <SMILES>  (100) 
[H][C@]34C=C(C(=O)OC)[C@@]1(O)C=C[C@](C)(O1)[C@@H](OC(=O)/C=C/c2cn(C)cn2)C[C@@]3([H])C(C)=CC[C@@H]4C(C)C

>  <ChEMBL_id>  (100) 


>  <ZINC_id>  (100) 


>  <PubChem_id>  (100) 


>  <DrugBank_id>  (100) 


>  <CAS_no>  (100) 
113540-81-1

>  <references>  (100) 
[{'journal': {'name': 'Journal of Natural Products', 'id': 5}, 'title': 'Sarcodictyin A and Two Novel Diterpenoid Glycosides, Eleuthosides A and B, from the Soft Coral Eleutherobia aurea', 'year': 1996, 'start_page': 873, 'volume': 59, 'issue': None, 'doi': '10.1021/np960361l', 'isbn': '', 'despositor': {'code': 'NFA', 'first_name': 'Ngonidzashe', 'last_name': 'Faya', 'id': 21}, 'refauthors_set': [{'author': {'first_name': 'Sharon', 'initials': 'S', 'last_name': 'Ketzinel', 'id': 770}, 'first_author': True, 'id': 1096}, {'author': {'first_name': 'Michael', 'initials': 'M', 'last_name': 'Schleyer', 'id': 452}, 'first_author': False, 'id': 1098}, {'author': {'first_name': 'Yehuda', 'initials': 'Y', 'last_name': 'Benayahu', 'id': 535}, 'first_author': False, 'id': 1099}, {'author': {'first_name': 'Yoel', 'initials': 'Y', 'last_name': 'Kashman', 'id': 536}, 'first_author': False, 'id': 1100}], 'id': 365}]

>  <classifications>  (100) 
[{'classification': 'Diterpene', 'id': 771}, {'classification': 'Glycoside', 'id': 781}, {'classification': 'Terpenoid', 'id': 839}, {'classification': 'Phenol lipids (Classyfire)', 'id': 951}]

>  <molecular_mass>  (100) 
496.59

>  <warheads>  (100) 
ab_unsat_carbonyl:1

>  <n_warheads>  (100) 
1

>  <max_tier>  (100) 
1

>  <pains_flag>  (100) 


>  <MW>  (100) 
498.6

>  <cLogP>  (100) 
3.82

>  <HBD>  (100) 
1

>  <HBA>  (100) 
7

>  <TPSA>  (100) 
99.9

>  <ArRings>  (100) 
1

$$$$
SANC00603_minRM1.pdb
     RDKit          3D

 28 32  0  0  1  0  0  0  0  0999 V2000
   -1.7750   -0.8900    0.0860 C   0  0  2  0  0  0  0  0  0  0  0  0
   -1.1820   -2.0700    0.8560 C   0  0  0  0  0  0  0  0  0  0  0  0
    0.3160   -2.1310    0.6100 C   0  0  0  0  0  0  0  0  0  0  0  0
    1.0780   -0.8430    0.9590 C   0  0  1  0  0  0  0  0  0  0  0  0
    2.1680   -0.6360   -0.0950 C   0  0  2  0  0  0  0  0  0  0  0  0
    1.5280   -0.4260   -1.4690 C   0  0  0  0  0  0  0  0  0  0  0  0
    3.1770   -1.7890   -0.2280 C   0  0  0  0  0  0  0  0  0  0  0  0
    4.3800   -1.0950   -0.8290 C   0  0  0  0  0  0  0  0  0  0  0  0
    5.3070   -1.6540   -1.3770 O   0  0  0  0  0  0  0  0  0  0  0  0
    4.2420    0.3720   -0.6410 C   0  0  0  0  0  0  0  0  0  0  0  0
    5.0800    1.2360   -1.2060 C   0  0  0  0  0  0  0  0  0  0  0  0
    5.0440    2.7060   -1.0310 C   0  0  0  0  0  0  0  0  0  0  0  0
    3.0770    0.5620    0.2850 C   0  0  2  0  0  0  0  0  0  0  0  0
    3.6520    0.4480    1.7010 C   0  0  0  0  0  0  0  0  0  0  0  0
    2.2460    1.8250    0.1690 C   0  0  0  0  0  0  0  0  0  0  0  0
    1.0160    1.7260    1.0700 C   0  0  0  0  0  0  0  0  0  0  0  0
    0.2460    0.4170    1.0890 C   0  0  2  0  0  0  0  0  0  0  0  0
   -0.8760    0.4450    2.1210 C   0  0  0  0  0  0  0  0  0  0  0  0
   -1.2210    0.3980    0.6500 C   0  0  2  0  0  0  0  0  0  0  0  0
   -1.7820    1.6210   -0.0260 C   0  0  0  0  0  0  0  0  0  0  0  0
   -3.3030    1.6110   -0.0020 C   0  0  0  0  0  0  0  0  0  0  0  0
   -3.8140    0.3340   -0.6780 C   0  0  2  0  0  0  0  0  0  0  0  0
   -5.2940    0.2820   -0.8880 N   0  0  0  0  0  0  0  0  0  0  0  0
   -6.0980    0.9480    0.1620 C   0  0  0  0  0  0  0  0  0  0  0  0
   -5.6630    0.8380   -2.2170 C   0  0  0  0  0  0  0  0  0  0  0  0
   -3.3230   -0.9190    0.0940 C   0  0  0  0  0  0  0  0  0  0  0  0
   -3.7900   -2.1690   -0.6570 C   0  0  0  0  0  0  0  0  0  0  0  0
   -3.8600   -0.9820    1.5170 C   0  0  0  0  0  0  0  0  0  0  0  0
  1 26  1  0
  1 19  1  0
  1  2  1  1
  2  3  1  0
  4  3  1  6
  4  5  1  0
  4 17  1  0
  5  6  1  6
  5  7  1  0
  5 13  1  0
  7  8  1  0
  8  9  2  0
  8 10  1  0
 10 11  2  0
 10 13  1  0
 11 12  1  0
 13 15  1  0
 13 14  1  1
 15 16  1  0
 17 16  1  6
 17 19  1  0
 17 18  1  0
 19 18  1  1
 19 20  1  0
 20 21  1  0
 21 22  1  0
 22 23  1  1
 22 26  1  0
 23 25  1  0
 23 24  1  0
 26 27  1  0
 26 28  1  0
M  END
>  <id>  (101) 
603

>  <scaffolds>  (101) 
['C1CCC(C2CCCC2)CC1', 'C1CCCCC1', 'C1CC2CCC34CC35CCCCC5CCC4C2C1', 'C1CCC2C(C1)CCC1C3CCCC3CCC21', 'C1CCC2CCCCC2C1']

>  <name>  (101) 
Cyclobuxophylline K

>  <formula>  (101) 
C26H41NO

>  <SMILES>  (101) 
[H][C@@]35CC[C@@]2([H])[C@]1(C)CC(=O)/C(=C/C)[C@@]1(C)CC[C@]24C[C@]34CC[C@H](N(C)C)C5(C)C

>  <ChEMBL_id>  (101) 
CHEMBL1651048

>  <ZINC_id>  (101) 


>  <PubChem_id>  (101) 
 50908834

>  <DrugBank_id>  (101) 


>  <CAS_no>  (101) 
10088-21-8

>  <references>  (101) 
[{'journal': {'name': 'Journal of Natural Products', 'id': 5}, 'title': 'Triterpenoidal Alkaloids from Buxus natalensis and Their Acetylcholinesterase Inhibitory Activity', 'year': 2010, 'start_page': 1858, 'volume': 73, 'issue': None, 'doi': '10.1021/np100494u', 'isbn': '', 'despositor': {'code': 'NFA', 'first_name': 'Ngonidzashe', 'last_name': 'Faya', 'id': 21}, 'refauthors_set': [{'author': {'first_name': 'Wadim', 'initials': 'WL', 'last_name': 'Matochko', 'id': 786}, 'first_author': True, 'id': 1116}, {'author': {'first_name': 'Abin', 'initials': 'A', 'last_name': 'James', 'id': 787}, 'first_author': False, 'id': 1117}, {'author': {'first_name': 'Cheuk', 'initials': 'CW', 'last_name': 'Lam', 'id': 788}, 'first_author': False, 'id': 1118}, {'author': {'first_name': 'Daniel', 'initials': 'DJ', 'last_name': 'Kozera', 'id': 789}, 'first_author': False, 'id': 1119}, {'author': {'first_name': 'Robert', 'initials': 'RM', 'last_name': 'Gengan', 'id': 791}, 'first_author': False, 'id': 1120}, {'author': {'first_name': 'Athar', 'initials': 'A', 'last_name': 'Ata', 'id': 790}, 'first_author': None, 'id': 1389}], 'id': 368}]

>  <classifications>  (101) 
[{'classification': 'Alkaloid', 'id': 738}, {'classification': 'Terpenoid', 'id': 839}, {'classification': 'Triterpene', 'id': 842}, {'classification': 'Phenol lipids (Classyfire)', 'id': 951}]

>  <molecular_mass>  (101) 
383.61

>  <warheads>  (101) 
ab_unsat_carbonyl:1

>  <n_warheads>  (101) 
1

>  <max_tier>  (101) 
1

>  <pains_flag>  (101) 


>  <MW>  (101) 
383.6

>  <cLogP>  (101) 
5.86

>  <HBD>  (101) 
0

>  <HBA>  (101) 
2

>  <TPSA>  (101) 
20.3

>  <ArRings>  (101) 
0

$$$$
SANC00606_minRM1.pdb
     RDKit          3D

 17 17  0  0  0  0  0  0  0  0999 V2000
   -8.1050    0.5280    0.0540 N   0  0  0  0  0  0  0  0  0  0  0  0
   -6.7670    1.1150   -0.0290 C   0  0  0  0  0  0  0  0  0  0  0  0
   -5.7140   -0.0050   -0.0120 C   0  0  0  0  0  0  0  0  0  0  0  0
   -4.3100    0.5950   -0.0070 C   0  0  0  0  0  0  0  0  0  0  0  0
   -3.2680   -0.5300    0.0050 C   0  0  0  0  0  0  0  0  0  0  0  0
   -1.9090    0.0240    0.0020 N   0  0  0  0  0  0  0  0  0  0  0  0
   -0.8110   -0.8250   -0.0140 C   0  0  0  0  0  0  0  0  0  0  0  0
   -0.9710   -2.0470   -0.0330 O   0  0  0  0  0  0  0  0  0  0  0  0
    0.5240   -0.1870   -0.0120 C   0  0  0  0  0  0  0  0  0  0  0  0
    1.6250   -0.9480   -0.0220 C   0  0  0  0  0  0  0  0  0  0  0  0
    2.9740   -0.4010   -0.0080 C   0  0  0  0  0  0  0  0  0  0  0  0
    3.2030    0.9730    0.0240 C   0  0  0  0  0  0  0  0  0  0  0  0
    4.4960    1.4760    0.0760 C   0  0  0  0  0  0  0  0  0  0  0  0
    5.5650    0.5810    0.0920 C   0  0  0  0  0  0  0  0  0  0  0  0
    6.8590    0.9800    0.1240 O   0  0  0  0  0  0  0  0  0  0  0  0
    5.3600   -0.8020    0.0300 C   0  0  0  0  0  0  0  0  0  0  0  0
    4.0630   -1.2810   -0.0180 C   0  0  0  0  0  0  0  0  0  0  0  0
  1  2  1  0
  2  3  1  0
  3  4  1  0
  4  5  1  0
  5  6  1  0
  6  7  1  0
  7  8  2  0
  7  9  1  0
  9 10  2  0
 10 11  1  0
 11 17  2  0
 11 12  1  0
 12 13  2  0
 13 14  1  0
 14 16  2  0
 14 15  1  0
 16 17  1  0
M  END
>  <id>  (102) 
606

>  <scaffolds>  (102) 
['c1ccccc1']

>  <name>  (102) 
p-Coumaroylputrescine

>  <formula>  (102) 
C13H18N2O2

>  <SMILES>  (102) 
NCCCCNC(=O)/C=C/c1ccc(O)cc1

>  <ChEMBL_id>  (102) 
CHEMBL373847

>  <ZINC_id>  (102) 


>  <PubChem_id>  (102) 
 6439562

>  <DrugBank_id>  (102) 


>  <CAS_no>  (102) 
34136-53-3

>  <references>  (102) 
[{'journal': {'name': 'Journal of Natural Products', 'id': 5}, 'title': 'Triterpenoidal Alkaloids from Buxus natalensis and Their Acetylcholinesterase Inhibitory Activity', 'year': 2010, 'start_page': 1858, 'volume': 73, 'issue': None, 'doi': '10.1021/np100494u', 'isbn': '', 'despositor': {'code': 'NFA', 'first_name': 'Ngonidzashe', 'last_name': 'Faya', 'id': 21}, 'refauthors_set': [{'author': {'first_name': 'Wadim', 'initials': 'WL', 'last_name': 'Matochko', 'id': 786}, 'first_author': True, 'id': 1116}, {'author': {'first_name': 'Abin', 'initials': 'A', 'last_name': 'James', 'id': 787}, 'first_author': False, 'id': 1117}, {'author': {'first_name': 'Cheuk', 'initials': 'CW', 'last_name': 'Lam', 'id': 788}, 'first_author': False, 'id': 1118}, {'author': {'first_name': 'Daniel', 'initials': 'DJ', 'last_name': 'Kozera', 'id': 789}, 'first_author': False, 'id': 1119}, {'author': {'first_name': 'Robert', 'initials': 'RM', 'last_name': 'Gengan', 'id': 791}, 'first_author': False, 'id': 1120}, {'author': {'first_name': 'Athar', 'initials': 'A', 'last_name': 'Ata', 'id': 790}, 'first_author': None, 'id': 1389}], 'id': 368}]

>  <classifications>  (102) 
[{'classification': 'Alkaloid', 'id': 738}, {'classification': 'Terpenoid', 'id': 839}, {'classification': 'Triterpene', 'id': 842}, {'classification': 'Cinnamic acids and derivatives (Classyfire)', 'id': 975}]

>  <molecular_mass>  (102) 
234.29

>  <warheads>  (102) 
ab_unsat_carbonyl:1

>  <n_warheads>  (102) 
1

>  <max_tier>  (102) 
1

>  <pains_flag>  (102) 


>  <MW>  (102) 
234.3

>  <cLogP>  (102) 
1.26

>  <HBD>  (102) 
3

>  <HBA>  (102) 
3

>  <TPSA>  (102) 
75.3

>  <ArRings>  (102) 
1

$$$$
SANC00612_minRM1.pdb
     RDKit          3D

 21 23  0  0  0  0  0  0  0  0999 V2000
   -1.1520    2.5060   -0.1340 O   0  0  0  0  0  0  0  0  0  0  0  0
   -1.0330    1.2780   -0.1020 C   0  0  0  0  0  0  0  0  0  0  0  0
    0.2650    0.5920   -0.1240 C   0  0  0  0  0  0  0  0  0  0  0  0
    1.4000    1.2460    0.1600 C   0  0  0  0  0  0  0  0  0  0  0  0
    2.7200    0.6310    0.1210 C   0  0  0  0  0  0  0  0  0  0  0  0
    3.1720   -0.0120   -1.0260 C   0  0  0  0  0  0  0  0  0  0  0  0
    4.4670   -0.5180   -1.0870 C   0  0  0  0  0  0  0  0  0  0  0  0
    5.2820   -0.4070    0.0420 C   0  0  0  0  0  0  0  0  0  0  0  0
    6.5430   -0.8990    0.1100 O   0  0  0  0  0  0  0  0  0  0  0  0
    4.8300    0.2170    1.2130 C   0  0  0  0  0  0  0  0  0  0  0  0
    3.5510    0.7450    1.2410 C   0  0  0  0  0  0  0  0  0  0  0  0
    0.2140   -0.8520   -0.5020 C   0  0  0  0  0  0  0  0  0  0  0  0
   -0.8390   -1.5540    0.1240 O   0  0  0  0  0  0  0  0  0  0  0  0
   -2.0570   -0.9560    0.1220 C   0  0  0  0  0  0  0  0  0  0  0  0
   -3.1410   -1.8020    0.2970 C   0  0  0  0  0  0  0  0  0  0  0  0
   -4.4100   -1.2120    0.3380 C   0  0  0  0  0  0  0  0  0  0  0  0
   -5.5280   -1.9590    0.4480 O   0  0  0  0  0  0  0  0  0  0  0  0
   -4.6230    0.1570    0.1910 C   0  0  0  0  0  0  0  0  0  0  0  0
   -3.4970    0.9760    0.0530 C   0  0  0  0  0  0  0  0  0  0  0  0
   -3.7180    2.2930   -0.0180 O   0  0  0  0  0  0  0  0  0  0  0  0
   -2.2020    0.4310   -0.0020 C   0  0  0  0  0  0  0  0  0  0  0  0
  1  2  2  0
  2  3  1  0
  2 21  1  0
  3 12  1  0
  3  4  2  0
  4  5  1  0
  5  6  1  0
  5 11  2  0
  6  7  2  0
  7  8  1  0
  8  9  1  0
  8 10  2  0
 10 11  1  0
 12 13  1  0
 13 14  1  0
 14 21  1  0
 14 15  2  0
 15 16  1  0
 16 18  2  0
 16 17  1  0
 18 19  1  0
 19 20  1  0
 19 21  2  0
M  END
>  <id>  (103) 
612

>  <scaffolds>  (103) 
['c1ccccc1', 'O=C1C(=Cc2ccccc2)COc2ccccc21', 'O=C(C=Cc1ccccc1)c1ccccc1', 'C(=Cc1ccccc1)Cc1ccccc1']

>  <name>  (103) 
(E)-5,7-dihydroxy-3-(4-hydroxybenzylidene)chroman-4-one

>  <formula>  (103) 
C16H12O5

>  <SMILES>  (103) 
O=C2/C(=C/c1ccc(O)cc1)COc3cc(O)cc(O)c23

>  <ChEMBL_id>  (103) 


>  <ZINC_id>  (103) 


>  <PubChem_id>  (103) 


>  <DrugBank_id>  (103) 


>  <CAS_no>  (103) 
34818-83-2

>  <references>  (103) 
[{'journal': {'name': 'Phytochemistry', 'id': 10}, 'title': 'Homoisoflavanones and stilbenoids from Scilla nervosa', 'year': 1999, 'start_page': 947, 'volume': 51, 'issue': 7, 'doi': '10.1016/S0031-9422(99)00155-7', 'isbn': '', 'despositor': {'code': 'rah', 'first_name': 'Rowan', 'last_name': 'Hatherley', 'id': 20}, 'refauthors_set': [{'author': {'first_name': 'Vuyisile', 'initials': 'V', 'last_name': 'Bangani', 'id': 802}, 'first_author': True, 'id': 1283}, {'author': {'first_name': 'Neil', 'initials': 'NR', 'last_name': 'Crouch', 'id': 524}, 'first_author': None, 'id': 1284}, {'author': {'first_name': 'Dulcie', 'initials': 'DA', 'last_name': 'Mulholland', 'id': 525}, 'first_author': None, 'id': 1285}], 'id': 372}]

>  <classifications>  (103) 
[{'classification': 'Flavonoids', 'id': 776}, {'classification': 'Homoisoflavonoid', 'id': 783}, {'classification': 'Homoisoflavonoids (Classyfire)', 'id': 964}]

>  <molecular_mass>  (103) 
284.26

>  <warheads>  (103) 
ab_unsat_carbonyl:1

>  <n_warheads>  (103) 
1

>  <max_tier>  (103) 
1

>  <pains_flag>  (103) 


>  <MW>  (103) 
284.3

>  <cLogP>  (103) 
2.46

>  <HBD>  (103) 
3

>  <HBA>  (103) 
5

>  <TPSA>  (103) 
87.0

>  <ArRings>  (103) 
2

$$$$
SANC00616_minRM1.pdb
     RDKit          3D

 62 68  0  0  1  0  0  0  0  0999 V2000
    0.3190   -2.2060   -0.8540 C   0  0  2  0  0  0  0  0  0  0  0  0
   -0.6140   -1.1800   -0.7010 O   0  0  0  0  0  0  0  0  0  0  0  0
   -1.8850   -1.4180   -1.2380 C   0  0  1  0  0  0  0  0  0  0  0  0
   -2.8930   -1.7300   -0.1120 C   0  0  0  0  0  0  0  0  0  0  0  0
   -4.1960   -1.2130   -0.7100 C   0  0  1  0  0  0  0  0  0  0  0  0
   -5.3920   -1.0790    0.2220 C   0  0  2  0  0  0  0  0  0  0  0  0
   -5.7590   -2.4360    0.8190 C   0  0  0  0  0  0  0  0  0  0  0  0
   -7.0720   -2.3860    1.5110 C   0  0  0  0  0  0  0  0  0  0  0  0
   -7.9760   -1.4260    1.3200 C   0  0  0  0  0  0  0  0  0  0  0  0
   -9.2340   -1.4140    2.1240 C   0  0  0  0  0  0  0  0  0  0  0  0
  -10.4570   -1.2270    1.2140 C   0  0  1  0  0  0  0  0  0  0  0  0
  -11.6160   -1.0370    1.9790 O   0  0  0  0  0  0  0  0  0  0  0  0
  -10.2970    0.0540    0.3890 C   0  0  0  0  0  0  0  0  0  0  0  0
   -9.0400   -0.0530   -0.4610 C   0  0  0  0  0  0  0  0  0  0  0  0
   -7.7720   -0.2690    0.3830 C   0  0  1  0  0  0  0  0  0  0  0  0
   -7.5050    0.9710    1.2420 C   0  0  0  0  0  0  0  0  0  0  0  0
   -6.5900   -0.5510   -0.5810 C   0  0  1  0  0  0  0  0  0  0  0  0
   -6.2620    0.6850   -1.4300 C   0  0  0  0  0  0  0  0  0  0  0  0
   -4.9480    0.5850   -2.2040 C   0  0  0  0  0  0  0  0  0  0  0  0
   -3.8070    0.1620   -1.2800 C   0  0  1  0  0  0  0  0  0  0  0  0
   -3.6520    1.2030   -0.1770 C   0  0  0  0  0  0  0  0  0  0  0  0
   -2.4300   -0.1320   -1.9760 C   0  0  2  0  0  0  0  0  0  0  0  0
   -2.7780   -0.5000   -3.2840 O   0  0  0  0  0  0  0  0  0  0  0  0
   -1.5050    1.1040   -2.1010 C   0  0  2  0  0  0  0  0  0  0  0  0
   -0.3100    0.8410   -3.0200 C   0  0  0  0  0  0  0  0  0  0  0  0
   -0.8980    1.6620   -0.8260 C   0  0  0  0  0  0  0  0  0  0  0  0
   -0.3900    0.9710    0.0310 O   0  0  0  0  0  0  0  0  0  0  0  0
   -0.8370    3.1760   -0.7290 C   0  0  0  0  0  0  0  0  0  0  0  0
   -0.6210    3.6180    0.7150 C   0  0  0  0  0  0  0  0  0  0  0  0
   -0.6710    5.1400    0.8780 C   0  0  0  0  0  0  0  0  0  0  0  0
   -0.6730    5.4840    2.3660 C   0  0  0  0  0  0  0  0  0  0  0  0
    0.5210    5.8100    0.2070 C   0  0  0  0  0  0  0  0  0  0  0  0
   -0.2010   -3.2780   -0.1020 O   0  0  0  0  0  0  0  0  0  0  0  0
    0.6590   -4.3780   -0.0190 C   0  0  0  0  0  0  0  0  0  0  0  0
    2.0080   -4.0080    0.6420 C   0  0  2  0  0  0  0  0  0  0  0  0
    1.8160   -3.5180    1.9310 O   0  0  0  0  0  0  0  0  0  0  0  0
    2.6320   -2.8470   -0.1650 C   0  0  2  0  0  0  0  0  0  0  0  0
    3.7650   -2.3740    0.5130 O   0  0  0  0  0  0  0  0  0  0  0  0
    4.9910   -2.6450   -0.0980 C   0  0  2  0  0  0  0  0  0  0  0  0
    5.1330   -4.0430    0.0460 O   0  0  0  0  0  0  0  0  0  0  0  0
    6.3770   -4.5230   -0.3780 C   0  0  0  0  0  0  0  0  0  0  0  0
    7.5000   -3.9100    0.4880 C   0  0  1  0  0  0  0  0  0  0  0  0
    8.7450   -4.2860   -0.0230 O   0  0  0  0  0  0  0  0  0  0  0  0
    7.4560   -2.3680    0.3390 C   0  0  2  0  0  0  0  0  0  0  0  0
    8.3340   -1.7660    1.2370 O   0  0  0  0  0  0  0  0  0  0  0  0
    6.0460   -1.8890    0.7620 C   0  0  1  0  0  0  0  0  0  0  0  0
    5.9440   -0.5490    0.3540 O   0  0  0  0  0  0  0  0  0  0  0  0
    5.9090    0.4500    1.2850 C   0  0  0  0  0  0  0  0  0  0  0  0
    5.9210    0.2130    2.4750 O   0  0  0  0  0  0  0  0  0  0  0  0
    5.8740    1.7650    0.6310 C   0  0  0  0  0  0  0  0  0  0  0  0
    5.0780    2.7210    1.1210 C   0  0  0  0  0  0  0  0  0  0  0  0
    4.9990    4.0570    0.5410 C   0  0  0  0  0  0  0  0  0  0  0  0
    5.6110    4.3650   -0.6740 C   0  0  0  0  0  0  0  0  0  0  0  0
    5.5280    5.6500   -1.1940 C   0  0  0  0  0  0  0  0  0  0  0  0
    4.8410    6.6380   -0.5020 C   0  0  0  0  0  0  0  0  0  0  0  0
    4.2230    6.3360    0.7060 C   0  0  0  0  0  0  0  0  0  0  0  0
    4.2950    5.0510    1.2240 C   0  0  0  0  0  0  0  0  0  0  0  0
    1.6260   -1.6710   -0.2000 C   0  0  1  0  0  0  0  0  0  0  0  0
    2.1390   -0.7270   -1.1080 O   0  0  0  0  0  0  0  0  0  0  0  0
    2.6150    0.4660   -0.6520 C   0  0  0  0  0  0  0  0  0  0  0  0
    3.0170    1.3430   -1.7970 C   0  0  0  0  0  0  0  0  0  0  0  0
    2.6910    0.7250    0.5300 O   0  0  0  0  0  0  0  0  0  0  0  0
  1  2  1  1
  1 58  1  0
  1 33  1  0
  3  2  1  1
  3 22  1  0
  3  4  1  0
  5  4  1  1
  5 20  1  0
  5  6  1  0
  6 17  1  0
  6  7  1  6
  7  8  1  0
  8  9  2  0
  9 15  1  0
  9 10  1  0
 10 11  1  0
 11 13  1  0
 11 12  1  1
 13 14  1  0
 14 15  1  0
 15 17  1  0
 15 16  1  1
 17 18  1  1
 18 19  1  0
 19 20  1  0
 20 22  1  0
 20 21  1  1
 22 23  1  6
 22 24  1  0
 24 25  1  6
 24 26  1  0
 26 28  1  0
 26 27  2  0
 28 29  1  0
 29 30  1  0
 30 32  1  0
 30 31  1  0
 33 34  1  0
 34 35  1  0
 35 37  1  0
 35 36  1  1
 37 58  1  0
 37 38  1  1
 39 38  1  1
 39 40  1  0
 39 46  1  0
 40 41  1  0
 41 42  1  0
 42 43  1  6
 42 44  1  0
 44 46  1  0
 44 45  1  1
 46 47  1  6
 47 48  1  0
 48 50  1  0
 48 49  2  0
 50 51  2  0
 51 52  1  0
 52 53  2  0
 52 57  1  0
 53 54  1  0
 54 55  2  0
 55 56  1  0
 56 57  2  0
 58 59  1  6
 59 60  1  0
 60 61  1  0
 60 62  2  0
M  END
>  <id>  (104) 
616

>  <scaffolds>  (104) 
['c1ccccc1', 'C1=C2CCCCC2C2CCC3CCCC3C2C1', 'C1=CCCCC1', 'C1=CCC2CCCCC2C1', 'C1=C2CCCCC2C2CCC3CC(OC4CCCCO4)CC3C2C1', 'C1CCOCC1', 'C1CCCCC1', 'C1=C2CCCCC2C2CCC3CC(OC4CC(OC5CCCCO5)CCO4)CC3C2C1', 'C1=C2CCCCC2CCC1', 'O=C(C=Cc1ccccc1)OC1CCCOC1OC1CCOC(OC2CC3CCC4C5CCCCC5=CCC4C3C2)C1']

>  <name>  (104) 
3[beta],16[beta],17[alpha]-trihydroxycholest-5-en-22-one 16-0-{0-(2-E-cinnamoyl-[beta]-D-xylopyranosyl)-(1[to]3)-2-O-acetyl-[alpha]-L-arabinopyranoside}

>  <formula>  (104) 
C48H68O14

>  <SMILES>  (104) 
[H][C@@]7(O[C@H]4C[C@@]3([H])[C@]2([H])CC=C1C[C@@H](O)CC[C@]1(C)[C@@]2([H])CC[C@]3(C)[C@@]4(O)[C@H](C)C(=O)CCC(C)C)OC[C@H](O)[C@H](O[C@]5([H])OC[C@@H](O)[C@H](O)[C@H]5OC(=O)/C=C/c6ccccc6)[C@H]7OC(C)=O

>  <ChEMBL_id>  (104) 


>  <ZINC_id>  (104) 


>  <PubChem_id>  (104) 


>  <DrugBank_id>  (104) 


>  <CAS_no>  (104) 
183729-11-5

>  <references>  (104) 
[{'journal': {'name': 'Bioorganic & Medicinal Chemistry Letters', 'id': 28}, 'title': 'Cholestane glycosides with potent cytostatic activities on various tumor cells from Ornithogalum saundersiae bulbs', 'year': 1997, 'start_page': 633, 'volume': 7, 'issue': 5, 'doi': '10.1016/S0960-894X(97)00071-1', 'isbn': '', 'despositor': {'code': 'NFA', 'first_name': 'Ngonidzashe', 'last_name': 'Faya', 'id': 21}, 'refauthors_set': [{'author': {'first_name': 'Yoshihiro ', 'initials': 'Y', 'last_name': 'Mimaki', 'id': 643}, 'first_author': True, 'id': 890}, {'author': {'first_name': 'Minpei', 'initials': 'M', 'last_name': 'Kuroda', 'id': 644}, 'first_author': None, 'id': 1217}, {'author': {'first_name': 'Aiko', 'initials': 'A', 'last_name': 'Kameyama', 'id': 652}, 'first_author': None, 'id': 1218}, {'author': {'first_name': 'Yutaka', 'initials': 'Y', 'last_name': 'Sashida', 'id': 645}, 'first_author': None, 'id': 1219}, {'author': {'first_name': 'Kitaro ', 'initials': 'K', 'last_name': 'Oka', 'id': 642}, 'first_author': None, 'id': 1220}], 'id': 305}]

>  <classifications>  (104) 
[{'classification': 'Cholestane', 'id': 761}, {'classification': 'Glycoside', 'id': 781}, {'classification': 'Steroids and steroid derivatives (Classyfire)', 'id': 942}]

>  <molecular_mass>  (104) 
869.04

>  <warheads>  (104) 
ab_unsat_carbonyl:1

>  <n_warheads>  (104) 
1

>  <max_tier>  (104) 
1

>  <pains_flag>  (104) 


>  <MW>  (104) 
869.1

>  <cLogP>  (104) 
4.42

>  <HBD>  (104) 
5

>  <HBA>  (104) 
14

>  <TPSA>  (104) 
207.7

>  <ArRings>  (104) 
1

$$$$
SANC00618_minRM1.pdb
     RDKit          3D

 73 80  0  0  1  0  0  0  0  0999 V2000
    2.3260    1.8590    1.2890 C   0  0  2  0  0  0  0  0  0  0  0  0
    1.5890    0.6790    1.1580 O   0  0  0  0  0  0  0  0  0  0  0  0
    0.3350    0.6640    1.7860 C   0  0  1  0  0  0  0  0  0  0  0  0
   -0.7920    0.9200    0.7660 C   0  0  0  0  0  0  0  0  0  0  0  0
   -1.9630    0.2090    1.4340 C   0  0  1  0  0  0  0  0  0  0  0  0
   -3.2380    0.0330    0.6270 C   0  0  2  0  0  0  0  0  0  0  0  0
   -3.8120    1.3930    0.2250 C   0  0  0  0  0  0  0  0  0  0  0  0
   -5.1830    1.2560   -0.3330 C   0  0  0  0  0  0  0  0  0  0  0  0
   -5.9470    0.1760   -0.1630 C   0  0  0  0  0  0  0  0  0  0  0  0
   -7.2700    0.0820   -0.8500 C   0  0  0  0  0  0  0  0  0  0  0  0
   -8.3670   -0.3410    0.1340 C   0  0  1  0  0  0  0  0  0  0  0  0
   -9.5420   -0.6720   -0.5850 O   0  0  0  0  0  0  0  0  0  0  0  0
  -10.3060    0.4010   -1.0380 C   0  0  2  0  0  0  0  0  0  0  0  0
  -10.9250    0.9070    0.1190 O   0  0  0  0  0  0  0  0  0  0  0  0
  -11.8080    1.9660   -0.1540 C   0  0  2  0  0  0  0  0  0  0  0  0
  -12.3040    2.4350    1.2300 C   0  0  0  0  0  0  0  0  0  0  0  0
  -11.2220    3.1120    1.8080 O   0  0  0  0  0  0  0  0  0  0  0  0
  -12.9890    1.4260   -1.0000 C   0  0  1  0  0  0  0  0  0  0  0  0
  -13.7890    2.5330   -1.2770 O   0  0  0  0  0  0  0  0  0  0  0  0
  -12.4230    0.8380   -2.3190 C   0  0  2  0  0  0  0  0  0  0  0  0
  -13.5180    0.2670   -2.9640 O   0  0  0  0  0  0  0  0  0  0  0  0
  -11.3790   -0.2450   -1.9630 C   0  0  1  0  0  0  0  0  0  0  0  0
  -10.7970   -0.6120   -3.1770 O   0  0  0  0  0  0  0  0  0  0  0  0
   -7.9780   -1.6540    0.8250 C   0  0  0  0  0  0  0  0  0  0  0  0
   -6.6550   -1.4750    1.5540 C   0  0  0  0  0  0  0  0  0  0  0  0
   -5.5150   -1.0280    0.6250 C   0  0  1  0  0  0  0  0  0  0  0  0
   -5.1820   -2.1370   -0.3760 C   0  0  0  0  0  0  0  0  0  0  0  0
   -4.2790   -0.6880    1.4980 C   0  0  1  0  0  0  0  0  0  0  0  0
   -3.7360   -1.9380    2.2030 C   0  0  0  0  0  0  0  0  0  0  0  0
   -2.3650   -1.7480    2.8550 C   0  0  0  0  0  0  0  0  0  0  0  0
   -1.3800   -1.1540    1.8440 C   0  0  1  0  0  0  0  0  0  0  0  0
   -1.2860   -2.1220    0.6690 C   0  0  0  0  0  0  0  0  0  0  0  0
    0.0360   -0.7590    2.4080 C   0  0  2  0  0  0  0  0  0  0  0  0
   -0.1770   -0.6010    3.7840 O   0  0  0  0  0  0  0  0  0  0  0  0
    1.1240   -1.8460    2.2410 C   0  0  2  0  0  0  0  0  0  0  0  0
    2.3860   -1.5280    3.0440 C   0  0  0  0  0  0  0  0  0  0  0  0
    1.5570   -2.1180    0.8120 C   0  0  0  0  0  0  0  0  0  0  0  0
    1.5520   -1.2750   -0.0580 O   0  0  0  0  0  0  0  0  0  0  0  0
    2.0430   -3.5280    0.5300 C   0  0  0  0  0  0  0  0  0  0  0  0
    2.0830   -3.8030   -0.9710 C   0  0  0  0  0  0  0  0  0  0  0  0
    2.3340   -5.2810   -1.2870 C   0  0  0  0  0  0  0  0  0  0  0  0
    2.2290   -5.4970   -2.7950 C   0  0  0  0  0  0  0  0  0  0  0  0
    3.7090   -5.7290   -0.8070 C   0  0  0  0  0  0  0  0  0  0  0  0
    1.5330    2.8510    0.6800 O   0  0  0  0  0  0  0  0  0  0  0  0
    2.1640    4.0970    0.5890 C   0  0  0  0  0  0  0  0  0  0  0  0
    3.4520    4.0190   -0.2640 C   0  0  2  0  0  0  0  0  0  0  0  0
    3.1800    3.5620   -1.5500 O   0  0  0  0  0  0  0  0  0  0  0  0
    4.3830    2.9630    0.3770 C   0  0  2  0  0  0  0  0  0  0  0  0
    5.4700    2.7410   -0.4880 O   0  0  0  0  0  0  0  0  0  0  0  0
    6.7080    3.1980   -0.0220 C   0  0  2  0  0  0  0  0  0  0  0  0
    6.5840    4.6000   -0.0980 O   0  0  0  0  0  0  0  0  0  0  0  0
    7.7730    5.2830    0.1750 C   0  0  0  0  0  0  0  0  0  0  0  0
    8.8440    4.9170   -0.8740 C   0  0  1  0  0  0  0  0  0  0  0  0
   10.0620    5.4990   -0.5310 O   0  0  0  0  0  0  0  0  0  0  0  0
    9.0920    3.3890   -0.8190 C   0  0  2  0  0  0  0  0  0  0  0  0
    9.9150    2.9920   -1.8730 O   0  0  0  0  0  0  0  0  0  0  0  0
    7.7400    2.6780   -1.0680 C   0  0  1  0  0  0  0  0  0  0  0  0
    7.9390    1.3280   -0.7350 O   0  0  0  0  0  0  0  0  0  0  0  0
    7.9410    0.3720   -1.7050 C   0  0  0  0  0  0  0  0  0  0  0  0
    7.7420    0.6450   -2.8680 O   0  0  0  0  0  0  0  0  0  0  0  0
    8.2190   -0.9490   -1.1240 C   0  0  0  0  0  0  0  0  0  0  0  0
    7.6180   -2.0290   -1.6350 C   0  0  0  0  0  0  0  0  0  0  0  0
    7.8410   -3.3750   -1.1200 C   0  0  0  0  0  0  0  0  0  0  0  0
    8.6190   -3.6030    0.0150 C   0  0  0  0  0  0  0  0  0  0  0  0
    8.8140   -4.8970    0.4840 C   0  0  0  0  0  0  0  0  0  0  0  0
    8.2520   -5.9730   -0.1900 C   0  0  0  0  0  0  0  0  0  0  0  0
    7.4850   -5.7520   -1.3300 C   0  0  0  0  0  0  0  0  0  0  0  0
    7.2660   -4.4600   -1.7850 C   0  0  0  0  0  0  0  0  0  0  0  0
    3.6210    1.6180    0.4560 C   0  0  1  0  0  0  0  0  0  0  0  0
    4.4150    0.7590    1.2410 O   0  0  0  0  0  0  0  0  0  0  0  0
    4.9550   -0.3610    0.6830 C   0  0  0  0  0  0  0  0  0  0  0  0
    5.7060   -1.1550    1.7080 C   0  0  0  0  0  0  0  0  0  0  0  0
    4.8100   -0.6410   -0.4910 O   0  0  0  0  0  0  0  0  0  0  0  0
  1 69  1  0
  1 44  1  0
  1  2  1  6
  3  2  1  6
  3  4  1  0
  3 33  1  0
  5  4  1  6
  5  6  1  0
  5 31  1  0
  6  7  1  1
  6 28  1  0
  7  8  1  0
  8  9  2  0
  9 10  1  0
  9 26  1  0
 10 11  1  0
 11 12  1  6
 11 24  1  0
 13 12  1  1
 13 22  1  0
 13 14  1  0
 14 15  1  0
 15 18  1  0
 15 16  1  1
 16 17  1  0
 18 20  1  0
 18 19  1  6
 20 21  1  6
 20 22  1  0
 22 23  1  6
 24 25  1  0
 25 26  1  0
 26 27  1  6
 26 28  1  0
 28 29  1  6
 29 30  1  0
 30 31  1  0
 31 32  1  6
 31 33  1  0
 33 35  1  0
 33 34  1  1
 35 37  1  0
 35 36  1  1
 37 38  2  0
 37 39  1  0
 39 40  1  0
 40 41  1  0
 41 42  1  0
 41 43  1  0
 44 45  1  0
 45 46  1  0
 46 47  1  6
 46 48  1  0
 48 49  1  6
 48 69  1  0
 50 49  1  6
 50 57  1  0
 50 51  1  0
 51 52  1  0
 52 53  1  0
 53 55  1  0
 53 54  1  1
 55 56  1  6
 55 57  1  0
 57 58  1  1
 58 59  1  0
 59 60  2  0
 59 61  1  0
 61 62  2  0
 62 63  1  0
 63 68  1  0
 63 64  2  0
 64 65  1  0
 65 66  2  0
 66 67  1  0
 67 68  2  0
 69 70  1  1
 70 71  1  0
 71 73  2  0
 71 72  1  0
M  END
>  <id>  (105) 
618

>  <scaffolds>  (105) 
['c1ccccc1', 'C1=C2CCCCC2C2CCC3CCCC3C2C1', 'C1=CCCCC1', 'C1=CCC2CCCCC2C1', 'C1=C2CCCCC2C2CCC3CC(OC4CCCCO4)CC3C2C1', 'C1CCOCC1', 'C1=C2CC(OC3CCCCO3)CCC2C2CCC3CCCC3C2C1', 'C1=C2CC(OC3CCCCO3)CCC2C2CCC3CC(OC4CCCCO4)CC3C2C1', 'C1CCCCC1', 'O=C(C=Cc1ccccc1)OC1CCCOC1OC1CCOC(OC2CC3CCC4C5CCC(OC6CCCCO6)CC5=CCC4C3C2)C1', 'C1=C2CCCCC2C2CCC3CC(OC4CC(OC5CCCCO5)CCO4)CC3C2C1', 'C1=C2CCCCC2CCC1', 'C1=C2CC(OC3CCCCO3)CCC2C2CCC3CC(OC4CC(OC5CCCCO5)CCO4)CC3C2C1', 'O=C(C=Cc1ccccc1)OC1CCCOC1OC1CCOC(OC2CC3CCC4C5CCCCC5=CCC4C3C2)C1']

>  <name>  (105) 
3[beta],16[beta],17[alpha]-trihydroxycholest-5-en-22-one 3-O-[beta]-D-glucopyranoside 16-O-{O-(2-E-cinnamoyl-[beta]-D-xyopyranosyl)-(1[to]3)-2-O-acetyl-[alpha]-L-arabinopyranoside}

>  <formula>  (105) 
C54H78O19

>  <SMILES>  (105) 
[H][C@@]8(O[C@H]5C[C@@]4([H])[C@]3([H])CC=C2C[C@@H](O[C@]1([H])O[C@H](CO)[C@@H](O)[C@H](O)[C@H]1O)CC[C@]2(C)[C@@]3([H])CC[C@]4(C)[C@@]5(O)[C@H](C)C(=O)CCC(C)C)OC[C@H](O)[C@H](O[C@]6([H])OC[C@@H](O)[C@H](O)[C@H]6OC(=O)/C=C/c7ccccc7)[C@H]8OC(C)=O

>  <ChEMBL_id>  (105) 


>  <ZINC_id>  (105) 


>  <PubChem_id>  (105) 


>  <DrugBank_id>  (105) 


>  <CAS_no>  (105) 
183729-13-7

>  <references>  (105) 
[{'journal': {'name': 'Bioorganic & Medicinal Chemistry Letters', 'id': 28}, 'title': 'Cholestane glycosides with potent cytostatic activities on various tumor cells from Ornithogalum saundersiae bulbs', 'year': 1997, 'start_page': 633, 'volume': 7, 'issue': 5, 'doi': '10.1016/S0960-894X(97)00071-1', 'isbn': '', 'despositor': {'code': 'NFA', 'first_name': 'Ngonidzashe', 'last_name': 'Faya', 'id': 21}, 'refauthors_set': [{'author': {'first_name': 'Yoshihiro ', 'initials': 'Y', 'last_name': 'Mimaki', 'id': 643}, 'first_author': True, 'id': 890}, {'author': {'first_name': 'Minpei', 'initials': 'M', 'last_name': 'Kuroda', 'id': 644}, 'first_author': None, 'id': 1217}, {'author': {'first_name': 'Aiko', 'initials': 'A', 'last_name': 'Kameyama', 'id': 652}, 'first_author': None, 'id': 1218}, {'author': {'first_name': 'Yutaka', 'initials': 'Y', 'last_name': 'Sashida', 'id': 645}, 'first_author': None, 'id': 1219}, {'author': {'first_name': 'Kitaro ', 'initials': 'K', 'last_name': 'Oka', 'id': 642}, 'first_author': None, 'id': 1220}], 'id': 305}, {'journal': {'name': 'Chemical and Pharmaceutical Bulletin', 'id': 33}, 'title': 'Cholestane Glycosides from the Bulbs of Galtonia candicans and Their Cytotoxicity', 'year': 2001, 'start_page': 1042, 'volume': 49, 'issue': 8, 'doi': '10.1248/cpb.49.1042', 'isbn': '', 'despositor': {'code': 'NFA', 'first_name': 'Ngonidzashe', 'last_name': 'Faya', 'id': 21}, 'refauthors_set': [{'author': {'first_name': 'Minpei', 'initials': 'M', 'last_name': 'Kuroda', 'id': 644}, 'first_author': True, 'id': 1191}, {'author': {'first_name': 'Yoshihiro ', 'initials': 'Y', 'last_name': 'Mimaki', 'id': 643}, 'first_author': None, 'id': 1192}, {'author': {'first_name': 'Akihito ', 'initials': 'A', 'last_name': 'Yokosuka', 'id': 650}, 'first_author': None, 'id': 1193}, {'author': {'first_name': 'Yutaka', 'initials': 'Y', 'last_name': 'Sashida', 'id': 645}, 'first_author': None, 'id': 1194}], 'id': 339}]

>  <classifications>  (105) 
[{'classification': 'Cholestane', 'id': 761}, {'classification': 'Glycoside', 'id': 781}, {'classification': 'Steroids and steroid derivatives (Classyfire)', 'id': 942}]

>  <molecular_mass>  (105) 
1031.18

>  <warheads>  (105) 
ab_unsat_carbonyl:1

>  <n_warheads>  (105) 
1

>  <max_tier>  (105) 
1

>  <pains_flag>  (105) 


>  <MW>  (105) 
1031.2

>  <cLogP>  (105) 
2.24

>  <HBD>  (105) 
8

>  <HBA>  (105) 
19

>  <TPSA>  (105) 
286.9

>  <ArRings>  (105) 
1

$$$$
SANC00621_minRM1.pdb
     RDKit          3D

 24 26  0  0  1  0  0  0  0  0999 V2000
    1.8250   -4.2570   -0.6650 C   0  0  0  0  0  0  0  0  0  0  0  0
    2.3780   -2.9420   -0.2660 C   0  0  0  0  0  0  0  0  0  0  0  0
    1.6450   -1.9320    0.2150 C   0  0  0  0  0  0  0  0  0  0  0  0
    2.2700   -0.6420    0.6380 C   0  0  0  0  0  0  0  0  0  0  0  0
    2.6900    0.2640   -0.5370 C   0  0  2  0  0  0  0  0  0  0  0  0
    2.4550    1.7730   -0.2040 C   0  0  1  0  0  0  0  0  0  0  0  0
    1.3560    2.0370    0.8430 C   0  0  0  0  0  0  0  0  0  0  0  0
    1.6150    2.2880    2.0110 O   0  0  0  0  0  0  0  0  0  0  0  0
    0.0220    2.0790    0.5930 O   0  0  0  0  0  0  0  0  0  0  0  0
   -0.4880    1.7910   -0.6910 C   0  0  0  0  0  0  0  0  0  0  0  0
   -1.9080    1.4030   -0.4900 C   0  0  0  0  0  0  0  0  0  0  0  0
   -2.9220    1.8430   -1.2410 C   0  0  0  0  0  0  0  0  0  0  0  0
   -4.2280    1.2920   -0.7530 C   0  0  0  0  0  0  0  0  0  0  0  0
   -3.8930    0.3610    0.3800 N   0  0  0  0  0  0  0  0  0  0  0  0
   -2.4020    0.5160    0.6210 C   0  0  1  0  0  0  0  0  0  0  0  0
   -1.8430   -0.9290    0.7070 C   0  0  1  0  0  0  0  0  0  0  0  0
   -2.7920   -1.7660   -0.1590 C   0  0  0  0  0  0  0  0  0  0  0  0
   -4.1440   -1.0780    0.0560 C   0  0  0  0  0  0  0  0  0  0  0  0
   -0.5150   -0.9460    0.2320 O   0  0  0  0  0  0  0  0  0  0  0  0
    0.1980   -2.0890    0.4360 C   0  0  0  0  0  0  0  0  0  0  0  0
   -0.3720   -3.1100    0.7800 O   0  0  0  0  0  0  0  0  0  0  0  0
    3.7630    2.3590    0.3670 C   0  0  0  0  0  0  0  0  0  0  0  0
    2.1220    2.4260   -1.3890 O   0  0  0  0  0  0  0  0  0  0  0  0
    2.0900   -0.1770   -1.8670 C   0  0  0  0  0  0  0  0  0  0  0  0
  1  2  1  0
  2  3  2  0
  3 20  1  0
  3  4  1  0
  4  5  1  0
  5 24  1  6
  5  6  1  0
  6 23  1  0
  6 22  1  1
  6  7  1  0
  7  9  1  0
  7  8  2  0
  9 10  1  0
 10 11  1  0
 11 12  2  0
 11 15  1  0
 12 13  1  0
 14 13  1  0
 14 18  1  0
 15 14  1  6
 15 16  1  0
 16 17  1  6
 16 19  1  0
 17 18  1  0
 19 20  1  0
 20 21  2  0
M  END
>  <id>  (106) 
621

>  <scaffolds>  (106) 
['O=C1CCCCC(=O)OC2CCN3CC=C(CO1)C23', 'C=C1CCCC(=O)OCC2=CCN3CCC(OC1=O)C23', 'C1CCNC1']

>  <name>  (106) 
Senecionine

>  <formula>  (106) 
C18H25NO5

>  <SMILES>  (106) 
C/C=C\1/C[C@H]([C@@](C(=O)OCC2=CCN3[C@H]2[C@@H](CC3)OC1=O)(C)O)C

>  <ChEMBL_id>  (106) 


>  <ZINC_id>  (106) 


>  <PubChem_id>  (106) 


>  <DrugBank_id>  (106) 


>  <CAS_no>  (106) 
130-01-8

>  <references>  (106) 
[{'journal': {'name': 'Phytochemistry', 'id': 10}, 'title': 'A re-investigation of the alkaloids of Senecio pterophorus', 'year': 1993, 'start_page': 1629, 'volume': 34, 'issue': 6, 'doi': '10.1016/S0031-9422(00)90859-8', 'isbn': '', 'despositor': {'code': 'TMM', 'first_name': 'Thommas', 'last_name': 'Musyoka', 'id': 22}, 'refauthors_set': [{'author': {'first_name': 'Richard', 'initials': 'J', 'last_name': 'Liddell', 'id': 819}, 'first_author': True, 'id': 1296}, {'author': {'first_name': 'Catherine', 'initials': 'CG', 'last_name': 'Logie', 'id': 446}, 'first_author': None, 'id': 1297}], 'id': 376}]

>  <classifications>  (106) 
[{'classification': 'Alkaloid', 'id': 738}, {'classification': 'Pyrrolizidine', 'id': 818}, {'classification': 'Macrolides and analogues (Classyfire)', 'id': 945}]

>  <molecular_mass>  (106) 
335.39

>  <warheads>  (106) 
ab_unsat_carbonyl:1

>  <n_warheads>  (106) 
1

>  <max_tier>  (106) 
1

>  <pains_flag>  (106) 


>  <MW>  (106) 
335.4

>  <cLogP>  (106) 
1.19

>  <HBD>  (106) 
1

>  <HBA>  (106) 
6

>  <TPSA>  (106) 
76.1

>  <ArRings>  (106) 
0

$$$$
SANC00622_minRM1.pdb
     RDKit          3D

 24 26  0  0  1  0  0  0  0  0999 V2000
    1.3520   -4.3070   -0.7760 C   0  0  0  0  0  0  0  0  0  0  0  0
    2.1090   -3.0780   -0.4350 C   0  0  0  0  0  0  0  0  0  0  0  0
    1.5660   -2.0130    0.1620 C   0  0  0  0  0  0  0  0  0  0  0  0
    2.3650   -0.8050    0.5270 C   0  0  0  0  0  0  0  0  0  0  0  0
    2.4140    0.2030   -0.5790 C   0  0  0  0  0  0  0  0  0  0  0  0
    2.4630   -0.1540   -1.8590 C   0  0  0  0  0  0  0  0  0  0  0  0
    2.5190    1.6410   -0.1290 C   0  0  1  0  0  0  0  0  0  0  0  0
    1.4340    1.9580    0.9110 C   0  0  0  0  0  0  0  0  0  0  0  0
    1.6800    2.1890    2.0830 O   0  0  0  0  0  0  0  0  0  0  0  0
    0.1150    2.0400    0.6140 O   0  0  0  0  0  0  0  0  0  0  0  0
   -0.3400    1.7880   -0.7020 C   0  0  0  0  0  0  0  0  0  0  0  0
   -1.7830    1.4560   -0.5690 C   0  0  0  0  0  0  0  0  0  0  0  0
   -2.7410    1.8620   -1.4060 C   0  0  0  0  0  0  0  0  0  0  0  0
   -4.0860    1.3820   -0.9490 C   0  0  0  0  0  0  0  0  0  0  0  0
   -3.8410    0.5370    0.2700 N   0  0  0  0  0  0  0  0  0  0  0  0
   -2.3590    0.6630    0.5720 C   0  0  1  0  0  0  0  0  0  0  0  0
   -1.8400   -0.7850    0.7600 C   0  0  1  0  0  0  0  0  0  0  0  0
   -2.7850   -1.6470   -0.0870 C   0  0  0  0  0  0  0  0  0  0  0  0
   -4.1230   -0.9160    0.0560 C   0  0  0  0  0  0  0  0  0  0  0  0
   -0.5050   -0.8710    0.3100 O   0  0  0  0  0  0  0  0  0  0  0  0
    0.1520   -2.0320    0.5690 C   0  0  0  0  0  0  0  0  0  0  0  0
   -0.4260   -2.9650    1.1010 O   0  0  0  0  0  0  0  0  0  0  0  0
    3.9060    1.8610    0.4930 C   0  0  0  0  0  0  0  0  0  0  0  0
    2.3280    2.4720   -1.2340 O   0  0  0  0  0  0  0  0  0  0  0  0
  1  2  1  0
  2  3  2  0
  3  4  1  0
  3 21  1  0
  4  5  1  0
  5  6  2  0
  5  7  1  0
  7 24  1  0
  7 23  1  1
  7  8  1  0
  8 10  1  0
  8  9  2  0
 10 11  1  0
 11 12  1  0
 12 13  2  0
 12 16  1  0
 13 14  1  0
 15 14  1  0
 15 19  1  0
 16 15  1  6
 16 17  1  0
 17 18  1  6
 17 20  1  0
 18 19  1  0
 20 21  1  0
 21 22  2  0
M  END
>  <id>  (107) 
622

>  <scaffolds>  (107) 
['O=C1CCCCC(=O)OC2CCN3CC=C(CO1)C23', 'C=C1CCCC(=O)OCC2=CCN3CCC(OC1=O)C23', 'C1CCNC1']

>  <name>  (107) 
Seneciphylline

>  <formula>  (107) 
C18H23NO5

>  <SMILES>  (107) 
C/C=C\1/CC(=C)[C@@](C(=O)OCC2=CCN3[C@H]2[C@@H](CC3)OC1=O)(C)O

>  <ChEMBL_id>  (107) 


>  <ZINC_id>  (107) 


>  <PubChem_id>  (107) 


>  <DrugBank_id>  (107) 


>  <CAS_no>  (107) 
480-81-9

>  <references>  (107) 
[{'journal': {'name': 'Phytochemistry', 'id': 10}, 'title': 'A re-investigation of the alkaloids of Senecio pterophorus', 'year': 1993, 'start_page': 1629, 'volume': 34, 'issue': 6, 'doi': '10.1016/S0031-9422(00)90859-8', 'isbn': '', 'despositor': {'code': 'TMM', 'first_name': 'Thommas', 'last_name': 'Musyoka', 'id': 22}, 'refauthors_set': [{'author': {'first_name': 'Richard', 'initials': 'J', 'last_name': 'Liddell', 'id': 819}, 'first_author': True, 'id': 1296}, {'author': {'first_name': 'Catherine', 'initials': 'CG', 'last_name': 'Logie', 'id': 446}, 'first_author': None, 'id': 1297}], 'id': 376}]

>  <classifications>  (107) 
[{'classification': 'Alkaloid', 'id': 738}, {'classification': 'Pyrrolizidine', 'id': 818}]

>  <molecular_mass>  (107) 
333.38

>  <warheads>  (107) 
ab_unsat_carbonyl:1

>  <n_warheads>  (107) 
1

>  <max_tier>  (107) 
1

>  <pains_flag>  (107) 


>  <MW>  (107) 
333.4

>  <cLogP>  (107) 
1.11

>  <HBD>  (107) 
1

>  <HBA>  (107) 
6

>  <TPSA>  (107) 
76.1

>  <ArRings>  (107) 
0

$$$$
SANC00623_minRM1.pdb
     RDKit          3D

 24 26  0  0  1  0  0  0  0  0999 V2000
    3.6800    3.1250    0.4440 C   0  0  0  0  0  0  0  0  0  0  0  0
    2.2100    3.1230    0.2550 C   0  0  0  0  0  0  0  0  0  0  0  0
    1.5290    2.0600   -0.1890 C   0  0  0  0  0  0  0  0  0  0  0  0
    2.1520    0.7590   -0.5660 C   0  0  0  0  0  0  0  0  0  0  0  0
    2.2360   -0.2100    0.5720 C   0  0  0  0  0  0  0  0  0  0  0  0
    2.2660    0.1670    1.8450 C   0  0  0  0  0  0  0  0  0  0  0  0
    2.4010   -1.6500    0.1420 C   0  0  2  0  0  0  0  0  0  0  0  0
    1.2940   -2.0560   -0.8420 C   0  0  0  0  0  0  0  0  0  0  0  0
    1.5550   -2.5780   -1.9130 O   0  0  0  0  0  0  0  0  0  0  0  0
   -0.0340   -1.8530   -0.6480 O   0  0  0  0  0  0  0  0  0  0  0  0
   -0.5170   -1.6360    0.6610 C   0  0  0  0  0  0  0  0  0  0  0  0
   -1.9540   -1.2860    0.5120 C   0  0  0  0  0  0  0  0  0  0  0  0
   -2.9310   -1.7480    1.2980 C   0  0  0  0  0  0  0  0  0  0  0  0
   -4.2630   -1.2170    0.8600 C   0  0  0  0  0  0  0  0  0  0  0  0
   -3.9870   -0.2680   -0.2730 N   0  0  0  0  0  0  0  0  0  0  0  0
   -2.5050   -0.4030   -0.5750 C   0  0  1  0  0  0  0  0  0  0  0  0
   -1.9620    1.0460   -0.6630 C   0  0  1  0  0  0  0  0  0  0  0  0
   -2.8840    1.8600    0.2530 C   0  0  0  0  0  0  0  0  0  0  0  0
   -4.2370    1.1640    0.0770 C   0  0  0  0  0  0  0  0  0  0  0  0
   -0.6200    1.0560   -0.2310 O   0  0  0  0  0  0  0  0  0  0  0  0
    0.0790    2.2090   -0.4090 C   0  0  0  0  0  0  0  0  0  0  0  0
   -0.4960    3.2370   -0.7220 O   0  0  0  0  0  0  0  0  0  0  0  0
    2.4530   -2.6780    1.2740 C   0  0  0  0  0  0  0  0  0  0  0  0
    3.6210   -1.6460   -0.5410 O   0  0  0  0  0  0  0  0  0  0  0  0
  1  2  1  0
  2  3  2  0
  3  4  1  0
  3 21  1  0
  4  5  1  0
  5  7  1  0
  5  6  2  0
  7  8  1  0
  7 24  1  0
  7 23  1  1
  8  9  2  0
  8 10  1  0
 10 11  1  0
 11 12  1  0
 12 16  1  0
 12 13  2  0
 13 14  1  0
 15 14  1  0
 16 15  1  1
 15 19  1  0
 16 17  1  0
 17 20  1  0
 17 18  1  1
 18 19  1  0
 20 21  1  0
 21 22  2  0
M  END
>  <id>  (108) 
623

>  <scaffolds>  (108) 
['O=C1CCCCC(=O)OC2CCN3CC=C(CO1)C23', 'C=C1CCCC(=O)OCC2=CCN3CCC(OC1=O)C23', 'C1CCNC1']

>  <name>  (108) 
Spartioidine

>  <formula>  (108) 
C18H23NO5

>  <SMILES>  (108) 
C/C=C/1\CC(=C)[C@](C(=O)OCC2=CCN3[C@H]2[C@@H](CC3)OC1=O)(C)O

>  <ChEMBL_id>  (108) 


>  <ZINC_id>  (108) 


>  <PubChem_id>  (108) 


>  <DrugBank_id>  (108) 


>  <CAS_no>  (108) 
520-59-2

>  <references>  (108) 
[{'journal': {'name': 'Phytochemistry', 'id': 10}, 'title': 'A re-investigation of the alkaloids of Senecio pterophorus', 'year': 1993, 'start_page': 1629, 'volume': 34, 'issue': 6, 'doi': '10.1016/S0031-9422(00)90859-8', 'isbn': '', 'despositor': {'code': 'TMM', 'first_name': 'Thommas', 'last_name': 'Musyoka', 'id': 22}, 'refauthors_set': [{'author': {'first_name': 'Richard', 'initials': 'J', 'last_name': 'Liddell', 'id': 819}, 'first_author': True, 'id': 1296}, {'author': {'first_name': 'Catherine', 'initials': 'CG', 'last_name': 'Logie', 'id': 446}, 'first_author': None, 'id': 1297}], 'id': 376}]

>  <classifications>  (108) 
[{'classification': 'Alkaloid', 'id': 738}, {'classification': 'Pyrrolizidine', 'id': 818}]

>  <molecular_mass>  (108) 
333.38

>  <warheads>  (108) 
ab_unsat_carbonyl:1

>  <n_warheads>  (108) 
1

>  <max_tier>  (108) 
1

>  <pains_flag>  (108) 


>  <MW>  (108) 
333.4

>  <cLogP>  (108) 
1.11

>  <HBD>  (108) 
1

>  <HBA>  (108) 
6

>  <TPSA>  (108) 
76.1

>  <ArRings>  (108) 
0

$$$$
SANC00624_minRM1.pdb
     RDKit          3D

 25 27  0  0  1  0  0  0  0  0999 V2000
    4.7990   -1.5710    0.6100 C   0  0  0  0  0  0  0  0  0  0  0  0
    3.5230   -2.1990    0.2280 C   0  0  0  0  0  0  0  0  0  0  0  0
    2.3460   -1.5620    0.3020 C   0  0  0  0  0  0  0  0  0  0  0  0
    2.1900   -0.1660    0.8100 C   0  0  0  0  0  0  0  0  0  0  0  0
    2.5010    0.9180   -0.2390 C   0  0  2  0  0  0  0  0  0  0  0  0
    1.6990    2.2360    0.0010 C   0  0  1  0  0  0  0  0  0  0  0  0
    0.4620    2.3330   -0.9000 C   0  0  0  0  0  0  0  0  0  0  0  0
    0.4410    2.8300   -2.0110 O   0  0  0  0  0  0  0  0  0  0  0  0
   -0.7580    1.9720   -0.3550 O   0  0  0  0  0  0  0  0  0  0  0  0
   -1.1410    0.6320   -0.5780 C   0  0  0  0  0  0  0  0  0  0  0  0
   -1.8610    0.1890    0.6960 C   0  0  1  0  0  0  0  0  0  0  0  0
   -3.2390    0.8690    0.7280 C   0  0  1  0  0  0  0  0  0  0  0  0
   -4.1610   -0.1200   -0.0450 C   0  0  0  0  0  0  0  0  0  0  0  0
   -3.5050   -1.4620   -0.0520 N   0  0  0  0  0  0  0  0  0  0  0  0
   -2.2490   -1.3090    0.7500 C   0  0  1  0  0  0  0  0  0  0  0  0
   -1.2570   -2.3370    0.1740 C   0  0  1  0  0  0  0  0  0  0  0  0
   -1.6310   -2.4490   -1.3110 C   0  0  0  0  0  0  0  0  0  0  0  0
   -3.0990   -1.9840   -1.3900 C   0  0  0  0  0  0  0  0  0  0  0  0
    0.0170   -1.8150    0.4750 O   0  0  0  0  0  0  0  0  0  0  0  0
    1.1390   -2.3120   -0.0990 C   0  0  0  0  0  0  0  0  0  0  0  0
    1.0770   -3.2750   -0.8370 O   0  0  0  0  0  0  0  0  0  0  0  0
   -3.5780    0.9450    2.0620 O   0  0  0  0  0  0  0  0  0  0  0  0
    1.2960    2.4560    1.4590 C   0  0  0  0  0  0  0  0  0  0  0  0
    2.5870    3.2340   -0.3970 O   0  0  0  0  0  0  0  0  0  0  0  0
    2.2960    0.4060   -1.6590 C   0  0  0  0  0  0  0  0  0  0  0  0
  1  2  1  0
  2  3  2  0
  3 20  1  0
  3  4  1  0
  4  5  1  0
  5 25  1  6
  5  6  1  0
  6  7  1  0
  6 24  1  0
  6 23  1  1
  7  8  2  0
  7  9  1  0
  9 10  1  0
 11 10  1  6
 11 12  1  0
 11 15  1  0
 12 13  1  0
 12 22  1  1
 14 13  1  0
 14 18  1  0
 15 14  1  6
 15 16  1  0
 16 17  1  6
 16 19  1  0
 17 18  1  0
 19 20  1  0
 20 21  2  0
M  END
>  <id>  (109) 
624

>  <scaffolds>  (109) 
['C1CC2CCCN2C1', 'C1CCNC1']

>  <name>  (109) 
Rosmarinine

>  <formula>  (109) 
C18H27NO6

>  <SMILES>  (109) 
C/C=C/1\C[C@H]([C@@](C(=O)OC[C@H]2[C@@H](CN3[C@H]2[C@@H](CC3)OC1=O)O)(C)O)C

>  <ChEMBL_id>  (109) 


>  <ZINC_id>  (109) 


>  <PubChem_id>  (109) 


>  <DrugBank_id>  (109) 


>  <CAS_no>  (109) 
520-65-0

>  <references>  (109) 
[{'journal': {'name': 'Phytochemistry', 'id': 10}, 'title': 'A re-investigation of the alkaloids of Senecio pterophorus', 'year': 1993, 'start_page': 1629, 'volume': 34, 'issue': 6, 'doi': '10.1016/S0031-9422(00)90859-8', 'isbn': '', 'despositor': {'code': 'TMM', 'first_name': 'Thommas', 'last_name': 'Musyoka', 'id': 22}, 'refauthors_set': [{'author': {'first_name': 'Richard', 'initials': 'J', 'last_name': 'Liddell', 'id': 819}, 'first_author': True, 'id': 1296}, {'author': {'first_name': 'Catherine', 'initials': 'CG', 'last_name': 'Logie', 'id': 446}, 'first_author': None, 'id': 1297}], 'id': 376}]

>  <classifications>  (109) 
[{'classification': 'Alkaloid', 'id': 738}, {'classification': 'Pyrrolizidine', 'id': 818}, {'classification': 'Macrolides and analogues (Classyfire)', 'id': 945}]

>  <molecular_mass>  (109) 
353.41

>  <warheads>  (109) 
ab_unsat_carbonyl:1

>  <n_warheads>  (109) 
1

>  <max_tier>  (109) 
1

>  <pains_flag>  (109) 


>  <MW>  (109) 
353.4

>  <cLogP>  (109) 
0.24

>  <HBD>  (109) 
2

>  <HBA>  (109) 
7

>  <TPSA>  (109) 
96.3

>  <ArRings>  (109) 
0

$$$$
SANC00625_minRM1.pdb
     RDKit          3D

 27 29  0  0  1  0  0  0  0  0999 V2000
   -2.2730    4.2400    1.2060 C   0  0  0  0  0  0  0  0  0  0  0  0
   -0.9370    3.8480    0.6980 C   0  0  0  0  0  0  0  0  0  0  0  0
   -0.7020    2.7350   -0.0050 C   0  0  0  0  0  0  0  0  0  0  0  0
    0.6530    2.3960   -0.5360 C   0  0  0  0  0  0  0  0  0  0  0  0
    1.4570    1.5790    0.4310 C   0  0  0  0  0  0  0  0  0  0  0  0
    1.3850    1.7820    1.7430 C   0  0  0  0  0  0  0  0  0  0  0  0
    2.4330    0.6150   -0.2070 C   0  0  1  0  0  0  0  0  0  0  0  0
    1.7240   -0.2300   -1.2710 C   0  0  0  0  0  0  0  0  0  0  0  0
    1.8950   -0.0720   -2.4650 O   0  0  0  0  0  0  0  0  0  0  0  0
    0.8400   -1.2180   -0.9730 O   0  0  0  0  0  0  0  0  0  0  0  0
    0.4510   -1.4520    0.3640 C   0  0  0  0  0  0  0  0  0  0  0  0
   -0.8530   -2.1600    0.2780 C   0  0  0  0  0  0  0  0  0  0  0  0
   -1.2110   -3.2050    1.0300 C   0  0  0  0  0  0  0  0  0  0  0  0
   -2.5700   -3.7010    0.6350 C   0  0  0  0  0  0  0  0  0  0  0  0
   -3.0850   -2.7470   -0.4090 N   0  0  0  0  0  0  0  0  0  0  0  0
   -1.9210   -1.8250   -0.7280 C   0  0  1  0  0  0  0  0  0  0  0  0
   -2.5010   -0.3890   -0.6900 C   0  0  1  0  0  0  0  0  0  0  0  0
   -3.6590   -0.4740    0.3160 C   0  0  0  0  0  0  0  0  0  0  0  0
   -4.2100   -1.8820    0.0730 C   0  0  0  0  0  0  0  0  0  0  0  0
   -1.5050    0.5190   -0.2710 O   0  0  0  0  0  0  0  0  0  0  0  0
   -1.8130    1.8400   -0.3660 C   0  0  0  0  0  0  0  0  0  0  0  0
   -2.9260    2.1920   -0.7260 O   0  0  0  0  0  0  0  0  0  0  0  0
    3.5700    1.4180   -0.8440 C   0  0  0  0  0  0  0  0  0  0  0  0
    2.9460   -0.1970    0.8280 O   0  0  0  0  0  0  0  0  0  0  0  0
    3.8100   -1.2110    0.5390 C   0  0  0  0  0  0  0  0  0  0  0  0
    4.0140   -1.5540   -0.6060 O   0  0  0  0  0  0  0  0  0  0  0  0
    4.3950   -1.7920    1.7840 C   0  0  0  0  0  0  0  0  0  0  0  0
  1  2  1  0
  2  3  2  0
  3  4  1  0
  3 21  1  0
  4  5  1  0
  5  7  1  0
  5  6  2  0
  7  8  1  0
  7 23  1  6
  7 24  1  0
  8  9  2  0
  8 10  1  0
 10 11  1  0
 11 12  1  0
 12 16  1  0
 12 13  2  0
 13 14  1  0
 15 14  1  0
 16 15  1  1
 15 19  1  0
 16 17  1  0
 17 20  1  0
 17 18  1  1
 18 19  1  0
 20 21  1  0
 21 22  2  0
 24 25  1  0
 25 26  2  0
 25 27  1  0
M  END
>  <id>  (110) 
625

>  <scaffolds>  (110) 
['O=C1CCCCC(=O)OC2CCN3CC=C(CO1)C23', 'C=C1CCCC(=O)OCC2=CCN3CCC(OC1=O)C23', 'C1CCNC1']

>  <name>  (110) 
Acetylseneciphylline

>  <formula>  (110) 
C20H25NO6

>  <SMILES>  (110) 
C/C=C\1/CC(=C)[C@@](C(=O)OCC2=CCN3[C@H]2[C@@H](CC3)OC1=O)(C)OC(=O)C

>  <ChEMBL_id>  (110) 


>  <ZINC_id>  (110) 


>  <PubChem_id>  (110) 


>  <DrugBank_id>  (110) 


>  <CAS_no>  (110) 
90341-45-0

>  <references>  (110) 
[{'journal': {'name': 'Phytochemistry', 'id': 10}, 'title': 'A re-investigation of the alkaloids of Senecio pterophorus', 'year': 1993, 'start_page': 1629, 'volume': 34, 'issue': 6, 'doi': '10.1016/S0031-9422(00)90859-8', 'isbn': '', 'despositor': {'code': 'TMM', 'first_name': 'Thommas', 'last_name': 'Musyoka', 'id': 22}, 'refauthors_set': [{'author': {'first_name': 'Richard', 'initials': 'J', 'last_name': 'Liddell', 'id': 819}, 'first_author': True, 'id': 1296}, {'author': {'first_name': 'Catherine', 'initials': 'CG', 'last_name': 'Logie', 'id': 446}, 'first_author': None, 'id': 1297}], 'id': 376}]

>  <classifications>  (110) 
[{'classification': 'Alkaloid', 'id': 738}, {'classification': 'Pyrrolizidine', 'id': 818}]

>  <molecular_mass>  (110) 
375.41

>  <warheads>  (110) 
ab_unsat_carbonyl:1

>  <n_warheads>  (110) 
1

>  <max_tier>  (110) 
1

>  <pains_flag>  (110) 


>  <MW>  (110) 
375.4

>  <cLogP>  (110) 
1.68

>  <HBD>  (110) 
0

>  <HBA>  (110) 
7

>  <TPSA>  (110) 
82.1

>  <ArRings>  (110) 
0

$$$$
SANC00648_minRM1.pdb
     RDKit          3D

 18 20  0  0  1  0  0  0  0  0999 V2000
   -4.6840    0.2740   -0.0150 C   0  0  0  0  0  0  0  0  0  0  0  0
   -3.2070    0.3890   -0.3720 C   0  0  1  0  0  0  0  0  0  0  0  0
   -2.5810    1.5550    0.3990 C   0  0  0  0  0  0  0  0  0  0  0  0
   -1.1310    1.7420   -0.0250 C   0  0  0  0  0  0  0  0  0  0  0  0
   -0.3170    0.4680    0.2140 C   0  0  1  0  0  0  0  0  0  0  0  0
   -0.9700   -0.7260   -0.5170 C   0  0  2  0  0  0  0  0  0  0  0  0
   -2.4060   -0.8470   -0.0820 C   0  0  0  0  0  0  0  0  0  0  0  0
   -2.9100   -1.9340    0.4900 C   0  0  0  0  0  0  0  0  0  0  0  0
   -0.1770   -2.0230   -0.3020 C   0  0  0  0  0  0  0  0  0  0  0  0
    1.3000   -1.8610   -0.2590 C   0  0  0  0  0  0  0  0  0  0  0  0
    1.8600   -0.6580   -0.2430 C   0  0  0  0  0  0  0  0  0  0  0  0
    1.1000    0.6290   -0.3740 C   0  0  2  0  0  0  0  0  0  0  0  0
    2.0590    1.6280    0.3390 C   0  0  0  0  0  0  0  0  0  0  0  0
    3.3480    1.0330    0.3290 O   0  0  0  0  0  0  0  0  0  0  0  0
    3.2530   -0.3040    0.0320 C   0  0  0  0  0  0  0  0  0  0  0  0
    4.2690   -0.9620    0.0440 O   0  0  0  0  0  0  0  0  0  0  0  0
    0.9590    0.9950   -1.7120 O   0  0  0  0  0  0  0  0  0  0  0  0
   -0.2310    0.1710    1.7100 C   0  0  0  0  0  0  0  0  0  0  0  0
  2  1  1  1
  2  7  1  0
  2  3  1  0
  3  4  1  0
  4  5  1  0
  5  6  1  0
  5 12  1  0
  5 18  1  1
  6  9  1  1
  6  7  1  0
  7  8  2  0
  9 10  1  0
 10 11  2  0
 11 12  1  0
 11 15  1  0
 12 17  1  6
 12 13  1  0
 13 14  1  0
 14 15  1  0
 15 16  2  0
M  END
>  <id>  (111) 
648

>  <scaffolds>  (111) 
['C1=CCCCC1', 'C1=CCC2CCCCC2C1', 'C1CCCCC1', 'C1=C2COCC2C2CCCCC2C1', 'O=C1CCCO1', 'C=C1CCCC2CC=CCC12']

>  <name>  (111) 
Salutarisolide

>  <formula>  (111) 
C15H20O3

>  <SMILES>  (111) 
C[C@H]1CC[C@]2([C@H](C1=C)CC=C3[C@@]2(COC3=O)O)C

>  <ChEMBL_id>  (111) 


>  <ZINC_id>  (111) 


>  <PubChem_id>  (111) 
 636559

>  <DrugBank_id>  (111) 


>  <CAS_no>  (111) 
242140-82-5

>  <references>  (111) 
[{'journal': {'name': 'Phytochemistry', 'id': 10}, 'title': 'A drimane sesquiterpenoid lactone from Warburgia salutaris', 'year': 1999, 'start_page': 435, 'volume': 51, 'issue': 3, 'doi': '10.1016/S0031-9422(98)00753-5', 'isbn': '', 'despositor': {'code': 'TMM', 'first_name': 'Thommas', 'last_name': 'Musyoka', 'id': 22}, 'refauthors_set': [{'author': {'first_name': 'Mahlori', 'initials': 'J', 'last_name': 'Mashimbye', 'id': 831}, 'first_author': True, 'id': 1335}, {'author': {'first_name': 'Munaka', 'initials': 'C', 'last_name': 'Maumela', 'id': 832}, 'first_author': None, 'id': 1336}, {'author': {'first_name': 'Siegfried ', 'initials': 'E', 'last_name': 'Drewes', 'id': 833}, 'first_author': None, 'id': 1337}], 'id': 384}]

>  <classifications>  (111) 
[{'classification': 'Sesquiterpene', 'id': 828}, {'classification': 'Terpenoid', 'id': 839}, {'classification': 'Phenol lipids (Classyfire)', 'id': 951}]

>  <molecular_mass>  (111) 
248.32

>  <warheads>  (111) 
ab_unsat_carbonyl:1

>  <n_warheads>  (111) 
1

>  <max_tier>  (111) 
1

>  <pains_flag>  (111) 


>  <MW>  (111) 
248.3

>  <cLogP>  (111) 
2.21

>  <HBD>  (111) 
1

>  <HBA>  (111) 
3

>  <TPSA>  (111) 
46.5

>  <ArRings>  (111) 
0

$$$$
SANC00650_minRM1.pdb
     RDKit          3D

 17 18  0  0  1  0  0  0  0  0999 V2000
    0.0540   -0.6210    1.7320 C   0  0  0  0  0  0  0  0  0  0  0  0
    0.1160   -0.5510    0.2090 C   0  0  2  0  0  0  0  0  0  0  0  0
    0.6040   -1.8890   -0.3550 C   0  0  0  0  0  0  0  0  0  0  0  0
    2.0860   -2.0950   -0.0820 C   0  0  0  0  0  0  0  0  0  0  0  0
    2.8880   -0.9970   -0.7600 C   0  0  0  0  0  0  0  0  0  0  0  0
    2.5250    0.3930   -0.2220 C   0  0  0  0  0  0  0  0  0  0  0  0
    1.0000    0.5990   -0.3160 C   0  0  2  0  0  0  0  0  0  0  0  0
    0.5620    1.9020    0.3500 C   0  0  0  0  0  0  0  0  0  0  0  0
   -0.9090    2.0960    0.2610 C   0  0  0  0  0  0  0  0  0  0  0  0
   -1.7620    1.1100   -0.0300 C   0  0  0  0  0  0  0  0  0  0  0  0
   -1.3160   -0.2820   -0.3250 C   0  0  2  0  0  0  0  0  0  0  0  0
   -2.2690   -1.2930    0.2910 C   0  0  0  0  0  0  0  0  0  0  0  0
   -2.4670   -2.3680   -0.2350 O   0  0  0  0  0  0  0  0  0  0  0  0
   -3.2050    1.4110   -0.1500 C   0  0  0  0  0  0  0  0  0  0  0  0
   -3.9910    0.6280   -0.6500 O   0  0  0  0  0  0  0  0  0  0  0  0
    3.0970    0.5730    1.1820 C   0  0  0  0  0  0  0  0  0  0  0  0
    3.2210    1.4290   -1.1220 C   0  0  0  0  0  0  0  0  0  0  0  0
  2  1  1  1
  2  3  1  0
  2 11  1  0
  2  7  1  0
  3  4  1  0
  4  5  1  0
  5  6  1  0
  6 17  1  0
  6  7  1  0
  6 16  1  0
  7  8  1  1
  8  9  1  0
  9 10  2  0
 10 11  1  0
 10 14  1  0
 11 12  1  1
 12 13  2  0
 14 15  2  0
M  END
>  <id>  (112) 
650

>  <scaffolds>  (112) 
['C1=CCCCC1', 'C1=CCC2CCCCC2C1', 'C1CCCCC1']

>  <name>  (112) 
Polygodial

>  <formula>  (112) 
C15H22O2

>  <SMILES>  (112) 
C[C@]12CCCC([C@@H]1CC=C([C@@H]2C=O)C=O)(C)C

>  <ChEMBL_id>  (112) 
CHEMBL254550

>  <ZINC_id>  (112) 


>  <PubChem_id>  (112) 
 72503

>  <DrugBank_id>  (112) 


>  <CAS_no>  (112) 
6754-20-7

>  <references>  (112) 
[{'journal': {'name': 'Phytochemistry', 'id': 10}, 'title': 'A drimane sesquiterpenoid lactone from Warburgia salutaris', 'year': 1999, 'start_page': 435, 'volume': 51, 'issue': 3, 'doi': '10.1016/S0031-9422(98)00753-5', 'isbn': '', 'despositor': {'code': 'TMM', 'first_name': 'Thommas', 'last_name': 'Musyoka', 'id': 22}, 'refauthors_set': [{'author': {'first_name': 'Mahlori', 'initials': 'J', 'last_name': 'Mashimbye', 'id': 831}, 'first_author': True, 'id': 1335}, {'author': {'first_name': 'Munaka', 'initials': 'C', 'last_name': 'Maumela', 'id': 832}, 'first_author': None, 'id': 1336}, {'author': {'first_name': 'Siegfried ', 'initials': 'E', 'last_name': 'Drewes', 'id': 833}, 'first_author': None, 'id': 1337}], 'id': 384}]

>  <classifications>  (112) 
[{'classification': 'Sesquiterpene', 'id': 828}, {'classification': 'Terpenoid', 'id': 839}, {'classification': 'Organic oxides (Classyfire)', 'id': 993}]

>  <molecular_mass>  (112) 
234.33

>  <warheads>  (112) 
ab_unsat_carbonyl:1

>  <n_warheads>  (112) 
1

>  <max_tier>  (112) 
1

>  <pains_flag>  (112) 


>  <MW>  (112) 
234.3

>  <cLogP>  (112) 
3.16

>  <HBD>  (112) 
0

>  <HBA>  (112) 
2

>  <TPSA>  (112) 
34.1

>  <ArRings>  (112) 
0

$$$$
SANC00651_minRM1.pdb
     RDKit          3D

 18 19  0  0  1  0  0  0  0  0999 V2000
    0.1400   -0.6400    1.7130 C   0  0  0  0  0  0  0  0  0  0  0  0
    0.2430   -0.5810    0.1910 C   0  0  2  0  0  0  0  0  0  0  0  0
    0.8080   -1.9010   -0.3400 C   0  0  0  0  0  0  0  0  0  0  0  0
    2.2760   -2.0520    0.0270 C   0  0  0  0  0  0  0  0  0  0  0  0
    3.0790   -0.9250   -0.6010 C   0  0  0  0  0  0  0  0  0  0  0  0
    2.6200    0.4570   -0.1180 C   0  0  0  0  0  0  0  0  0  0  0  0
    1.0950    0.6000   -0.3110 C   0  0  2  0  0  0  0  0  0  0  0  0
    0.5820    1.8990    0.3120 C   0  0  0  0  0  0  0  0  0  0  0  0
   -0.8980    2.0120    0.2890 C   0  0  0  0  0  0  0  0  0  0  0  0
   -1.7140    1.0000   -0.0060 C   0  0  0  0  0  0  0  0  0  0  0  0
   -1.2040   -0.3670   -0.3620 C   0  0  2  0  0  0  0  0  0  0  0  0
   -2.1200   -1.4630    0.2090 C   0  0  0  0  0  0  0  0  0  0  0  0
   -2.7130   -1.3130    1.2550 O   0  0  0  0  0  0  0  0  0  0  0  0
   -1.1540   -0.5120   -1.7490 O   0  0  0  0  0  0  0  0  0  0  0  0
   -3.1770    1.2020   -0.0290 C   0  0  0  0  0  0  0  0  0  0  0  0
   -3.8930    0.5460   -0.7640 O   0  0  0  0  0  0  0  0  0  0  0  0
    3.0920    0.6840    1.3160 C   0  0  0  0  0  0  0  0  0  0  0  0
    3.3270    1.5090   -0.9890 C   0  0  0  0  0  0  0  0  0  0  0  0
  2  1  1  1
  2 11  1  0
  2  3  1  0
  2  7  1  0
  3  4  1  0
  4  5  1  0
  5  6  1  0
  6 18  1  0
  6  7  1  0
  6 17  1  0
  7  8  1  1
  8  9  1  0
  9 10  2  0
 10 11  1  0
 10 15  1  0
 11 14  1  6
 11 12  1  0
 12 13  2  0
 15 16  2  0
M  END
>  <id>  (113) 
651

>  <scaffolds>  (113) 
['C1=CCCCC1', 'C1=CCC2CCCCC2C1', 'C1CCCCC1']

>  <name>  (113) 
Warburganal

>  <formula>  (113) 
C15H22O3

>  <SMILES>  (113) 
C[C@]12CCCC([C@@H]1CC=C([C@@]2(C=O)O)C=O)(C)C

>  <ChEMBL_id>  (113) 
CHEMBL452492

>  <ZINC_id>  (113) 


>  <PubChem_id>  (113) 
 72502

>  <DrugBank_id>  (113) 


>  <CAS_no>  (113) 
62994-47-2

>  <references>  (113) 
[{'journal': {'name': 'Phytochemistry', 'id': 10}, 'title': 'A drimane sesquiterpenoid lactone from Warburgia salutaris', 'year': 1999, 'start_page': 435, 'volume': 51, 'issue': 3, 'doi': '10.1016/S0031-9422(98)00753-5', 'isbn': '', 'despositor': {'code': 'TMM', 'first_name': 'Thommas', 'last_name': 'Musyoka', 'id': 22}, 'refauthors_set': [{'author': {'first_name': 'Mahlori', 'initials': 'J', 'last_name': 'Mashimbye', 'id': 831}, 'first_author': True, 'id': 1335}, {'author': {'first_name': 'Munaka', 'initials': 'C', 'last_name': 'Maumela', 'id': 832}, 'first_author': None, 'id': 1336}, {'author': {'first_name': 'Siegfried ', 'initials': 'E', 'last_name': 'Drewes', 'id': 833}, 'first_author': None, 'id': 1337}], 'id': 384}]

>  <classifications>  (113) 
[{'classification': 'Sesquiterpene', 'id': 828}, {'classification': 'Terpenoid', 'id': 839}, {'classification': 'Organooxygen compounds (Classyfire)', 'id': 954}]

>  <molecular_mass>  (113) 
250.33

>  <warheads>  (113) 
ab_unsat_carbonyl:1

>  <n_warheads>  (113) 
1

>  <max_tier>  (113) 
1

>  <pains_flag>  (113) 


>  <MW>  (113) 
250.3

>  <cLogP>  (113) 
2.28

>  <HBD>  (113) 
1

>  <HBA>  (113) 
3

>  <TPSA>  (113) 
54.4

>  <ArRings>  (113) 
0

$$$$
SANC00652_minRM1.pdb
     RDKit          3D

 19 20  0  0  1  0  0  0  0  0999 V2000
    0.0560   -0.6770    1.8180 C   0  0  0  0  0  0  0  0  0  0  0  0
    0.0700   -0.6750    0.2890 C   0  0  2  0  0  0  0  0  0  0  0  0
    0.4000   -2.0800   -0.2230 C   0  0  0  0  0  0  0  0  0  0  0  0
    1.8420   -2.4480    0.0860 C   0  0  0  0  0  0  0  0  0  0  0  0
    2.7760   -1.4680   -0.6020 C   0  0  0  0  0  0  0  0  0  0  0  0
    2.5520   -0.0160   -0.1580 C   0  0  0  0  0  0  0  0  0  0  0  0
    1.0560    0.3490   -0.3060 C   0  0  2  0  0  0  0  0  0  0  0  0
    0.7490    1.7380    0.2910 C   0  0  2  0  0  0  0  0  0  0  0  0
   -0.7250    2.0360    0.3900 C   0  0  0  0  0  0  0  0  0  0  0  0
   -1.6820    1.1340    0.1860 C   0  0  0  0  0  0  0  0  0  0  0  0
   -1.3680   -0.2900   -0.1850 C   0  0  2  0  0  0  0  0  0  0  0  0
   -2.3820   -1.2360    0.4740 C   0  0  0  0  0  0  0  0  0  0  0  0
   -2.8270   -2.1830   -0.1380 O   0  0  0  0  0  0  0  0  0  0  0  0
   -1.4070   -0.4110   -1.5710 O   0  0  0  0  0  0  0  0  0  0  0  0
   -3.1020    1.5410    0.2240 C   0  0  0  0  0  0  0  0  0  0  0  0
   -3.9680    0.8780   -0.3160 O   0  0  0  0  0  0  0  0  0  0  0  0
    1.2990    2.6810   -0.5870 O   0  0  0  0  0  0  0  0  0  0  0  0
    3.1050    0.1820    1.2520 C   0  0  0  0  0  0  0  0  0  0  0  0
    3.4000    0.8680   -1.0890 C   0  0  0  0  0  0  0  0  0  0  0  0
  2  1  1  1
  2  7  1  0
  2  3  1  0
  2 11  1  0
  3  4  1  0
  4  5  1  0
  5  6  1  0
  6 19  1  0
  7  6  1  1
  6 18  1  0
  7  8  1  0
  8 17  1  6
  8  9  1  0
  9 10  2  0
 10 11  1  0
 10 15  1  0
 11 14  1  6
 11 12  1  0
 12 13  2  0
 15 16  2  0
M  END
>  <id>  (114) 
652

>  <scaffolds>  (114) 
['C1=CCCCC1', 'C1=CCC2CCCCC2C1', 'C1CCCCC1']

>  <name>  (114) 
Mukaadial

>  <formula>  (114) 
C15H22O4

>  <SMILES>  (114) 
C[C@]12CCCC([C@@H]1[C@H](C=C([C@@]2(C=O)O)C=O)O)(C)C

>  <ChEMBL_id>  (114) 
CHEMBL455627

>  <ZINC_id>  (114) 


>  <PubChem_id>  (114) 
 159088

>  <DrugBank_id>  (114) 


>  <CAS_no>  (114) 
87420-14-2

>  <references>  (114) 
[{'journal': {'name': 'Phytochemistry', 'id': 10}, 'title': 'A drimane sesquiterpenoid lactone from Warburgia salutaris', 'year': 1999, 'start_page': 435, 'volume': 51, 'issue': 3, 'doi': '10.1016/S0031-9422(98)00753-5', 'isbn': '', 'despositor': {'code': 'TMM', 'first_name': 'Thommas', 'last_name': 'Musyoka', 'id': 22}, 'refauthors_set': [{'author': {'first_name': 'Mahlori', 'initials': 'J', 'last_name': 'Mashimbye', 'id': 831}, 'first_author': True, 'id': 1335}, {'author': {'first_name': 'Munaka', 'initials': 'C', 'last_name': 'Maumela', 'id': 832}, 'first_author': None, 'id': 1336}, {'author': {'first_name': 'Siegfried ', 'initials': 'E', 'last_name': 'Drewes', 'id': 833}, 'first_author': None, 'id': 1337}], 'id': 384}]

>  <classifications>  (114) 
[{'classification': 'Sesquiterpene', 'id': 828}, {'classification': 'Terpenoid', 'id': 839}, {'classification': 'Organooxygen compounds (Classyfire)', 'id': 954}]

>  <molecular_mass>  (114) 
266.33

>  <warheads>  (114) 
ab_unsat_carbonyl:1

>  <n_warheads>  (114) 
1

>  <max_tier>  (114) 
1

>  <pains_flag>  (114) 


>  <MW>  (114) 
266.3

>  <cLogP>  (114) 
1.25

>  <HBD>  (114) 
2

>  <HBA>  (114) 
4

>  <TPSA>  (114) 
74.6

>  <ArRings>  (114) 
0

$$$$
SANC00657_minRM1.pdb
     RDKit          3D

 20 21  0  0  1  0  0  0  0  0999 V2000
   -1.5220   -3.2150   -1.1650 C   0  0  0  0  0  0  0  0  0  0  0  0
    3.7380   -1.6930    0.7370 O   0  0  0  0  0  0  0  0  0  0  0  0
   -2.9830   -2.5510    1.4000 O   0  0  0  0  0  0  0  0  0  0  0  0
   -2.3300    3.3400   -1.4760 O   0  0  0  0  0  0  0  0  0  0  0  0
    1.2570   -2.4930   -1.2740 O   0  0  0  0  0  0  0  0  0  0  0  0
    3.7490   -0.4840    0.8630 C   0  0  0  0  0  0  0  0  0  0  0  0
    2.5560    1.6340    0.6420 C   0  0  0  0  0  0  0  0  0  0  0  0
   -1.4630    1.2220    0.0120 C   0  0  0  0  0  0  0  0  0  0  0  0
   -1.5470    3.6800   -0.3690 C   0  0  0  0  0  0  0  0  0  0  0  0
    1.5610    2.5770    0.0590 C   0  0  0  0  0  0  0  0  0  0  0  0
    0.3260    2.6590    0.9710 C   0  0  0  0  0  0  0  0  0  0  0  0
    1.9720   -0.2310   -0.9090 C   0  0  0  0  0  0  0  0  0  0  0  0
   -1.8160   -0.6710    1.3580 O   0  0  0  0  0  0  0  0  0  0  0  0
    2.7270    0.3780    0.2220 C   0  0  0  0  0  0  0  0  0  0  0  0
   -2.1440   -1.8870    0.8240 C   0  0  0  0  0  0  0  0  0  0  0  0
   -1.3610   -2.1530   -0.3940 C   0  0  0  0  0  0  0  0  0  0  0  0
   -0.9250    2.4300    0.1850 C   0  0  0  0  0  0  0  0  0  0  0  0
    1.0540   -1.3910   -0.4390 C   0  0  1  0  0  0  0  0  0  0  0  0
   -0.8380   -0.0250    0.5600 C   0  0  1  0  0  0  0  0  0  0  0  0
   -0.4330   -1.0000   -0.5880 C   0  0  2  0  0  0  0  0  0  0  0  0
  1 16  2  0
  2  6  2  0
  3 15  2  0
  4  9  1  0
 18  5  1  6
  6 14  1  0
  7 10  1  0
  7 14  2  0
  8 17  2  0
  8 19  1  0
  9 17  1  0
 10 11  1  0
 11 17  1  0
 12 18  1  0
 12 14  1  0
 19 13  1  1
 13 15  1  0
 15 16  1  0
 20 16  1  1
 18 20  1  0
 19 20  1  0
M  END
>  <id>  (115) 
657

>  <scaffolds>  (115) 
['C=C1C(=O)OC2C=CCCC=CCCC12', 'O=C1CCCO1', 'O=C1CC2CCC=CCCC=CC2O1']

>  <name>  (115) 
Urospermal A

>  <formula>  (115) 
C15H18O5

>  <SMILES>  (115) 
[H][C@@]12C=C(CO)CCC=C(C=O)C[C@H](O)[C@@]1([H])C(=C)C(=O)O2

>  <ChEMBL_id>  (115) 


>  <ZINC_id>  (115) 


>  <PubChem_id>  (115) 
 5385073

>  <DrugBank_id>  (115) 


>  <CAS_no>  (115) 
28400-14-8

>  <references>  (115) 
[{'journal': {'name': 'Phytochemistry', 'id': 10}, 'title': 'Germacranolides from Dicoma tomentosa', 'year': 1982, 'start_page': 2122, 'volume': 21, 'issue': 8, 'doi': '10.1016/0031-9422(82)83062-8', 'isbn': '', 'despositor': {'code': 'TMM', 'first_name': 'Thommas', 'last_name': 'Musyoka', 'id': 22}, 'refauthors_set': [{'author': {'first_name': '', 'initials': 'F', 'last_name': 'Bohlmann', 'id': 709}, 'first_author': True, 'id': 1349}, {'author': {'first_name': '', 'initials': 'P', 'last_name': 'Singh', 'id': 834}, 'first_author': None, 'id': 1350}, {'author': {'first_name': '', 'initials': 'J', 'last_name': 'Jakupovic', 'id': 703}, 'first_author': None, 'id': 1351}], 'id': 387}]

>  <classifications>  (115) 
[{'classification': 'Sesquiterpene', 'id': 828}, {'classification': 'Terpenoid', 'id': 839}, {'classification': 'Phenol lipids (Classyfire)', 'id': 951}]

>  <molecular_mass>  (115) 
278.3

>  <warheads>  (115) 
ab_unsat_carbonyl:2;exo_methylene_carbonyl:1

>  <n_warheads>  (115) 
3

>  <max_tier>  (115) 
1

>  <pains_flag>  (115) 


>  <MW>  (115) 
278.3

>  <cLogP>  (115) 
0.67

>  <HBD>  (115) 
2

>  <HBA>  (115) 
5

>  <TPSA>  (115) 
83.8

>  <ArRings>  (115) 
0

$$$$
SANC00658_minRM1.pdb
     RDKit          3D

 20 21  0  0  1  0  0  0  0  0999 V2000
   -3.7750    1.2000    0.7880 C   0  0  0  0  0  0  0  0  0  0  0  0
   -2.8340    0.4440   -0.1290 C   0  0  2  0  0  0  0  0  0  0  0  0
   -3.1820   -1.0330   -0.1280 C   0  0  0  0  0  0  0  0  0  0  0  0
   -4.2500   -1.5960   -0.1730 O   0  0  0  0  0  0  0  0  0  0  0  0
   -2.0580   -1.8200   -0.0440 O   0  0  0  0  0  0  0  0  0  0  0  0
   -0.9210   -0.9830   -0.1620 C   0  0  2  0  0  0  0  0  0  0  0  0
    0.2020   -1.4870    0.6770 C   0  0  0  0  0  0  0  0  0  0  0  0
    1.4180   -1.7100    0.1750 C   0  0  0  0  0  0  0  0  0  0  0  0
    1.7220   -1.7860   -1.2950 C   0  0  0  0  0  0  0  0  0  0  0  0
    2.4230   -2.9530   -1.5960 O   0  0  0  0  0  0  0  0  0  0  0  0
    2.5960   -1.7790    1.0890 C   0  0  0  0  0  0  0  0  0  0  0  0
    2.8330   -0.3560    1.6190 C   0  0  0  0  0  0  0  0  0  0  0  0
    2.9930    0.5910    0.4780 C   0  0  0  0  0  0  0  0  0  0  0  0
    2.0770    1.4900    0.0980 C   0  0  0  0  0  0  0  0  0  0  0  0
    2.3760    2.3900   -1.0380 C   0  0  0  0  0  0  0  0  0  0  0  0
    1.6080    3.2710   -1.3810 O   0  0  0  0  0  0  0  0  0  0  0  0
    0.7730    1.7030    0.7870 C   0  0  0  0  0  0  0  0  0  0  0  0
   -0.4480    1.5270   -0.1610 C   0  0  2  0  0  0  0  0  0  0  0  0
   -1.2290    2.6850   -0.1520 O   0  0  0  0  0  0  0  0  0  0  0  0
   -1.3760    0.4120    0.3540 C   0  0  1  0  0  0  0  0  0  0  0  0
  2  1  1  1
  2  3  1  0
 20  2  1  6
  3  4  2  0
  3  5  1  0
  6  5  1  1
  6 20  1  0
  6  7  1  0
  7  8  2  0
  8  9  1  0
  8 11  1  0
  9 10  1  0
 11 12  1  0
 12 13  1  0
 13 14  2  0
 14 15  1  0
 14 17  1  0
 15 16  2  0
 17 18  1  0
 18 19  1  1
 18 20  1  0
M  END
>  <id>  (116) 
658

>  <scaffolds>  (116) 
['O=C1CCCO1', 'O=C1CC2CCC=CCCC=CC2O1']

>  <name>  (116) 
Cyclodeca[b]furan-6-carboxaldehyde, 2,3,3a,4,5,8,9,11a-octahydro-4-hydroxy-10-(hydroxymethyl)-3-methyl-2-oxo-, (3S,3aR,4S,6E,10Z,11aR)-

>  <formula>  (116) 
C15H20O5

>  <SMILES>  (116) 
C[C@@H]1C(=O)OC2C=C(CO)CCC=C(C=O)C[C@H](O)C12

>  <ChEMBL_id>  (116) 


>  <ZINC_id>  (116) 


>  <PubChem_id>  (116) 


>  <DrugBank_id>  (116) 


>  <CAS_no>  (116) 
84807-49-8

>  <references>  (116) 
[{'journal': {'name': 'Phytochemistry', 'id': 10}, 'title': 'Germacranolides from Dicoma tomentosa', 'year': 1982, 'start_page': 2122, 'volume': 21, 'issue': 8, 'doi': '10.1016/0031-9422(82)83062-8', 'isbn': '', 'despositor': {'code': 'TMM', 'first_name': 'Thommas', 'last_name': 'Musyoka', 'id': 22}, 'refauthors_set': [{'author': {'first_name': '', 'initials': 'F', 'last_name': 'Bohlmann', 'id': 709}, 'first_author': True, 'id': 1349}, {'author': {'first_name': '', 'initials': 'P', 'last_name': 'Singh', 'id': 834}, 'first_author': None, 'id': 1350}, {'author': {'first_name': '', 'initials': 'J', 'last_name': 'Jakupovic', 'id': 703}, 'first_author': None, 'id': 1351}], 'id': 387}]

>  <classifications>  (116) 
[{'classification': 'Sesquiterpene', 'id': 828}, {'classification': 'Terpenoid', 'id': 839}, {'classification': 'Phenol lipids (Classyfire)', 'id': 951}]

>  <molecular_mass>  (116) 
280.32

>  <warheads>  (116) 
ab_unsat_carbonyl:1

>  <n_warheads>  (116) 
1

>  <max_tier>  (116) 
1

>  <pains_flag>  (116) 


>  <MW>  (116) 
280.3

>  <cLogP>  (116) 
0.75

>  <HBD>  (116) 
2

>  <HBA>  (116) 
5

>  <TPSA>  (116) 
83.8

>  <ArRings>  (116) 
0

$$$$
SANC00659_minRM1.pdb
     RDKit          3D

 25 26  0  0  1  0  0  0  0  0999 V2000
   -1.2470   -1.1740    0.7700 C   0  0  2  0  0  0  0  0  0  0  0  0
   -2.1230   -0.0400    0.3330 C   0  0  0  0  0  0  0  0  0  0  0  0
   -1.6850    1.1320   -0.1290 C   0  0  0  0  0  0  0  0  0  0  0  0
   -2.6040    2.2730   -0.4720 C   0  0  0  0  0  0  0  0  0  0  0  0
   -3.9150    1.9490   -0.0490 O   0  0  0  0  0  0  0  0  0  0  0  0
   -4.8910    2.8660   -0.2780 C   0  0  0  0  0  0  0  0  0  0  0  0
   -6.2140    2.3940    0.2290 C   0  0  0  0  0  0  0  0  0  0  0  0
   -4.6330    3.9160   -0.8340 O   0  0  0  0  0  0  0  0  0  0  0  0
   -0.2560    1.4530   -0.4360 C   0  0  0  0  0  0  0  0  0  0  0  0
    0.6600    1.3250    0.7760 C   0  0  0  0  0  0  0  0  0  0  0  0
    2.0970    1.1380    0.4250 C   0  0  0  0  0  0  0  0  0  0  0  0
    2.6120    0.1580   -0.3190 C   0  0  0  0  0  0  0  0  0  0  0  0
    4.0880   -0.0020   -0.5590 C   0  0  0  0  0  0  0  0  0  0  0  0
    4.7900    0.9080    0.2690 O   0  0  0  0  0  0  0  0  0  0  0  0
    6.1440    0.9210    0.1700 C   0  0  0  0  0  0  0  0  0  0  0  0
    6.7510    1.9260    1.0940 C   0  0  0  0  0  0  0  0  0  0  0  0
    6.7170    0.1700   -0.5990 O   0  0  0  0  0  0  0  0  0  0  0  0
    1.8120   -0.8690   -1.0580 C   0  0  0  0  0  0  0  0  0  0  0  0
    1.0670   -1.8400   -0.1350 C   0  0  0  0  0  0  0  0  0  0  0  0
   -0.4490   -1.8530   -0.3830 C   0  0  1  0  0  0  0  0  0  0  0  0
   -0.9880   -3.2480   -0.3910 C   0  0  0  0  0  0  0  0  0  0  0  0
   -0.6770   -4.2380   -1.2140 C   0  0  0  0  0  0  0  0  0  0  0  0
   -1.9770   -3.3480    0.6940 C   0  0  0  0  0  0  0  0  0  0  0  0
   -2.6580   -4.2760    1.0680 O   0  0  0  0  0  0  0  0  0  0  0  0
   -2.0850   -2.1600    1.3590 O   0  0  0  0  0  0  0  0  0  0  0  0
  1 20  1  0
  1  2  1  0
  1 25  1  6
  2  3  2  0
  3  4  1  0
  3  9  1  0
  4  5  1  0
  5  6  1  0
  6  8  2  0
  6  7  1  0
  9 10  1  0
 10 11  1  0
 11 12  2  0
 12 18  1  0
 12 13  1  0
 13 14  1  0
 14 15  1  0
 15 17  2  0
 15 16  1  0
 18 19  1  0
 20 19  1  1
 20 21  1  0
 21 22  2  0
 21 23  1  0
 23 24  2  0
 23 25  1  0
M  END
>  <id>  (117) 
659

>  <scaffolds>  (117) 
['C=C1C(=O)OC2C=CCCC=CCCC12', 'O=C1CCCO1', 'O=C1CC2CCC=CCCC=CC2O1']

>  <name>  (117) 
Cyclodeca[b]furan-2(3H)-one, 6,10-bis[(acetyloxy)methyl]-3a,4,5,8,9,11a-hexahydro-3-methylene-, [3aS-(3aR*,6Z,10Z,11aS*)]- (9CI)

>  <formula>  (117) 
C19H24O6

>  <SMILES>  (117) 
[H][C@@]12C=C(COC(C)=O)CCC=C(COC(C)=O)CC[C@@]1([H])C(=C)C(=O)O2

>  <ChEMBL_id>  (117) 


>  <ZINC_id>  (117) 


>  <PubChem_id>  (117) 


>  <DrugBank_id>  (117) 


>  <CAS_no>  (117) 
84807-50-1

>  <references>  (117) 
[{'journal': {'name': 'Phytochemistry', 'id': 10}, 'title': 'Germacranolides from Dicoma tomentosa', 'year': 1982, 'start_page': 2122, 'volume': 21, 'issue': 8, 'doi': '10.1016/0031-9422(82)83062-8', 'isbn': '', 'despositor': {'code': 'TMM', 'first_name': 'Thommas', 'last_name': 'Musyoka', 'id': 22}, 'refauthors_set': [{'author': {'first_name': '', 'initials': 'F', 'last_name': 'Bohlmann', 'id': 709}, 'first_author': True, 'id': 1349}, {'author': {'first_name': '', 'initials': 'P', 'last_name': 'Singh', 'id': 834}, 'first_author': None, 'id': 1350}, {'author': {'first_name': '', 'initials': 'J', 'last_name': 'Jakupovic', 'id': 703}, 'first_author': None, 'id': 1351}], 'id': 387}]

>  <classifications>  (117) 
[{'classification': 'Sesquiterpene', 'id': 828}, {'classification': 'Terpenoid', 'id': 839}, {'classification': 'Phenol lipids (Classyfire)', 'id': 951}]

>  <molecular_mass>  (117) 
348.39

>  <warheads>  (117) 
ab_unsat_carbonyl:1;exo_methylene_carbonyl:1

>  <n_warheads>  (117) 
2

>  <max_tier>  (117) 
1

>  <pains_flag>  (117) 


>  <MW>  (117) 
348.4

>  <cLogP>  (117) 
2.64

>  <HBD>  (117) 
0

>  <HBA>  (117) 
6

>  <TPSA>  (117) 
78.9

>  <ArRings>  (117) 
0

$$$$
SANC00660_minRM1.pdb
     RDKit          3D

 22 23  0  0  1  0  0  0  0  0999 V2000
   -2.1010   -0.0650    0.7560 C   0  0  2  0  0  0  0  0  0  0  0  0
   -2.5840    1.2520    0.2300 C   0  0  0  0  0  0  0  0  0  0  0  0
   -1.8110    2.1960   -0.3080 C   0  0  0  0  0  0  0  0  0  0  0  0
   -2.3550    3.5330   -0.7420 C   0  0  0  0  0  0  0  0  0  0  0  0
   -3.7420    3.5580   -0.5630 O   0  0  0  0  0  0  0  0  0  0  0  0
   -0.3500    2.0570   -0.5970 C   0  0  0  0  0  0  0  0  0  0  0  0
    0.4830    1.7220    0.6360 C   0  0  0  0  0  0  0  0  0  0  0  0
    1.7920    1.0830    0.3210 C   0  0  0  0  0  0  0  0  0  0  0  0
    1.9770   -0.0540   -0.3530 C   0  0  0  0  0  0  0  0  0  0  0  0
    3.3300   -0.6800   -0.5530 C   0  0  0  0  0  0  0  0  0  0  0  0
    4.2740   -0.0040    0.2570 O   0  0  0  0  0  0  0  0  0  0  0  0
    5.5650   -0.4240    0.1910 C   0  0  0  0  0  0  0  0  0  0  0  0
    6.4480    0.3730    1.0940 C   0  0  0  0  0  0  0  0  0  0  0  0
    5.8790   -1.3480   -0.5360 O   0  0  0  0  0  0  0  0  0  0  0  0
    0.8960   -0.8260   -1.0420 C   0  0  0  0  0  0  0  0  0  0  0  0
   -0.1040   -1.4640   -0.0720 C   0  0  0  0  0  0  0  0  0  0  0  0
   -1.5530   -1.0280   -0.3390 C   0  0  1  0  0  0  0  0  0  0  0  0
   -2.4930   -2.1890   -0.2700 C   0  0  0  0  0  0  0  0  0  0  0  0
   -2.5000   -3.2780   -1.0230 C   0  0  0  0  0  0  0  0  0  0  0  0
   -3.4640   -1.9090    0.8000 C   0  0  0  0  0  0  0  0  0  0  0  0
   -4.3950   -2.5600    1.2190 O   0  0  0  0  0  0  0  0  0  0  0  0
   -3.2010   -0.7070    1.3890 O   0  0  0  0  0  0  0  0  0  0  0  0
  1 17  1  0
  1  2  1  0
  1 22  1  6
  2  3  2  0
  3  4  1  0
  3  6  1  0
  4  5  1  0
  6  7  1  0
  7  8  1  0
  8  9  2  0
  9 15  1  0
  9 10  1  0
 10 11  1  0
 11 12  1  0
 12 14  2  0
 12 13  1  0
 15 16  1  0
 17 16  1  1
 17 18  1  0
 18 19  2  0
 18 20  1  0
 20 21  2  0
 20 22  1  0
M  END
>  <id>  (118) 
660

>  <scaffolds>  (118) 
['C=C1C(=O)OC2C=CCCC=CCCC12', 'O=C1CCCO1', 'O=C1CC2CCC=CCCC=CC2O1']

>  <name>  (118) 
Cyclodeca[b]furan-2(3H)-one, 6-[(acetyloxy)methyl]-3a,4,5,8,9,11a-hexahydro-10-(hydroxymethyl)-3-methylene-, [3aS-(3aR*,6Z,10Z,11aS*)]- (9CI)

>  <formula>  (118) 
C17H22O5

>  <SMILES>  (118) 
[H][C@@]12C=C(CO)CCC=C(COC(C)=O)CC[C@@]1([H])C(=C)C(=O)O2

>  <ChEMBL_id>  (118) 


>  <ZINC_id>  (118) 


>  <PubChem_id>  (118) 


>  <DrugBank_id>  (118) 


>  <CAS_no>  (118) 
84807-51-2

>  <references>  (118) 
[{'journal': {'name': 'Phytochemistry', 'id': 10}, 'title': 'Germacranolides from Dicoma tomentosa', 'year': 1982, 'start_page': 2122, 'volume': 21, 'issue': 8, 'doi': '10.1016/0031-9422(82)83062-8', 'isbn': '', 'despositor': {'code': 'TMM', 'first_name': 'Thommas', 'last_name': 'Musyoka', 'id': 22}, 'refauthors_set': [{'author': {'first_name': '', 'initials': 'F', 'last_name': 'Bohlmann', 'id': 709}, 'first_author': True, 'id': 1349}, {'author': {'first_name': '', 'initials': 'P', 'last_name': 'Singh', 'id': 834}, 'first_author': None, 'id': 1350}, {'author': {'first_name': '', 'initials': 'J', 'last_name': 'Jakupovic', 'id': 703}, 'first_author': None, 'id': 1351}], 'id': 387}]

>  <classifications>  (118) 
[{'classification': 'Sesquiterpene', 'id': 828}, {'classification': 'Terpenoid', 'id': 839}, {'classification': 'Phenol lipids (Classyfire)', 'id': 951}]

>  <molecular_mass>  (118) 
306.35

>  <warheads>  (118) 
ab_unsat_carbonyl:1;exo_methylene_carbonyl:1

>  <n_warheads>  (118) 
2

>  <max_tier>  (118) 
1

>  <pains_flag>  (118) 


>  <MW>  (118) 
306.4

>  <cLogP>  (118) 
2.07

>  <HBD>  (118) 
1

>  <HBA>  (118) 
5

>  <TPSA>  (118) 
72.8

>  <ArRings>  (118) 
0

$$$$
SANC00661_minRM1.pdb
     RDKit          3D

 22 23  0  0  1  0  0  0  0  0999 V2000
    0.0780   -1.0740    0.7420 C   0  0  2  0  0  0  0  0  0  0  0  0
   -1.1710   -0.3830    0.2900 C   0  0  0  0  0  0  0  0  0  0  0  0
   -1.2500    0.9070   -0.0410 C   0  0  0  0  0  0  0  0  0  0  0  0
   -2.5450    1.5800   -0.4080 C   0  0  0  0  0  0  0  0  0  0  0  0
   -3.6130    0.7130   -0.0820 O   0  0  0  0  0  0  0  0  0  0  0  0
   -4.8730    1.1310   -0.3760 C   0  0  0  0  0  0  0  0  0  0  0  0
   -5.8930    0.1230    0.0280 C   0  0  0  0  0  0  0  0  0  0  0  0
   -5.0560    2.2130   -0.9020 O   0  0  0  0  0  0  0  0  0  0  0  0
   -0.0760    1.8260   -0.1660 C   0  0  0  0  0  0  0  0  0  0  0  0
    0.6900    1.9830    1.1440 C   0  0  0  0  0  0  0  0  0  0  0  0
    2.0980    2.4320    0.9640 C   0  0  0  0  0  0  0  0  0  0  0  0
    3.0410    1.8550    0.2120 C   0  0  0  0  0  0  0  0  0  0  0  0
    4.4040    2.4470    0.2490 C   0  0  0  0  0  0  0  0  0  0  0  0
    5.2150    2.2800   -0.6420 O   0  0  0  0  0  0  0  0  0  0  0  0
    2.8440    0.6850   -0.6910 C   0  0  0  0  0  0  0  0  0  0  0  0
    2.5090   -0.6090    0.0580 C   0  0  0  0  0  0  0  0  0  0  0  0
    1.1640   -1.2200   -0.3640 C   0  0  1  0  0  0  0  0  0  0  0  0
    1.2680   -2.7010   -0.5430 C   0  0  0  0  0  0  0  0  0  0  0  0
    2.0080   -3.3680   -1.4140 C   0  0  0  0  0  0  0  0  0  0  0  0
    0.3600   -3.3290    0.4290 C   0  0  0  0  0  0  0  0  0  0  0  0
    0.1250   -4.4930    0.6640 O   0  0  0  0  0  0  0  0  0  0  0  0
   -0.2830   -2.3800    1.1720 O   0  0  0  0  0  0  0  0  0  0  0  0
  1 17  1  0
  1  2  1  0
  1 22  1  6
  2  3  2  0
  3  4  1  0
  3  9  1  0
  4  5  1  0
  5  6  1  0
  6  8  2  0
  6  7  1  0
  9 10  1  0
 10 11  1  0
 11 12  2  0
 12 15  1  0
 12 13  1  0
 13 14  2  0
 15 16  1  0
 17 16  1  1
 17 18  1  0
 18 19  2  0
 18 20  1  0
 20 21  2  0
 20 22  1  0
M  END
>  <id>  (119) 
661

>  <scaffolds>  (119) 
['C=C1C(=O)OC2C=CCCC=CCCC12', 'O=C1CCCO1', 'O=C1CC2CCC=CCCC=CC2O1']

>  <name>  (119) 
Cyclodeca[b]furan-6-carboxaldehyde, 10-[(acetyloxy)methyl]-2,3,3a,4,5,8,9,11a-octahydro-3-methylene-2-oxo-, [3aS-(3aR*,6Z,10Z,11aS*)]- (9CI)

>  <formula>  (119) 
C17H20O5

>  <SMILES>  (119) 
[H][C@@]12C=C(COC(C)=O)CCC=C(C=O)CC[C@@]1([H])C(=C)C(=O)O2

>  <ChEMBL_id>  (119) 


>  <ZINC_id>  (119) 


>  <PubChem_id>  (119) 


>  <DrugBank_id>  (119) 


>  <CAS_no>  (119) 
84807-52-3

>  <references>  (119) 
[{'journal': {'name': 'Phytochemistry', 'id': 10}, 'title': 'Germacranolides from Dicoma tomentosa', 'year': 1982, 'start_page': 2122, 'volume': 21, 'issue': 8, 'doi': '10.1016/0031-9422(82)83062-8', 'isbn': '', 'despositor': {'code': 'TMM', 'first_name': 'Thommas', 'last_name': 'Musyoka', 'id': 22}, 'refauthors_set': [{'author': {'first_name': '', 'initials': 'F', 'last_name': 'Bohlmann', 'id': 709}, 'first_author': True, 'id': 1349}, {'author': {'first_name': '', 'initials': 'P', 'last_name': 'Singh', 'id': 834}, 'first_author': None, 'id': 1350}, {'author': {'first_name': '', 'initials': 'J', 'last_name': 'Jakupovic', 'id': 703}, 'first_author': None, 'id': 1351}], 'id': 387}]

>  <classifications>  (119) 
[{'classification': 'Sesquiterpene', 'id': 828}, {'classification': 'Terpenoid', 'id': 839}, {'classification': 'Phenol lipids (Classyfire)', 'id': 951}]

>  <molecular_mass>  (119) 
304.34

>  <warheads>  (119) 
ab_unsat_carbonyl:2;exo_methylene_carbonyl:1

>  <n_warheads>  (119) 
3

>  <max_tier>  (119) 
1

>  <pains_flag>  (119) 


>  <MW>  (119) 
304.3

>  <cLogP>  (119) 
2.27

>  <HBD>  (119) 
0

>  <HBA>  (119) 
5

>  <TPSA>  (119) 
69.7

>  <ArRings>  (119) 
0

$$$$
SANC00662_minRM1.pdb
     RDKit          3D

 19 20  0  0  1  0  0  0  0  0999 V2000
   -1.1910   -0.1830    0.6810 C   0  0  2  0  0  0  0  0  0  0  0  0
   -1.7300    1.0940    0.1130 C   0  0  0  0  0  0  0  0  0  0  0  0
   -0.9880    2.1300   -0.2800 C   0  0  0  0  0  0  0  0  0  0  0  0
   -1.5920    3.4220   -0.7640 C   0  0  0  0  0  0  0  0  0  0  0  0
   -2.9850    3.3610   -0.6430 O   0  0  0  0  0  0  0  0  0  0  0  0
    0.5060    2.1360   -0.3520 C   0  0  0  0  0  0  0  0  0  0  0  0
    1.1700    1.8770    0.9970 C   0  0  0  0  0  0  0  0  0  0  0  0
    2.5610    1.3590    0.8830 C   0  0  0  0  0  0  0  0  0  0  0  0
    2.9650    0.2780    0.2080 C   0  0  0  0  0  0  0  0  0  0  0  0
    4.4070   -0.0750    0.2800 C   0  0  0  0  0  0  0  0  0  0  0  0
    4.9770   -0.6790   -0.6090 O   0  0  0  0  0  0  0  0  0  0  0  0
    2.1090   -0.5930   -0.6480 C   0  0  0  0  0  0  0  0  0  0  0  0
    1.0370   -1.3500    0.1450 C   0  0  0  0  0  0  0  0  0  0  0  0
   -0.3910   -1.0510   -0.3350 C   0  0  1  0  0  0  0  0  0  0  0  0
   -1.2060   -2.3010   -0.4290 C   0  0  0  0  0  0  0  0  0  0  0  0
   -0.9920   -3.3570   -1.1980 C   0  0  0  0  0  0  0  0  0  0  0  0
   -2.3440   -2.1580    0.4930 C   0  0  0  0  0  0  0  0  0  0  0  0
   -3.2520   -2.9130    0.7620 O   0  0  0  0  0  0  0  0  0  0  0  0
   -2.2970   -0.9540    1.1360 O   0  0  0  0  0  0  0  0  0  0  0  0
  1 14  1  0
  1  2  1  0
  1 19  1  6
  2  3  2  0
  3  4  1  0
  3  6  1  0
  4  5  1  0
  6  7  1  0
  7  8  1  0
  8  9  2  0
  9 12  1  0
  9 10  1  0
 10 11  2  0
 12 13  1  0
 14 13  1  1
 14 15  1  0
 15 16  2  0
 15 17  1  0
 17 18  2  0
 17 19  1  0
M  END
>  <id>  (120) 
662

>  <scaffolds>  (120) 
['C=C1C(=O)OC2C=CCCC=CCCC12', 'O=C1CCCO1', 'O=C1CC2CCC=CCCC=CC2O1']

>  <name>  (120) 
Cyclodeca[b]furan-6-carboxaldehyde, 2,3,3a,4,5,8,9,11a-octahydro-10-(hydroxymethyl)-3-methylene-2-oxo-, [3aS-(3aR*,6E,10Z,11aS*)]- (9CI)

>  <formula>  (120) 
C15H18O4

>  <SMILES>  (120) 
[H][C@@]12C=C(CO)CCC=C(C=O)CC[C@@]1([H])C(=C)C(=O)O2

>  <ChEMBL_id>  (120) 


>  <ZINC_id>  (120) 


>  <PubChem_id>  (120) 


>  <DrugBank_id>  (120) 


>  <CAS_no>  (120) 
84807-53-4

>  <references>  (120) 
[{'journal': {'name': 'Phytochemistry', 'id': 10}, 'title': 'Germacranolides from Dicoma tomentosa', 'year': 1982, 'start_page': 2122, 'volume': 21, 'issue': 8, 'doi': '10.1016/0031-9422(82)83062-8', 'isbn': '', 'despositor': {'code': 'TMM', 'first_name': 'Thommas', 'last_name': 'Musyoka', 'id': 22}, 'refauthors_set': [{'author': {'first_name': '', 'initials': 'F', 'last_name': 'Bohlmann', 'id': 709}, 'first_author': True, 'id': 1349}, {'author': {'first_name': '', 'initials': 'P', 'last_name': 'Singh', 'id': 834}, 'first_author': None, 'id': 1350}, {'author': {'first_name': '', 'initials': 'J', 'last_name': 'Jakupovic', 'id': 703}, 'first_author': None, 'id': 1351}], 'id': 387}]

>  <classifications>  (120) 
[{'classification': 'Sesquiterpene', 'id': 828}, {'classification': 'Terpenoid', 'id': 839}, {'classification': 'Phenol lipids (Classyfire)', 'id': 951}]

>  <molecular_mass>  (120) 
262.3

>  <warheads>  (120) 
ab_unsat_carbonyl:2;exo_methylene_carbonyl:1

>  <n_warheads>  (120) 
3

>  <max_tier>  (120) 
1

>  <pains_flag>  (120) 


>  <MW>  (120) 
262.3

>  <cLogP>  (120) 
1.7

>  <HBD>  (120) 
1

>  <HBA>  (120) 
4

>  <TPSA>  (120) 
63.6

>  <ArRings>  (120) 
0

$$$$
SANC00691_minRM1.pdb
     RDKit          3D

 21 24  0  0  1  0  0  0  0  0999 V2000
    0.6750   -0.4000   -0.1940 C   0  0  2  0  0  0  0  0  0  0  0  0
    1.4830   -1.6620    0.1420 C   0  0  0  0  0  0  0  0  0  0  0  0
    2.8540   -1.7100   -0.5370 C   0  0  0  0  0  0  0  0  0  0  0  0
    3.5730   -0.3620   -0.4540 C   0  0  2  0  0  0  0  0  0  0  0  0
    4.9780   -0.4310   -1.0110 C   0  0  0  0  0  0  0  0  0  0  0  0
    3.5190    0.1310    0.9720 C   0  0  0  0  0  0  0  0  0  0  0  0
    2.3900    0.8200    1.1700 C   0  0  0  0  0  0  0  0  0  0  0  0
    1.5710    0.8460   -0.0990 C   0  0  2  0  0  0  0  0  0  0  0  0
    0.7950    2.1340   -0.3040 C   0  0  0  0  0  0  0  0  0  0  0  0
   -0.4260    2.1960    0.6050 C   0  0  0  0  0  0  0  0  0  0  0  0
   -1.2750    0.9980    0.3330 C   0  0  0  0  0  0  0  0  0  0  0  0
   -2.4970    1.0790   -0.2130 C   0  0  0  0  0  0  0  0  0  0  0  0
   -3.1270    2.3790   -0.5720 C   0  0  0  0  0  0  0  0  0  0  0  0
   -3.2820   -0.1290   -0.4930 C   0  0  0  0  0  0  0  0  0  0  0  0
   -4.3900   -0.1160   -1.0080 O   0  0  0  0  0  0  0  0  0  0  0  0
   -2.6620   -1.4170   -0.1110 C   0  0  0  0  0  0  0  0  0  0  0  0
   -3.3410   -2.5800   -0.2910 O   0  0  0  0  0  0  0  0  0  0  0  0
   -1.4400   -1.5000    0.4280 C   0  0  0  0  0  0  0  0  0  0  0  0
   -0.5950   -0.2940    0.6880 C   0  0  1  0  0  0  0  0  0  0  0  0
   -0.2950   -0.3070    2.1920 C   0  0  0  0  0  0  0  0  0  0  0  0
    2.6820    0.6740   -1.1660 C   0  0  0  0  0  0  0  0  0  0  0  0
  1  8  1  0
  1  2  1  1
  1 19  1  0
  2  3  1  0
  3  4  1  0
  4 21  1  0
  4  5  1  6
  4  6  1  0
  6  7  2  0
  8  7  1  0
  8 21  1  0
  8  9  1  6
  9 10  1  0
 10 11  1  0
 11 12  2  0
 11 19  1  0
 12 13  1  0
 12 14  1  0
 14 15  2  0
 14 16  1  0
 16 17  1  0
 16 18  2  0
 18 19  1  0
 19 20  1  1
M  END
>  <id>  (121) 
691

>  <scaffolds>  (121) 
['C=C1CCC2CCCCC2C1', 'C1CCCCC1', 'C1CCC2CCCCC2C1']

>  <name>  (121) 
ent-2-hydroxy-norbeyer-1,4,15-trien-3-one

>  <formula>  (121) 
C19H24O2

>  <SMILES>  (121) 
[H][C@@]13CC[C@]4(C)C=C[C@@]1(CCC2=C(C)C(=O)C(O)=C[C@]23C)C4

>  <ChEMBL_id>  (121) 


>  <ZINC_id>  (121) 


>  <PubChem_id>  (121) 


>  <DrugBank_id>  (121) 


>  <CAS_no>  (121) 
193969-13-0

>  <references>  (121) 
[{'journal': {'name': 'Phytochemistry', 'id': 10}, 'title': 'Diosphenols from Spirostachys africana', 'year': 1997, 'start_page': 1217, 'volume': 45, 'issue': 6, 'doi': '10.1016/S0031-9422(97)00113-1', 'isbn': '', 'despositor': {'code': 'rah', 'first_name': 'Rowan', 'last_name': 'Hatherley', 'id': 20}, 'refauthors_set': [{'author': {'first_name': 'Namboole', 'initials': 'NM', 'last_name': 'Munkombwe', 'id': 837}, 'first_author': True, 'id': 1386}, {'author': {'first_name': 'Titus', 'initials': 'T', 'last_name': 'Maswabi', 'id': 845}, 'first_author': None, 'id': 1387}, {'author': {'first_name': 'Neil', 'initials': 'NA', 'last_name': 'Hughes', 'id': 836}, 'first_author': None, 'id': 1388}], 'id': 396}]

>  <classifications>  (121) 
[{'classification': 'Organooxygen compounds (Classyfire)', 'id': 954}]

>  <molecular_mass>  (121) 
284.39

>  <warheads>  (121) 
ab_unsat_carbonyl:2

>  <n_warheads>  (121) 
2

>  <max_tier>  (121) 
1

>  <pains_flag>  (121) 


>  <MW>  (121) 
284.4

>  <cLogP>  (121) 
4.49

>  <HBD>  (121) 
1

>  <HBA>  (121) 
2

>  <TPSA>  (121) 
37.3

>  <ArRings>  (121) 
0

$$$$
SANC00697_minRM1.pdb
     RDKit          3D

 24 25  0  0  1  0  0  0  0  0999 V2000
    2.2480    1.1570   -1.4160 C   0  0  0  0  0  0  0  0  0  0  0  0
    2.0710    1.7550   -0.0660 C   0  0  0  0  0  0  0  0  0  0  0  0
    0.9670    2.4290    0.2740 C   0  0  0  0  0  0  0  0  0  0  0  0
   -0.1610    2.6520   -0.6760 C   0  0  0  0  0  0  0  0  0  0  0  0
   -1.4310    3.1780   -0.0000 C   0  0  0  0  0  0  0  0  0  0  0  0
   -2.6330    2.2150   -0.1570 C   0  0  2  0  0  0  0  0  0  0  0  0
   -3.1140    2.1590   -1.6090 C   0  0  0  0  0  0  0  0  0  0  0  0
   -3.6410    2.7870    0.6350 O   0  0  0  0  0  0  0  0  0  0  0  0
   -2.2420    0.8790    0.4190 C   0  0  0  0  0  0  0  0  0  0  0  0
   -1.9120   -0.1880   -0.3000 C   0  0  0  0  0  0  0  0  0  0  0  0
   -1.3360   -1.4510    0.2980 C   0  0  1  0  0  0  0  0  0  0  0  0
   -0.9840   -1.2780    1.6390 O   0  0  0  0  0  0  0  0  0  0  0  0
   -2.3890   -2.5880    0.3100 C   0  0  0  0  0  0  0  0  0  0  0  0
   -3.5720   -2.2290    1.2000 C   0  0  0  0  0  0  0  0  0  0  0  0
   -2.8880   -2.8830   -1.0990 C   0  0  0  0  0  0  0  0  0  0  0  0
   -0.0940   -1.8390   -0.5500 C   0  0  0  0  0  0  0  0  0  0  0  0
    1.0030   -2.5780    0.2280 C   0  0  0  0  0  0  0  0  0  0  0  0
    2.0870   -1.6280    0.5530 C   0  0  0  0  0  0  0  0  0  0  0  0
    2.1460   -0.6470    1.4600 C   0  0  0  0  0  0  0  0  0  0  0  0
    3.4390    0.1160    1.2810 C   0  0  2  0  0  0  0  0  0  0  0  0
    3.2030    1.5820    0.8950 C   0  0  0  0  0  0  0  0  0  0  0  0
    4.1290   -0.5470    0.2270 O   0  0  0  0  0  0  0  0  0  0  0  0
    3.3460   -1.5790   -0.2360 C   0  0  0  0  0  0  0  0  0  0  0  0
    3.7670   -2.2560   -1.1440 O   0  0  0  0  0  0  0  0  0  0  0  0
  1  2  1  0
  2  3  2  0
  2 21  1  0
  3  4  1  0
  4  5  1  0
  5  6  1  0
  6  7  1  6
  6  9  1  0
  6  8  1  0
  9 10  2  0
 10 11  1  0
 11 16  1  0
 11 13  1  0
 11 12  1  1
 13 15  1  0
 13 14  1  0
 16 17  1  0
 17 18  1  0
 18 23  1  0
 18 19  2  0
 19 20  1  0
 20 22  1  0
 20 21  1  6
 22 23  1  0
 23 24  2  0
M  END
>  <id>  (122) 
697

>  <scaffolds>  (122) 
[]

>  <name>  (122) 
(-)-(1S*,4S*,10R*)-1,4-Dihydroxycembra-2E,7E,11Z-trien-20,10-olide (4)

>  <formula>  (122) 
C20H30O4

>  <SMILES>  (122) 
CC1=CCC[C@](C)(O)C=C[C@@](O)(C(C)C)CCC2=C[C@H](C1)OC2=O

>  <ChEMBL_id>  (122) 


>  <ZINC_id>  (122) 


>  <PubChem_id>  (122) 


>  <DrugBank_id>  (122) 


>  <CAS_no>  (122) 
1346224-13-2

>  <references>  (122) 
[{'journal': {'name': 'Journal of Natural Products', 'id': 5}, 'title': 'Cembranolides from the Leaves of Croton gratissimus', 'year': 2011, 'start_page': 2349, 'volume': 74, 'issue': None, 'doi': '10.1021/np2002012', 'isbn': '', 'despositor': {'code': 'NFA', 'first_name': 'Ngonidzashe', 'last_name': 'Faya', 'id': 21}, 'refauthors_set': [{'author': {'first_name': 'Moses', 'initials': 'MK', 'last_name': 'Langat', 'id': 730}, 'first_author': True, 'id': 1048}, {'author': {'first_name': 'Neil', 'initials': 'NR', 'last_name': 'Crouch', 'id': 524}, 'first_author': None, 'id': 1142}, {'author': {'first_name': 'Peter', 'initials': 'PJ', 'last_name': 'Smith', 'id': 490}, 'first_author': None, 'id': 1143}, {'author': {'first_name': 'Dulcie', 'initials': 'DA', 'last_name': 'Mulholland', 'id': 525}, 'first_author': None, 'id': 1144}], 'id': 351}]

>  <classifications>  (122) 
[{'classification': 'Cembranolide', 'id': 758}, {'classification': 'Phenol lipids (Classyfire)', 'id': 951}]

>  <molecular_mass>  (122) 
334.45

>  <warheads>  (122) 
ab_unsat_carbonyl:1

>  <n_warheads>  (122) 
1

>  <max_tier>  (122) 
1

>  <pains_flag>  (122) 


>  <MW>  (122) 
334.5

>  <cLogP>  (122) 
3.44

>  <HBD>  (122) 
2

>  <HBA>  (122) 
4

>  <TPSA>  (122) 
66.8

>  <ArRings>  (122) 
0

$$$$
SANC00698_minRM1.pdb
     RDKit          3D

 25 26  0  0  1  0  0  0  0  0999 V2000
   -1.0820    4.1490    0.6330 C   0  0  0  0  0  0  0  0  0  0  0  0
   -0.7720    3.2000   -0.2430 C   0  0  0  0  0  0  0  0  0  0  0  0
    0.6250    3.0050   -0.7250 C   0  0  0  0  0  0  0  0  0  0  0  0
    1.5140    2.5200    0.4240 C   0  0  1  0  0  0  0  0  0  0  0  0
    1.2050    1.1000    0.8460 C   0  0  0  0  0  0  0  0  0  0  0  0
    2.2860    0.3410    0.6460 C   0  0  0  0  0  0  0  0  0  0  0  0
    2.5970   -1.0600    0.9730 C   0  0  0  0  0  0  0  0  0  0  0  0
    1.3980   -1.9730    1.1920 C   0  0  0  0  0  0  0  0  0  0  0  0
    0.5630   -2.3820   -0.0530 C   0  0  2  0  0  0  0  0  0  0  0  0
    0.2210   -3.7360    0.0620 O   0  0  0  0  0  0  0  0  0  0  0  0
    1.3250   -2.2960   -1.3990 C   0  0  0  0  0  0  0  0  0  0  0  0
    2.5350   -3.2250   -1.4210 C   0  0  0  0  0  0  0  0  0  0  0  0
    0.4110   -2.6670   -2.5640 C   0  0  0  0  0  0  0  0  0  0  0  0
   -0.6840   -1.5190   -0.1040 C   0  0  0  0  0  0  0  0  0  0  0  0
   -1.7520   -1.7950    0.6380 C   0  0  0  0  0  0  0  0  0  0  0  0
   -3.0860   -1.0910    0.5910 C   0  0  1  0  0  0  0  0  0  0  0  0
   -4.1140   -2.1050    0.0570 C   0  0  0  0  0  0  0  0  0  0  0  0
   -3.4400   -0.6560    1.8730 O   0  0  0  0  0  0  0  0  0  0  0  0
   -3.1200    0.1720   -0.2870 C   0  0  0  0  0  0  0  0  0  0  0  0
   -2.2860    1.3020    0.3040 C   0  0  0  0  0  0  0  0  0  0  0  0
   -1.8380    2.2830   -0.7940 C   0  0  1  0  0  0  0  0  0  0  0  0
   -2.9880    2.9950   -1.1500 O   0  0  0  0  0  0  0  0  0  0  0  0
    3.3400    1.2130    0.0620 C   0  0  0  0  0  0  0  0  0  0  0  0
    4.4720    0.9920   -0.2980 O   0  0  0  0  0  0  0  0  0  0  0  0
    2.8580    2.4950   -0.0470 O   0  0  0  0  0  0  0  0  0  0  0  0
  1  2  2  0
  2 21  1  0
  2  3  1  0
  4  3  1  6
  4 25  1  0
  4  5  1  0
  5  6  2  0
  6 23  1  0
  6  7  1  0
  7  8  1  0
  8  9  1  0
  9 11  1  0
  9 14  1  0
  9 10  1  1
 11 13  1  0
 11 12  1  0
 14 15  2  0
 15 16  1  0
 16 19  1  0
 16 17  1  6
 16 18  1  0
 19 20  1  0
 20 21  1  0
 21 22  1  1
 23 24  2  0
 23 25  1  0
M  END
>  <id>  (123) 
698

>  <scaffolds>  (123) 
[]

>  <name>  (123) 
(-)-(1S*,4S*,7S*,10R*)-1,4,7-Trihydroxycembra-2E,8(19),11Z-trien-20,10-olide

>  <formula>  (123) 
C20H30O5

>  <SMILES>  (123) 
C=C1C[C@H]2C=C(CC[C@](O)(C(C)C)C=C[C@@](C)(O)CC[C@H]1O)C(=O)O2

>  <ChEMBL_id>  (123) 


>  <ZINC_id>  (123) 


>  <PubChem_id>  (123) 


>  <DrugBank_id>  (123) 


>  <CAS_no>  (123) 
1346224-17-6

>  <references>  (123) 
[{'journal': {'name': 'Journal of Natural Products', 'id': 5}, 'title': 'Cembranolides from the Leaves of Croton gratissimus', 'year': 2011, 'start_page': 2349, 'volume': 74, 'issue': None, 'doi': '10.1021/np2002012', 'isbn': '', 'despositor': {'code': 'NFA', 'first_name': 'Ngonidzashe', 'last_name': 'Faya', 'id': 21}, 'refauthors_set': [{'author': {'first_name': 'Moses', 'initials': 'MK', 'last_name': 'Langat', 'id': 730}, 'first_author': True, 'id': 1048}, {'author': {'first_name': 'Neil', 'initials': 'NR', 'last_name': 'Crouch', 'id': 524}, 'first_author': None, 'id': 1142}, {'author': {'first_name': 'Peter', 'initials': 'PJ', 'last_name': 'Smith', 'id': 490}, 'first_author': None, 'id': 1143}, {'author': {'first_name': 'Dulcie', 'initials': 'DA', 'last_name': 'Mulholland', 'id': 525}, 'first_author': None, 'id': 1144}], 'id': 351}]

>  <classifications>  (123) 
[{'classification': 'Cembranolide', 'id': 758}, {'classification': 'Phenol lipids (Classyfire)', 'id': 951}]

>  <molecular_mass>  (123) 
350.45

>  <warheads>  (123) 
ab_unsat_carbonyl:1

>  <n_warheads>  (123) 
1

>  <max_tier>  (123) 
1

>  <pains_flag>  (123) 


>  <MW>  (123) 
350.5

>  <cLogP>  (123) 
2.41

>  <HBD>  (123) 
3

>  <HBA>  (123) 
5

>  <TPSA>  (123) 
87.0

>  <ArRings>  (123) 
0

$$$$
SANC00699_minRM1.pdb
     RDKit          3D

 25 26  0  0  1  0  0  0  0  0999 V2000
    2.9190   -3.0150    0.5600 C   0  0  0  0  0  0  0  0  0  0  0  0
    2.2680   -1.7700   -0.0710 C   0  0  2  0  0  0  0  0  0  0  0  0
    2.1350   -0.7470    0.8680 O   0  0  0  0  0  0  0  0  0  0  0  0
    0.9310   -2.1970   -0.6290 C   0  0  0  0  0  0  0  0  0  0  0  0
   -0.0910   -2.5460    0.1480 C   0  0  0  0  0  0  0  0  0  0  0  0
   -1.3570   -3.1150   -0.4010 C   0  0  0  0  0  0  0  0  0  0  0  0
   -2.5890   -2.3170    0.0810 C   0  0  1  0  0  0  0  0  0  0  0  0
   -3.8710   -2.8680   -0.5630 C   0  0  0  0  0  0  0  0  0  0  0  0
   -2.6360   -2.5020    1.4640 O   0  0  0  0  0  0  0  0  0  0  0  0
   -2.3900   -0.8840   -0.3280 C   0  0  0  0  0  0  0  0  0  0  0  0
   -2.0960    0.0990    0.5150 C   0  0  0  0  0  0  0  0  0  0  0  0
   -1.7270    1.4990    0.0740 C   0  0  1  0  0  0  0  0  0  0  0  0
   -1.5550    1.5750   -1.3070 O   0  0  0  0  0  0  0  0  0  0  0  0
   -2.8990    2.4570    0.4090 C   0  0  0  0  0  0  0  0  0  0  0  0
   -2.5690    3.8940    0.0310 C   0  0  0  0  0  0  0  0  0  0  0  0
   -4.1730    2.0210   -0.3070 C   0  0  0  0  0  0  0  0  0  0  0  0
   -0.4310    1.8790    0.8460 C   0  0  0  0  0  0  0  0  0  0  0  0
    0.5920    2.6970    0.0520 C   0  0  0  0  0  0  0  0  0  0  0  0
    1.6770    1.8200   -0.4380 C   0  0  0  0  0  0  0  0  0  0  0  0
    1.6690    0.8360   -1.3460 C   0  0  0  0  0  0  0  0  0  0  0  0
    3.0660    0.2730   -1.4740 C   0  0  2  0  0  0  0  0  0  0  0  0
    3.2020   -1.2210   -1.1710 C   0  0  0  0  0  0  0  0  0  0  0  0
    3.8580    1.0020   -0.5410 O   0  0  0  0  0  0  0  0  0  0  0  0
    3.0570    1.9100    0.1070 C   0  0  0  0  0  0  0  0  0  0  0  0
    3.5540    2.6160    0.9540 O   0  0  0  0  0  0  0  0  0  0  0  0
  2  1  1  1
  2 22  1  0
  2  4  1  0
  2  3  1  0
  4  5  2  0
  5  6  1  0
  6  7  1  0
  7  8  1  6
  7 10  1  0
  7  9  1  0
 10 11  2  0
 11 12  1  0
 12 13  1  6
 12 14  1  0
 12 17  1  0
 14 16  1  0
 14 15  1  0
 17 18  1  0
 18 19  1  0
 19 20  2  0
 19 24  1  0
 20 21  1  0
 21 22  1  1
 21 23  1  0
 23 24  1  0
 24 25  2  0
M  END
>  <id>  (124) 
699

>  <scaffolds>  (124) 
[]

>  <name>  (124) 
(+)-(1S*,4R*,8S*,10R*)-1,4,8-Trihydroxycembra-2E,6E,11Z-trien-20,10-olide

>  <formula>  (124) 
C20H30O5

>  <SMILES>  (124) 
C[C@]1(O)C=CC[C@@](C)(O)C=C[C@@](O)(C(C)C)CCC2=C[C@H](C1)OC2=O

>  <ChEMBL_id>  (124) 


>  <ZINC_id>  (124) 


>  <PubChem_id>  (124) 


>  <DrugBank_id>  (124) 


>  <CAS_no>  (124) 
1346224-19-8

>  <references>  (124) 
[{'journal': {'name': 'Journal of Natural Products', 'id': 5}, 'title': 'Cembranolides from the Leaves of Croton gratissimus', 'year': 2011, 'start_page': 2349, 'volume': 74, 'issue': None, 'doi': '10.1021/np2002012', 'isbn': '', 'despositor': {'code': 'NFA', 'first_name': 'Ngonidzashe', 'last_name': 'Faya', 'id': 21}, 'refauthors_set': [{'author': {'first_name': 'Moses', 'initials': 'MK', 'last_name': 'Langat', 'id': 730}, 'first_author': True, 'id': 1048}, {'author': {'first_name': 'Neil', 'initials': 'NR', 'last_name': 'Crouch', 'id': 524}, 'first_author': None, 'id': 1142}, {'author': {'first_name': 'Peter', 'initials': 'PJ', 'last_name': 'Smith', 'id': 490}, 'first_author': None, 'id': 1143}, {'author': {'first_name': 'Dulcie', 'initials': 'DA', 'last_name': 'Mulholland', 'id': 525}, 'first_author': None, 'id': 1144}], 'id': 351}]

>  <classifications>  (124) 
[{'classification': 'Cembranolide', 'id': 758}, {'classification': 'Phenol lipids (Classyfire)', 'id': 951}]

>  <molecular_mass>  (124) 
350.45

>  <warheads>  (124) 
ab_unsat_carbonyl:1

>  <n_warheads>  (124) 
1

>  <max_tier>  (124) 
1

>  <pains_flag>  (124) 


>  <MW>  (124) 
350.5

>  <cLogP>  (124) 
2.41

>  <HBD>  (124) 
3

>  <HBA>  (124) 
5

>  <TPSA>  (124) 
87.0

>  <ArRings>  (124) 
0

$$$$
SANC00701_minRM1.pdb
     RDKit          3D

 22 23  0  0  1  0  0  0  0  0999 V2000
   -2.3680   -3.1110    1.1520 C   0  0  0  0  0  0  0  0  0  0  0  0
   -2.1310   -2.0760    0.0950 C   0  0  0  0  0  0  0  0  0  0  0  0
   -1.2510   -2.3210   -0.8760 C   0  0  0  0  0  0  0  0  0  0  0  0
   -0.8260   -1.3800   -1.9500 C   0  0  0  0  0  0  0  0  0  0  0  0
    0.6560   -1.2180   -1.8510 C   0  0  0  0  0  0  0  0  0  0  0  0
    1.3370   -0.1560   -2.2870 C   0  0  0  0  0  0  0  0  0  0  0  0
    0.7370    0.9300   -3.1020 C   0  0  0  0  0  0  0  0  0  0  0  0
    2.7790   -0.0050   -1.9190 C   0  0  0  0  0  0  0  0  0  0  0  0
    2.9560    0.0820   -0.3930 C   0  0  1  0  0  0  0  0  0  0  0  0
    1.7800    0.7480    0.2890 C   0  0  0  0  0  0  0  0  0  0  0  0
    1.1870   -0.1310    1.1030 C   0  0  0  0  0  0  0  0  0  0  0  0
   -0.0090   -0.0450    1.9620 C   0  0  0  0  0  0  0  0  0  0  0  0
   -0.8590    1.1940    1.6930 C   0  0  0  0  0  0  0  0  0  0  0  0
   -1.5540    1.1420    0.3290 C   0  0  2  0  0  0  0  0  0  0  0  0
   -1.9190    2.5570   -0.1790 C   0  0  0  0  0  0  0  0  0  0  0  0
   -2.7420    3.3320    0.8440 C   0  0  0  0  0  0  0  0  0  0  0  0
   -0.6920    3.3740   -0.5620 C   0  0  0  0  0  0  0  0  0  0  0  0
   -2.8260    0.3580    0.4050 C   0  0  0  0  0  0  0  0  0  0  0  0
   -3.0380   -0.9450    0.2380 C   0  0  0  0  0  0  0  0  0  0  0  0
    1.9670   -1.3950    1.0290 C   0  0  0  0  0  0  0  0  0  0  0  0
    1.8470   -2.4640    1.5810 O   0  0  0  0  0  0  0  0  0  0  0  0
    3.0150   -1.2320    0.1520 O   0  0  0  0  0  0  0  0  0  0  0  0
  1  2  1  0
  2  3  2  0
  2 19  1  0
  3  4  1  0
  4  5  1  0
  5  6  2  0
  6  7  1  0
  6  8  1  0
  9  8  1  6
  9 22  1  0
  9 10  1  0
 10 11  2  0
 11 20  1  0
 11 12  1  0
 12 13  1  0
 13 14  1  0
 14 15  1  1
 14 18  1  0
 15 17  1  0
 15 16  1  0
 18 19  2  0
 20 22  1  0
 20 21  2  0
M  END
>  <id>  (125) 
701

>  <scaffolds>  (125) 
[]

>  <name>  (125) 
(+)-(1R*,10R*)-Cembra-2E,4E,7E,11Z-tetraen-20,10-olide

>  <formula>  (125) 
C20H28O2

>  <SMILES>  (125) 
CC1=CCC=C(C)C[C@H]2C=C(CC[C@H](C(C)C)C=C1)C(=O)O2

>  <ChEMBL_id>  (125) 


>  <ZINC_id>  (125) 


>  <PubChem_id>  (125) 


>  <DrugBank_id>  (125) 


>  <CAS_no>  (125) 
1242413-72-4

>  <references>  (125) 
[{'journal': {'name': 'Journal of Natural Products', 'id': 5}, 'title': 'Cembranolides from the Leaves of Croton gratissimus', 'year': 2011, 'start_page': 2349, 'volume': 74, 'issue': None, 'doi': '10.1021/np2002012', 'isbn': '', 'despositor': {'code': 'NFA', 'first_name': 'Ngonidzashe', 'last_name': 'Faya', 'id': 21}, 'refauthors_set': [{'author': {'first_name': 'Moses', 'initials': 'MK', 'last_name': 'Langat', 'id': 730}, 'first_author': True, 'id': 1048}, {'author': {'first_name': 'Neil', 'initials': 'NR', 'last_name': 'Crouch', 'id': 524}, 'first_author': None, 'id': 1142}, {'author': {'first_name': 'Peter', 'initials': 'PJ', 'last_name': 'Smith', 'id': 490}, 'first_author': None, 'id': 1143}, {'author': {'first_name': 'Dulcie', 'initials': 'DA', 'last_name': 'Mulholland', 'id': 525}, 'first_author': None, 'id': 1144}], 'id': 351}]

>  <classifications>  (125) 
[{'classification': 'Cembranolide', 'id': 758}, {'classification': 'Phenol lipids (Classyfire)', 'id': 951}]

>  <molecular_mass>  (125) 
300.43

>  <warheads>  (125) 
ab_unsat_carbonyl:1

>  <n_warheads>  (125) 
1

>  <max_tier>  (125) 
1

>  <pains_flag>  (125) 


>  <MW>  (125) 
300.4

>  <cLogP>  (125) 
5.13

>  <HBD>  (125) 
0

>  <HBA>  (125) 
2

>  <TPSA>  (125) 
26.3

>  <ArRings>  (125) 
0

$$$$
SANC00702_minRM1.pdb
     RDKit          3D

 23 24  0  0  1  0  0  0  0  0999 V2000
    2.2990    1.4710   -1.2780 C   0  0  0  0  0  0  0  0  0  0  0  0
    1.9490    1.9220    0.0960 C   0  0  0  0  0  0  0  0  0  0  0  0
    0.8020    2.5380    0.3980 C   0  0  0  0  0  0  0  0  0  0  0  0
   -0.2430    2.8820   -0.6070 C   0  0  0  0  0  0  0  0  0  0  0  0
   -1.5940    3.2080    0.0370 C   0  0  0  0  0  0  0  0  0  0  0  0
   -2.6100    2.0500   -0.1040 C   0  0  2  0  0  0  0  0  0  0  0  0
   -3.1880    2.0140   -1.5240 C   0  0  0  0  0  0  0  0  0  0  0  0
   -3.6320    2.3700    0.8010 O   0  0  0  0  0  0  0  0  0  0  0  0
   -1.9710    0.7510    0.3180 C   0  0  0  0  0  0  0  0  0  0  0  0
   -2.1290   -0.4100   -0.3080 C   0  0  0  0  0  0  0  0  0  0  0  0
   -1.4610   -1.6730    0.1540 C   0  0  1  0  0  0  0  0  0  0  0  0
   -2.5020   -2.8120    0.1300 C   0  0  0  0  0  0  0  0  0  0  0  0
   -1.9000   -4.1430    0.5570 C   0  0  0  0  0  0  0  0  0  0  0  0
   -3.6640   -2.4660    1.0590 C   0  0  0  0  0  0  0  0  0  0  0  0
   -0.2820   -1.9360   -0.7970 C   0  0  0  0  0  0  0  0  0  0  0  0
    0.9350   -2.5560   -0.1070 C   0  0  0  0  0  0  0  0  0  0  0  0
    1.8810   -1.5330    0.3780 C   0  0  0  0  0  0  0  0  0  0  0  0
    1.7600   -0.5880    1.3170 C   0  0  0  0  0  0  0  0  0  0  0  0
    3.0770    0.1480    1.4480 C   0  0  2  0  0  0  0  0  0  0  0  0
    2.9640    1.6470    1.1560 C   0  0  0  0  0  0  0  0  0  0  0  0
    3.9460   -0.4510    0.4910 O   0  0  0  0  0  0  0  0  0  0  0  0
    3.2620   -1.4490   -0.1610 C   0  0  0  0  0  0  0  0  0  0  0  0
    3.8410   -2.0780   -1.0150 O   0  0  0  0  0  0  0  0  0  0  0  0
  1  2  1  0
  2  3  2  0
  2 20  1  0
  3  4  1  0
  4  5  1  0
  5  6  1  0
  6  7  1  6
  6  9  1  0
  6  8  1  0
  9 10  2  0
 10 11  1  0
 11 15  1  0
 11 12  1  6
 12 13  1  0
 12 14  1  0
 15 16  1  0
 16 17  1  0
 17 22  1  0
 17 18  2  0
 18 19  1  0
 19 21  1  0
 19 20  1  6
 21 22  1  0
 22 23  2  0
M  END
>  <id>  (126) 
702

>  <scaffolds>  (126) 
[]

>  <name>  (126) 
(+)-(1R*,4S*,10R*)-4-Hydroxycembra-2E,7E,11Z-trien-20,10-olide

>  <formula>  (126) 
C20H30O3

>  <SMILES>  (126) 
CC1=CCC[C@](C)(O)C=C[C@@H](C(C)C)CCC2=C[C@H](C1)OC2=O

>  <ChEMBL_id>  (126) 


>  <ZINC_id>  (126) 


>  <PubChem_id>  (126) 


>  <DrugBank_id>  (126) 


>  <CAS_no>  (126) 
1242413-73-5

>  <references>  (126) 
[{'journal': {'name': 'Journal of Natural Products', 'id': 5}, 'title': 'Cembranolides from the Leaves of Croton gratissimus', 'year': 2011, 'start_page': 2349, 'volume': 74, 'issue': None, 'doi': '10.1021/np2002012', 'isbn': '', 'despositor': {'code': 'NFA', 'first_name': 'Ngonidzashe', 'last_name': 'Faya', 'id': 21}, 'refauthors_set': [{'author': {'first_name': 'Moses', 'initials': 'MK', 'last_name': 'Langat', 'id': 730}, 'first_author': True, 'id': 1048}, {'author': {'first_name': 'Neil', 'initials': 'NR', 'last_name': 'Crouch', 'id': 524}, 'first_author': None, 'id': 1142}, {'author': {'first_name': 'Peter', 'initials': 'PJ', 'last_name': 'Smith', 'id': 490}, 'first_author': None, 'id': 1143}, {'author': {'first_name': 'Dulcie', 'initials': 'DA', 'last_name': 'Mulholland', 'id': 525}, 'first_author': None, 'id': 1144}], 'id': 351}]

>  <classifications>  (126) 
[{'classification': 'Cembranolide', 'id': 758}, {'classification': 'Phenol lipids (Classyfire)', 'id': 951}]

>  <molecular_mass>  (126) 
318.45

>  <warheads>  (126) 
ab_unsat_carbonyl:1

>  <n_warheads>  (126) 
1

>  <max_tier>  (126) 
1

>  <pains_flag>  (126) 


>  <MW>  (126) 
318.5

>  <cLogP>  (126) 
4.33

>  <HBD>  (126) 
1

>  <HBA>  (126) 
3

>  <TPSA>  (126) 
46.5

>  <ArRings>  (126) 
0

$$$$
SANC00706_minRM1.pdb
     RDKit          3D

 38 39  0  0  1  0  0  0  0  0999 V2000
   -5.4360    1.2530    2.2330 C   0  0  0  0  0  0  0  0  0  0  0  0
   -5.9360    0.8570    0.8940 C   0  0  0  0  0  0  0  0  0  0  0  0
   -5.2310    0.9350   -0.2400 C   0  0  0  0  0  0  0  0  0  0  0  0
   -3.8170    1.4530   -0.2950 C   0  0  2  0  0  0  0  0  0  0  0  0
   -3.7670    2.6970   -1.2160 C   0  0  0  0  0  0  0  0  0  0  0  0
   -4.7210    3.7570   -0.6790 C   0  0  0  0  0  0  0  0  0  0  0  0
   -2.3520    3.2570   -1.2690 C   0  0  0  0  0  0  0  0  0  0  0  0
   -2.9370    0.3760   -0.8020 N   0  0  0  0  0  0  0  0  0  0  0  0
   -3.1280   -0.0470   -2.1930 C   0  0  0  0  0  0  0  0  0  0  0  0
   -2.1400   -0.3580    0.0750 C   0  0  0  0  0  0  0  0  0  0  0  0
   -2.0470   -0.0190    1.2550 O   0  0  0  0  0  0  0  0  0  0  0  0
   -1.3300   -1.5560   -0.4530 C   0  0  1  0  0  0  0  0  0  0  0  0
    0.0410   -1.3980    0.0360 N   0  0  0  0  0  0  0  0  0  0  0  0
    1.1470   -1.6350   -0.7650 C   0  0  0  0  0  0  0  0  0  0  0  0
    1.0240   -2.0270   -1.9250 O   0  0  0  0  0  0  0  0  0  0  0  0
    2.5390   -1.4360   -0.1320 C   0  0  1  0  0  0  0  0  0  0  0  0
    3.4990   -2.4180   -0.6600 N   0  0  0  0  0  0  0  0  0  0  0  0
    3.1610   -3.8070   -0.3110 C   0  0  0  0  0  0  0  0  0  0  0  0
    3.0530    0.0090   -0.3920 C   0  0  0  0  0  0  0  0  0  0  0  0
    3.1270    0.3150   -1.8880 C   0  0  0  0  0  0  0  0  0  0  0  0
    2.0890    0.9950    0.2770 C   0  0  0  0  0  0  0  0  0  0  0  0
    4.4010    0.1940    0.2080 C   0  0  0  0  0  0  0  0  0  0  0  0
    5.0800   -0.6660    1.0480 C   0  0  0  0  0  0  0  0  0  0  0  0
    6.3040   -0.0840    1.4170 N   0  0  0  0  0  0  0  0  0  0  0  0
    7.3530   -0.7270    2.1900 C   0  0  0  0  0  0  0  0  0  0  0  0
    6.4220    1.1480    0.7690 C   0  0  0  0  0  0  0  0  0  0  0  0
    7.4620    2.0840    0.8010 C   0  0  0  0  0  0  0  0  0  0  0  0
    7.2890    3.2370    0.0680 C   0  0  0  0  0  0  0  0  0  0  0  0
    6.1210    3.4590   -0.6860 C   0  0  0  0  0  0  0  0  0  0  0  0
    5.1010    2.5330   -0.7170 C   0  0  0  0  0  0  0  0  0  0  0  0
    5.2340    1.3520    0.0160 C   0  0  0  0  0  0  0  0  0  0  0  0
   -1.9820   -2.8820    0.0310 C   0  0  0  0  0  0  0  0  0  0  0  0
   -3.4440   -2.9060   -0.4150 C   0  0  0  0  0  0  0  0  0  0  0  0
   -1.2410   -4.0470   -0.6280 C   0  0  0  0  0  0  0  0  0  0  0  0
   -1.9230   -3.0510    1.5450 C   0  0  0  0  0  0  0  0  0  0  0  0
   -7.3190    0.3490    0.8180 C   0  0  0  0  0  0  0  0  0  0  0  0
   -7.8370   -0.2530   -0.1120 O   0  0  0  0  0  0  0  0  0  0  0  0
   -8.0630    0.6070    1.9160 O   0  0  0  0  0  0  0  0  0  0  0  0
  1  2  1  0
  2  3  2  0
  2 36  1  0
  3  4  1  0
  4  5  1  6
  4  8  1  0
  5  7  1  0
  5  6  1  0
  8  9  1  0
  8 10  1  0
 10 12  1  0
 10 11  2  0
 12 32  1  0
 12 13  1  1
 13 14  1  0
 14 15  2  0
 14 16  1  0
 16 17  1  6
 16 19  1  0
 17 18  1  0
 19 20  1  0
 19 22  1  0
 19 21  1  0
 22 31  1  0
 22 23  2  0
 23 24  1  0
 24 26  1  0
 24 25  1  0
 26 31  1  0
 26 27  2  0
 27 28  1  0
 28 29  2  0
 29 30  1  0
 30 31  2  0
 32 34  1  0
 32 33  1  0
 32 35  1  0
 36 37  2  0
 36 38  1  0
M  END
>  <id>  (127) 
706

>  <scaffolds>  (127) 
['c1ccccc1', 'c1ccc2[nH]ccc2c1']

>  <name>  (127) 
Hemiasterlin

>  <formula>  (127) 
C30H46N4O4

>  <SMILES>  (127) 
C/C(=C\[C@H](C(C)C)N([CH3])C(=O)[C@@H](NC(=O)[C@@H](N[CH3])C(C)(C)c1cn([CH3])c2ccccc12)C(C)(C)C)C(=O)O

>  <ChEMBL_id>  (127) 


>  <ZINC_id>  (127) 


>  <PubChem_id>  (127) 


>  <DrugBank_id>  (127) 


>  <CAS_no>  (127) 
157207-90-4

>  <references>  (127) 
[{'journal': {'name': 'Tetrahedron Letters', 'id': 3}, 'title': 'Hemiasterlin and geodiamolide TA; two new cytotoxic peptides from the marine sponge Hemiasterella minor (Kirkpatrick)', 'year': 1994, 'start_page': 4453, 'volume': 35, 'issue': 25, 'doi': '10.1016/S0040-4039(00)73382-X', 'isbn': '', 'despositor': {'code': 'GU2', 'first_name': 'Gugu', 'last_name': 'Mahlangu', 'id': 24}, 'refauthors_set': [{'author': {'first_name': 'Ravit', 'initials': 'R', 'last_name': 'Talpir', 'id': 846}, 'first_author': True, 'id': 1392}, {'author': {'first_name': 'Yehuda', 'initials': 'Y', 'last_name': 'Benayahu', 'id': 535}, 'first_author': None, 'id': 1393}, {'author': {'first_name': 'Yoel', 'initials': 'Y', 'last_name': 'Kashman', 'id': 536}, 'first_author': None, 'id': 1394}, {'author': {'first_name': '', 'initials': 'L', 'last_name': 'Pannell', 'id': 847}, 'first_author': None, 'id': 1395}, {'author': {'first_name': 'Michael', 'initials': 'M', 'last_name': 'Schleyer', 'id': 452}, 'first_author': None, 'id': 1396}], 'id': 398}]

>  <classifications>  (127) 
[{'classification': 'Tripeptide', 'id': 853}, {'classification': 'Carboxylic acids and derivatives (Classyfire)', 'id': 950}]

>  <molecular_mass>  (127) 
526.71

>  <warheads>  (127) 
ab_unsat_carbonyl:1

>  <n_warheads>  (127) 
1

>  <max_tier>  (127) 
1

>  <pains_flag>  (127) 


>  <MW>  (127) 
526.7

>  <cLogP>  (127) 
4.09

>  <HBD>  (127) 
3

>  <HBA>  (127) 
4

>  <TPSA>  (127) 
103.7

>  <ArRings>  (127) 
2

$$$$
SANC00711_minRM1.pdb
     RDKit          3D

 39 42  0  0  1  0  0  0  0  0999 V2000
    1.8020   -2.1810    4.5660 C   0  0  0  0  0  0  0  0  0  0  0  0
    1.3140   -2.2390    3.1490 C   0  0  0  0  0  0  0  0  0  0  0  0
    2.0060   -1.8830    2.2170 O   0  0  0  0  0  0  0  0  0  0  0  0
   -0.0970   -2.7520    2.9760 C   0  0  0  0  0  0  0  0  0  0  0  0
   -0.4320   -2.9560    1.5350 C   0  0  0  0  0  0  0  0  0  0  0  0
   -0.1080   -4.0350    0.8140 C   0  0  0  0  0  0  0  0  0  0  0  0
   -0.5020   -4.1360   -0.5940 C   0  0  0  0  0  0  0  0  0  0  0  0
   -0.2760   -5.1570   -1.2250 O   0  0  0  0  0  0  0  0  0  0  0  0
   -1.1660   -2.9500   -1.1360 C   0  0  0  0  0  0  0  0  0  0  0  0
   -1.5060   -2.8270   -2.4940 C   0  0  0  0  0  0  0  0  0  0  0  0
   -1.1530   -3.8750   -3.4850 C   0  0  0  0  0  0  0  0  0  0  0  0
   -2.1970   -1.7110   -2.9370 C   0  0  0  0  0  0  0  0  0  0  0  0
   -2.5430   -0.6980   -2.0340 C   0  0  0  0  0  0  0  0  0  0  0  0
   -3.2480    0.3210   -2.5700 O   0  0  0  0  0  0  0  0  0  0  0  0
   -2.1420   -0.7340   -0.6960 C   0  0  0  0  0  0  0  0  0  0  0  0
   -2.4080    0.4150    0.2280 C   0  0  2  0  0  0  0  0  0  0  0  0
   -3.7590    0.7780    0.0130 O   0  0  0  0  0  0  0  0  0  0  0  0
   -4.2180    1.7840    0.8860 C   0  0  2  0  0  0  0  0  0  0  0  0
   -5.6950    1.9990    0.4830 C   0  0  0  0  0  0  0  0  0  0  0  0
   -6.3940    0.9160    1.0190 O   0  0  0  0  0  0  0  0  0  0  0  0
   -3.4090    3.0870    0.6580 C   0  0  1  0  0  0  0  0  0  0  0  0
   -3.7100    3.9920    1.6790 O   0  0  0  0  0  0  0  0  0  0  0  0
   -1.8960    2.7880    0.8230 C   0  0  2  0  0  0  0  0  0  0  0  0
   -1.1440    3.8840    0.4120 O   0  0  0  0  0  0  0  0  0  0  0  0
   -1.5410    1.6460   -0.1600 C   0  0  1  0  0  0  0  0  0  0  0  0
   -0.2050    1.2790    0.0710 O   0  0  0  0  0  0  0  0  0  0  0  0
    0.7610    1.8640   -0.6980 C   0  0  0  0  0  0  0  0  0  0  0  0
    0.4650    2.6140   -1.6100 O   0  0  0  0  0  0  0  0  0  0  0  0
    2.1100    1.4340   -0.3080 C   0  0  0  0  0  0  0  0  0  0  0  0
    3.1570    1.9960   -0.9250 C   0  0  0  0  0  0  0  0  0  0  0  0
    4.5450    1.6410   -0.6770 C   0  0  0  0  0  0  0  0  0  0  0  0
    4.9070    0.6700    0.2570 C   0  0  0  0  0  0  0  0  0  0  0  0
    6.2410    0.3260    0.4340 C   0  0  0  0  0  0  0  0  0  0  0  0
    7.2110    0.9720   -0.3330 C   0  0  0  0  0  0  0  0  0  0  0  0
    8.5380    0.7230   -0.1660 O   0  0  0  0  0  0  0  0  0  0  0  0
    6.8730    1.9650   -1.2540 C   0  0  0  0  0  0  0  0  0  0  0  0
    5.5380    2.2920   -1.4180 C   0  0  0  0  0  0  0  0  0  0  0  0
   -1.4650   -1.8870   -0.2770 C   0  0  0  0  0  0  0  0  0  0  0  0
   -1.1330   -1.8960    1.0480 O   0  0  0  0  0  0  0  0  0  0  0  0
  1  2  1  0
  2  3  2  0
  2  4  1  0
  4  5  1  0
  5  6  2  0
  5 39  1  0
  6  7  1  0
  7  8  2  0
  7  9  1  0
  9 10  2  0
  9 38  1  0
 10 11  1  0
 10 12  1  0
 12 13  2  0
 13 14  1  0
 13 15  1  0
 15 38  2  0
 16 15  1  6
 16 25  1  0
 16 17  1  0
 17 18  1  0
 18 19  1  6
 18 21  1  0
 19 20  1  0
 21 23  1  0
 21 22  1  1
 23 25  1  0
 23 24  1  6
 25 26  1  1
 26 27  1  0
 27 28  2  0
 27 29  1  0
 29 30  2  0
 30 31  1  0
 31 37  2  0
 31 32  1  0
 32 33  2  0
 33 34  1  0
 34 36  2  0
 34 35  1  0
 36 37  1  0
 38 39  1  0
M  END
>  <id>  (128) 
711

>  <scaffolds>  (128) 
['c1ccccc1', 'C1CCOCC1', 'O=C(C=Cc1ccccc1)OC1CCCOC1c1cccc2c(=O)ccoc12', 'O=c1ccoc2ccccc12', 'O=C(C=Cc1ccccc1)OCCc1ccccc1', 'O=c1ccoc2c(C3CCCCO3)cccc12']

>  <name>  (128) 
Aloeresin A

>  <formula>  (128) 
C28H28O11

>  <SMILES>  (128) 
CC(=O)Cc4cc(=O)c3c(C)cc(O)c([C@@H]1O[C@H](CO)[C@@H](O)[C@H](O)[C@H]1OC(=O)/C=C/c2ccc(O)cc2)c3o4

>  <ChEMBL_id>  (128) 


>  <ZINC_id>  (128) 


>  <PubChem_id>  (128) 
57370126

>  <DrugBank_id>  (128) 


>  <CAS_no>  (128) 
74545-79-2

>  <references>  (128) 
[{'journal': {'name': 'Phytochemistry Letters', 'id': 39}, 'title': 'Simultaneous quantification of anthrones and chromones in Aloe ferox ("Cape aloes") using UHPLC-MS', 'year': 2015, 'start_page': 85, 'volume': 13, 'issue': None, 'doi': '10.1016/j.phytol.2015.04.025', 'isbn': '', 'despositor': {'code': 'GU2', 'first_name': 'Gugu', 'last_name': 'Mahlangu', 'id': 24}, 'refauthors_set': [{'author': {'first_name': 'Sowesa', 'initials': 'SK', 'last_name': 'Kanama', 'id': 856}, 'first_author': True, 'id': 1414}, {'author': {'first_name': 'Alvaro', 'initials': 'AM', 'last_name': 'Viljoen', 'id': 655}, 'first_author': None, 'id': 1415}, {'author': {'first_name': 'Guy', 'initials': 'GPP', 'last_name': 'Kamatou', 'id': 857}, 'first_author': None, 'id': 1416}, {'author': {'first_name': 'Weiyang', 'initials': 'W', 'last_name': 'Chen', 'id': 858}, 'first_author': None, 'id': 1417}, {'author': {'first_name': 'Maxleene', 'initials': 'M', 'last_name': 'Sandasi', 'id': 859}, 'first_author': None, 'id': 1418}, {'author': {'first_name': 'Hamid-Reza', 'initials': 'H', 'last_name': 'Adhami', 'id': 860}, 'first_author': None, 'id': 1419}, {'author': {'first_name': 'Ben-Erik', 'initials': 'B', 'last_name': 'van Wyk', 'id': 635}, 'first_author': None, 'id': 1420}], 'id': 404}, {'journal': {'name': 'Phytochemical Analysis', 'id': 41}, 'title': 'A reversed-phase high-performance liquid chromatographic method for the determination of aloesin, aloeresin A, and anthraquinone in Aloe ferox', 'year': 2008, 'start_page': 122, 'volume': 19, 'issue': 2, 'doi': '10.1002/pca.1024', 'isbn': '', 'despositor': {'code': 'GU2', 'first_name': 'Gugu', 'last_name': 'Mahlangu', 'id': 24}, 'refauthors_set': [{'author': {'first_name': 'Michael', 'initials': 'M', 'last_name': 'Zahn', 'id': 868}, 'first_author': True, 'id': 1428}, {'author': {'first_name': 'Thao', 'initials': 'T', 'last_name': 'Trinh', 'id': 869}, 'first_author': None, 'id': 1429}, {'author': {'first_name': 'Mijeong Lee', 'initials': 'ML', 'last_name': 'Jeong', 'id': 870}, 'first_author': None, 'id': 1430}, {'author': {'first_name': 'Desheng', 'initials': 'D', 'last_name': 'Wang', 'id': 871}, 'first_author': None, 'id': 1431}, {'author': {'first_name': 'Padmapriya', 'initials': 'P', 'last_name': 'Abeysinghe', 'id': 872}, 'first_author': None, 'id': 1432}, {'author': {'first_name': 'Qi', 'initials': 'Q', 'last_name': 'Jia', 'id': 873}, 'first_author': None, 'id': 1433}, {'author': {'first_name': 'Wenwen', 'initials': 'W', 'last_name': 'Ma', 'id': 874}, 'first_author': None, 'id': 1434}], 'id': 406}]

>  <classifications>  (128) 
[{'classification': 'Chromone', 'id': 858}, {'classification': 'Organooxygen compounds (Classyfire)', 'id': 954}]

>  <molecular_mass>  (128) 
540.51

>  <warheads>  (128) 
ab_unsat_carbonyl:1

>  <n_warheads>  (128) 
1

>  <max_tier>  (128) 
1

>  <pains_flag>  (128) 


>  <MW>  (128) 
540.5

>  <cLogP>  (128) 
1.42

>  <HBD>  (128) 
5

>  <HBA>  (128) 
11

>  <TPSA>  (128) 
184.0

>  <ArRings>  (128) 
3

$$$$
SANC00716_minRM1.pdb
     RDKit          3D

 25 25  0  0  0  0  0  0  0  0999 V2000
   -1.6230    3.6470    0.2900 C   0  0  0  0  0  0  0  0  0  0  0  0
   -1.1230    2.3040    0.6820 C   0  0  0  0  0  0  0  0  0  0  0  0
   -1.9020    1.3640    1.2200 C   0  0  0  0  0  0  0  0  0  0  0  0
   -3.3480    1.5380    1.5400 C   0  0  0  0  0  0  0  0  0  0  0  0
   -4.1130    0.4390    0.8790 C   0  0  0  0  0  0  0  0  0  0  0  0
   -4.4840   -0.6680    1.5230 C   0  0  0  0  0  0  0  0  0  0  0  0
   -5.2170   -1.7460    0.8300 C   0  0  0  0  0  0  0  0  0  0  0  0
   -5.7970   -2.6200    1.4490 O   0  0  0  0  0  0  0  0  0  0  0  0
   -5.2020   -1.7120   -0.6540 C   0  0  0  0  0  0  0  0  0  0  0  0
   -5.6260   -2.9510   -1.3480 C   0  0  0  0  0  0  0  0  0  0  0  0
   -4.8330   -0.6030   -1.2980 C   0  0  0  0  0  0  0  0  0  0  0  0
   -4.4380    0.6130   -0.5580 C   0  0  0  0  0  0  0  0  0  0  0  0
   -4.3960    1.6990   -1.1090 O   0  0  0  0  0  0  0  0  0  0  0  0
    0.3290    2.0420    0.4360 C   0  0  0  0  0  0  0  0  0  0  0  0
    0.5720    1.8010   -1.0560 C   0  0  0  0  0  0  0  0  0  0  0  0
    2.0270    1.5730   -1.2800 C   0  0  0  0  0  0  0  0  0  0  0  0
    2.5940    0.3660   -1.3010 C   0  0  0  0  0  0  0  0  0  0  0  0
    1.8310   -0.8960   -1.1090 C   0  0  0  0  0  0  0  0  0  0  0  0
    4.0630    0.2050   -1.5180 C   0  0  0  0  0  0  0  0  0  0  0  0
    4.7830   -0.1380   -0.2320 C   0  0  0  0  0  0  0  0  0  0  0  0
    4.2160   -0.1780    0.8410 O   0  0  0  0  0  0  0  0  0  0  0  0
    6.2650   -0.3800   -0.3850 C   0  0  0  0  0  0  0  0  0  0  0  0
    6.9080   -0.9710    0.8710 C   0  0  0  0  0  0  0  0  0  0  0  0
    6.4190   -2.3960    1.1000 C   0  0  0  0  0  0  0  0  0  0  0  0
    8.4260   -0.9650    0.7170 C   0  0  0  0  0  0  0  0  0  0  0  0
  1  2  1  0
  2 14  1  0
  2  3  2  0
  3  4  1  0
  4  5  1  0
  5 12  1  0
  5  6  2  0
  6  7  1  0
  7  9  1  0
  7  8  2  0
  9 10  1  0
  9 11  2  0
 11 12  1  0
 12 13  2  0
 14 15  1  0
 15 16  1  0
 16 17  2  0
 17 19  1  0
 17 18  1  0
 19 20  1  0
 20 22  1  0
 20 21  2  0
 22 23  1  0
 23 25  1  0
 23 24  1  0
M  END
>  <id>  (129) 
716

>  <scaffolds>  (129) 
[]

>  <name>  (129) 
2,5-Cyclohexadiene-1,4-dione, 2-methyl-5-[(2E,6E)-3,7,11-trimethyl-9-oxo-2,6-dodecadien-1-yl]-

>  <formula>  (129) 
C22H30O3

>  <SMILES>  (129) 
C/C(=C\Cc1cc(=O)c(C)cc1=O)CC/C=C(C)/CC(=O)CC(C)C

>  <ChEMBL_id>  (129) 


>  <ZINC_id>  (129) 


>  <PubChem_id>  (129) 


>  <DrugBank_id>  (129) 


>  <CAS_no>  (129) 
369368-10-5

>  <references>  (129) 
[{'journal': {'name': 'South African Journal of Science', 'id': 6}, 'title': 'Ten years of marine natural products research at Rhodes University', 'year': 2004, 'start_page': 539, 'volume': 100, 'issue': 11, 'doi': None, 'isbn': None, 'despositor': {'code': 'TMM', 'first_name': 'Thommas', 'last_name': 'Musyoka', 'id': 22}, 'refauthors_set': [{'author': {'first_name': 'Michael', 'initials': 'MT', 'last_name': 'Davies-Coleman', 'id': 449}, 'first_author': True, 'id': 1049}, {'author': {'first_name': 'Denzil', 'initials': 'DR', 'last_name': 'Beukes', 'id': 453}, 'first_author': None, 'id': 1050}], 'id': 236}, {'journal': {'name': 'Journal of Natural Products', 'id': 5}, 'title': 'Sequestered Chemistry of the Arminacean Nudibranch Leminda millecra in Algoa Bay, South Africa', 'year': 2001, 'start_page': 1183, 'volume': 64, 'issue': 9, 'doi': '10.1021/np010085x', 'isbn': '', 'despositor': {'code': 'TMM', 'first_name': 'Thommas', 'last_name': 'Musyoka', 'id': 22}, 'refauthors_set': [{'author': {'first_name': 'Kerry', 'initials': 'KL', 'last_name': 'McPhail', 'id': 483}, 'first_author': True, 'id': 639}, {'author': {'first_name': 'Michael', 'initials': 'MT', 'last_name': 'Davies-Coleman', 'id': 449}, 'first_author': False, 'id': 701}, {'author': {'first_name': '', 'initials': 'JA', 'last_name': 'Starmer', 'id': 530}, 'first_author': False, 'id': 702}], 'id': 246}]

>  <classifications>  (129) 
[{'classification': 'Hydroquinone', 'id': 784}, {'classification': 'Triprenyltoluquinone', 'id': 861}, {'classification': 'Phenol lipids (Classyfire)', 'id': 951}]

>  <molecular_mass>  (129) 
342.47

>  <warheads>  (129) 
ab_unsat_carbonyl:4;para_quinone:1

>  <n_warheads>  (129) 
5

>  <max_tier>  (129) 
2

>  <pains_flag>  (129) 
quinone_A(370)

>  <MW>  (129) 
342.5

>  <cLogP>  (129) 
5.08

>  <HBD>  (129) 
0

>  <HBA>  (129) 
3

>  <TPSA>  (129) 
51.2

>  <ArRings>  (129) 
0

$$$$
SANC00720_minRM1.pdb
     RDKit          3D

 24 26  0  0  1  0  0  0  0  0999 V2000
    2.2100    2.9570   -2.1560 C   0  0  0  0  0  0  0  0  0  0  0  0
    1.8740    2.4820   -0.9640 C   0  0  0  0  0  0  0  0  0  0  0  0
    2.7940    1.7590   -0.0190 C   0  0  0  0  0  0  0  0  0  0  0  0
    4.2530    1.8220   -0.4690 C   0  0  0  0  0  0  0  0  0  0  0  0
    2.7010    2.4210    1.3630 C   0  0  0  0  0  0  0  0  0  0  0  0
    2.2890    0.3540    0.0930 C   0  0  0  0  0  0  0  0  0  0  0  0
    3.0630   -0.7700   -0.2060 N   0  0  0  0  0  0  0  0  0  0  0  0
    2.2900   -1.9130    0.0100 C   0  0  0  0  0  0  0  0  0  0  0  0
    2.6290   -3.2630   -0.1400 C   0  0  0  0  0  0  0  0  0  0  0  0
    1.6580   -4.1860    0.1760 C   0  0  0  0  0  0  0  0  0  0  0  0
    0.3870   -3.7920    0.6400 C   0  0  0  0  0  0  0  0  0  0  0  0
    0.0540   -2.4620    0.7830 C   0  0  0  0  0  0  0  0  0  0  0  0
    1.0080   -1.4980    0.4490 C   0  0  0  0  0  0  0  0  0  0  0  0
    1.0230   -0.0640    0.4840 C   0  0  0  0  0  0  0  0  0  0  0  0
   -0.0680    0.7750    0.9000 C   0  0  0  0  0  0  0  0  0  0  0  0
   -1.3110    0.6790    0.3880 C   0  0  0  0  0  0  0  0  0  0  0  0
   -1.6420   -0.2060   -0.6550 N   0  0  0  0  0  0  0  0  0  0  0  0
   -2.9540   -0.5370   -0.9600 C   0  0  0  0  0  0  0  0  0  0  0  0
   -3.1750   -1.3010   -1.8930 O   0  0  0  0  0  0  0  0  0  0  0  0
   -4.0740    0.0120   -0.0800 C   0  0  2  0  0  0  0  0  0  0  0  0
   -5.3210    0.2480   -0.9380 C   0  0  0  0  0  0  0  0  0  0  0  0
   -3.6930    1.2480    0.5970 N   0  0  0  0  0  0  0  0  0  0  0  0
   -2.3810    1.5840    0.8780 C   0  0  0  0  0  0  0  0  0  0  0  0
   -2.1430    2.6160    1.5040 O   0  0  0  0  0  0  0  0  0  0  0  0
  1  2  2  0
  3  2  1  0
  3  4  1  0
  3  6  1  0
  3  5  1  0
  6  7  1  0
  6 14  2  0
  7  8  1  0
  8  9  2  0
  8 13  1  0
  9 10  1  0
 10 11  2  0
 11 12  1  0
 12 13  2  0
 13 14  1  0
 14 15  1  0
 15 16  2  0
 16 17  1  0
 16 23  1  0
 17 18  1  0
 18 19  2  0
 18 20  1  0
 20 21  1  6
 20 22  1  0
 22 23  1  0
 23 24  2  0
M  END
>  <id>  (130) 
720

>  <scaffolds>  (130) 
['c1ccccc1', 'c1ccc2[nH]ccc2c1']

>  <name>  (130) 
Neoechinuline A

>  <formula>  (130) 
C19H21N3O2

>  <SMILES>  (130) 
C=CC(C)(C)c2[nH]c1ccccc1c2/C=C/3NC(=O)[C@H](C)NC3=O

>  <ChEMBL_id>  (130) 


>  <ZINC_id>  (130) 


>  <PubChem_id>  (130) 


>  <DrugBank_id>  (130) 


>  <CAS_no>  (130) 
51551-29-2

>  <references>  (130) 
[{'journal': {'name': 'Thesis, Rhodes University', 'id': 2}, 'title': 'Marine biotechnology: Evaluation and development of methods for the discovery of natural products from fungi', 'year': 2004, 'start_page': None, 'volume': None, 'issue': None, 'doi': '', 'isbn': '', 'despositor': {'code': 'GU2', 'first_name': 'Gugu', 'last_name': 'Mahlangu', 'id': 24}, 'refauthors_set': [{'author': {'first_name': 'Simisha', 'initials': 'S', 'last_name': 'Pather', 'id': 879}, 'first_author': True, 'id': 1441}], 'id': 410}]

>  <classifications>  (130) 
[{'classification': 'Diketopiperazine indole alkaloid', 'id': 863}, {'classification': 'Carboxylic acids and derivatives (Classyfire)', 'id': 950}]

>  <molecular_mass>  (130) 
323.39

>  <warheads>  (130) 
ab_unsat_carbonyl:1

>  <n_warheads>  (130) 
1

>  <max_tier>  (130) 
1

>  <pains_flag>  (130) 


>  <MW>  (130) 
323.4

>  <cLogP>  (130) 
2.61

>  <HBD>  (130) 
3

>  <HBA>  (130) 
2

>  <TPSA>  (130) 
74.0

>  <ArRings>  (130) 
2

$$$$
SANC00724_minRM1.pdb
     RDKit          3D

 25 25  0  0  0  0  0  0  0  0999 V2000
    0.1140    2.4480    0.8840 C   0  0  0  0  0  0  0  0  0  0  0  0
   -0.4860    1.3150    1.6360 C   0  0  0  0  0  0  0  0  0  0  0  0
   -1.8020    1.1140    1.7300 C   0  0  0  0  0  0  0  0  0  0  0  0
   -2.8420    2.0010    1.1340 C   0  0  0  0  0  0  0  0  0  0  0  0
   -3.7130    1.1710    0.2480 C   0  0  0  0  0  0  0  0  0  0  0  0
   -4.8280    0.5870    0.6900 C   0  0  0  0  0  0  0  0  0  0  0  0
   -5.6570   -0.2520   -0.1970 C   0  0  0  0  0  0  0  0  0  0  0  0
   -6.7950   -0.5650    0.1040 O   0  0  0  0  0  0  0  0  0  0  0  0
   -5.0320   -0.6960   -1.4680 C   0  0  0  0  0  0  0  0  0  0  0  0
   -5.7190   -1.7890   -2.1960 C   0  0  0  0  0  0  0  0  0  0  0  0
   -3.9170   -0.1130   -1.9100 C   0  0  0  0  0  0  0  0  0  0  0  0
   -3.2820    0.9910   -1.1600 C   0  0  0  0  0  0  0  0  0  0  0  0
   -2.4570    1.7150   -1.6870 O   0  0  0  0  0  0  0  0  0  0  0  0
    0.4770    0.3840    2.3040 C   0  0  0  0  0  0  0  0  0  0  0  0
    1.1330   -0.5210    1.2620 C   0  0  0  0  0  0  0  0  0  0  0  0
    2.0980   -1.4960    1.9380 C   0  0  0  0  0  0  0  0  0  0  0  0
    2.7610   -2.3460    0.9050 C   0  0  0  0  0  0  0  0  0  0  0  0
    2.1830   -3.7130    0.7640 C   0  0  0  0  0  0  0  0  0  0  0  0
    3.7770   -1.9610    0.1240 C   0  0  0  0  0  0  0  0  0  0  0  0
    4.4350   -0.6460    0.1480 C   0  0  0  0  0  0  0  0  0  0  0  0
    4.2050    0.2080    0.9870 O   0  0  0  0  0  0  0  0  0  0  0  0
    5.4630   -0.4370   -0.9380 C   0  0  0  0  0  0  0  0  0  0  0  0
    5.8890    1.0250   -1.0900 C   0  0  0  0  0  0  0  0  0  0  0  0
    7.0880    1.1120   -2.0300 C   0  0  0  0  0  0  0  0  0  0  0  0
    4.7360    1.8530   -1.6440 C   0  0  0  0  0  0  0  0  0  0  0  0
  1  2  1  0
  2  3  2  0
  2 14  1  0
  3  4  1  0
  4  5  1  0
  5 12  1  0
  5  6  2  0
  6  7  1  0
  7  9  1  0
  7  8  2  0
  9 10  1  0
  9 11  2  0
 11 12  1  0
 12 13  2  0
 14 15  1  0
 15 16  1  0
 16 17  1  0
 17 19  2  0
 17 18  1  0
 19 20  1  0
 20 22  1  0
 20 21  2  0
 22 23  1  0
 23 24  1  0
 23 25  1  0
M  END
>  <id>  (131) 
724

>  <scaffolds>  (131) 
[]

>  <name>  (131) 
2,5-Cyclohexadiene-1,4-dione, 2-methyl-5-[(2E,7Z)-3,7,11-trimethyl-9-oxo-2,7-dodecadien-1-yl]-

>  <formula>  (131) 
C22H30O3

>  <SMILES>  (131) 
C/C(=C\Cc1cc(=O)c(C)cc1=O)CCC/C(C)=C\C(=O)CC(C)C

>  <ChEMBL_id>  (131) 


>  <ZINC_id>  (131) 


>  <PubChem_id>  (131) 


>  <DrugBank_id>  (131) 


>  <CAS_no>  (131) 
369368-13-8

>  <references>  (131) 
[{'journal': {'name': 'Journal of Natural Products', 'id': 5}, 'title': 'Sequestered Chemistry of the Arminacean Nudibranch Leminda millecra in Algoa Bay, South Africa', 'year': 2001, 'start_page': 1183, 'volume': 64, 'issue': 9, 'doi': '10.1021/np010085x', 'isbn': '', 'despositor': {'code': 'TMM', 'first_name': 'Thommas', 'last_name': 'Musyoka', 'id': 22}, 'refauthors_set': [{'author': {'first_name': 'Kerry', 'initials': 'KL', 'last_name': 'McPhail', 'id': 483}, 'first_author': True, 'id': 639}, {'author': {'first_name': 'Michael', 'initials': 'MT', 'last_name': 'Davies-Coleman', 'id': 449}, 'first_author': False, 'id': 701}, {'author': {'first_name': '', 'initials': 'JA', 'last_name': 'Starmer', 'id': 530}, 'first_author': False, 'id': 702}], 'id': 246}]

>  <classifications>  (131) 
[{'classification': 'Hydroquinone', 'id': 784}, {'classification': 'Triprenyltoluquinone', 'id': 861}, {'classification': 'Phenol lipids (Classyfire)', 'id': 951}]

>  <molecular_mass>  (131) 
342.47

>  <warheads>  (131) 
ab_unsat_carbonyl:5;para_quinone:1

>  <n_warheads>  (131) 
6

>  <max_tier>  (131) 
2

>  <pains_flag>  (131) 
quinone_A(370)

>  <MW>  (131) 
342.5

>  <cLogP>  (131) 
5.08

>  <HBD>  (131) 
0

>  <HBA>  (131) 
3

>  <TPSA>  (131) 
51.2

>  <ArRings>  (131) 
0

$$$$
SANC00736_minRM1.pdb
     RDKit          3D

 28 29  0  0  1  0  0  0  0  0999 V2000
    4.5660   -2.2730   -0.2180 C   0  0  0  0  0  0  0  0  0  0  0  0
    4.2260   -1.0310    0.5250 C   0  0  0  0  0  0  0  0  0  0  0  0
    5.1060   -0.0400    0.6940 C   0  0  0  0  0  0  0  0  0  0  0  0
    6.4950   -0.1030    0.1620 C   0  0  0  0  0  0  0  0  0  0  0  0
    7.2680    1.1850    0.4560 C   0  0  0  0  0  0  0  0  0  0  0  0
    8.6330    1.1010   -0.0940 C   0  0  0  0  0  0  0  0  0  0  0  0
    9.2370    2.0250   -1.0170 C   0  0  0  0  0  0  0  0  0  0  0  0
   10.5060    1.5590   -1.2440 C   0  0  0  0  0  0  0  0  0  0  0  0
   10.7320    0.4120   -0.5290 O   0  0  0  0  0  0  0  0  0  0  0  0
    9.5820    0.1450    0.1680 C   0  0  0  0  0  0  0  0  0  0  0  0
    2.8360   -0.9390    1.0640 C   0  0  0  0  0  0  0  0  0  0  0  0
    1.8600   -0.6370   -0.0760 C   0  0  0  0  0  0  0  0  0  0  0  0
    0.4720   -0.5770    0.4640 C   0  0  0  0  0  0  0  0  0  0  0  0
   -0.3770   -1.6060    0.4630 C   0  0  0  0  0  0  0  0  0  0  0  0
   -0.0270   -2.9390   -0.0960 C   0  0  0  0  0  0  0  0  0  0  0  0
   -1.7610   -1.4670    1.0130 C   0  0  0  0  0  0  0  0  0  0  0  0
   -2.7690   -1.4310   -0.1370 C   0  0  0  0  0  0  0  0  0  0  0  0
   -4.1920   -1.3320    0.4030 C   0  0  0  0  0  0  0  0  0  0  0  0
   -5.2130   -1.1080   -0.7200 C   0  0  1  0  0  0  0  0  0  0  0  0
   -5.2640   -2.2920   -1.6820 C   0  0  0  0  0  0  0  0  0  0  0  0
   -6.5590   -0.9510   -0.0900 C   0  0  0  0  0  0  0  0  0  0  0  0
   -7.2110    0.2080    0.0090 C   0  0  0  0  0  0  0  0  0  0  0  0
   -8.5280    0.4880    0.6030 C   0  0  0  0  0  0  0  0  0  0  0  0
   -8.7740    1.8020    0.4610 C   0  0  0  0  0  0  0  0  0  0  0  0
   -9.9290    2.6090    0.8660 C   0  0  0  0  0  0  0  0  0  0  0  0
   -7.6030    2.3950   -0.2320 C   0  0  0  0  0  0  0  0  0  0  0  0
   -7.3280    3.5140   -0.5900 O   0  0  0  0  0  0  0  0  0  0  0  0
   -6.6800    1.3900   -0.4840 O   0  0  0  0  0  0  0  0  0  0  0  0
  1  2  1  0
  2  3  2  0
  2 11  1  0
  3  4  1  0
  4  5  1  0
  5  6  1  0
  6  7  1  0
  6 10  2  0
  7  8  2  0
  8  9  1  0
  9 10  1  0
 11 12  1  0
 12 13  1  0
 13 14  2  0
 14 15  1  0
 14 16  1  0
 16 17  1  0
 17 18  1  0
 18 19  1  0
 19 20  1  6
 19 21  1  0
 21 22  2  0
 22 28  1  0
 22 23  1  0
 23 24  2  0
 24 26  1  0
 24 25  1  0
 26 27  2  0
 26 28  1  0
M  END
>  <id>  (132) 
736

>  <scaffolds>  (132) 
['c1ccoc1']

>  <name>  (132) 
22-Deoxyvariabilin

>  <formula>  (132) 
C25H34O3

>  <SMILES>  (132) 
CC(=CCCc1ccoc1)CCC=C(C)CCCC(C)C=c2cc(C)c(=O)o2

>  <ChEMBL_id>  (132) 


>  <ZINC_id>  (132) 


>  <PubChem_id>  (132) 


>  <DrugBank_id>  (132) 


>  <CAS_no>  (132) 
133084-62-5

>  <references>  (132) 
[{'journal': {'name': 'Journal of Natural Products', 'id': 5}, 'title': 'A New Furanosesterterpene from the South African Nudibranch Hypselodoris capensis and a Dictyoceratida Sponge', 'year': 1998, 'start_page': 961, 'volume': 61, 'issue': 7, 'doi': '10.1021/np980051y', 'isbn': '', 'despositor': {'code': 'TMM', 'first_name': 'Thommas', 'last_name': 'Musyoka', 'id': 22}, 'refauthors_set': [{'author': {'first_name': 'Kerry', 'initials': 'KL', 'last_name': 'McPhail', 'id': 483}, 'first_author': True, 'id': 637}, {'author': {'first_name': 'Michael', 'initials': 'MT', 'last_name': 'Davies-Coleman', 'id': 449}, 'first_author': False, 'id': 695}, {'author': {'first_name': 'Philip', 'initials': 'PS', 'last_name': 'Coetzee', 'id': 451}, 'first_author': False, 'id': 696}], 'id': 243}]

>  <classifications>  (132) 
[{'classification': 'Sesterterpene', 'id': 869}, {'classification': 'Phenol lipids (Classyfire)', 'id': 951}]

>  <molecular_mass>  (132) 
382.53

>  <warheads>  (132) 
ab_unsat_carbonyl:1

>  <n_warheads>  (132) 
1

>  <max_tier>  (132) 
1

>  <pains_flag>  (132) 


>  <MW>  (132) 
382.5

>  <cLogP>  (132) 
7.08

>  <HBD>  (132) 
0

>  <HBA>  (132) 
3

>  <TPSA>  (132) 
39.4

>  <ArRings>  (132) 
1

$$$$
SANC00737_minRM1.pdb
     RDKit          3D

 29 30  0  0  1  0  0  0  0  0999 V2000
    4.3150    1.9130    1.6500 C   0  0  0  0  0  0  0  0  0  0  0  0
    4.1160    1.6820    0.1950 C   0  0  0  0  0  0  0  0  0  0  0  0
    5.0150    1.0310   -0.5490 C   0  0  0  0  0  0  0  0  0  0  0  0
    6.2840    0.4930    0.0140 C   0  0  0  0  0  0  0  0  0  0  0  0
    7.0560   -0.3240   -1.0240 C   0  0  0  0  0  0  0  0  0  0  0  0
    8.2980   -0.8530   -0.4300 C   0  0  0  0  0  0  0  0  0  0  0  0
    9.3950   -0.0670    0.0670 C   0  0  0  0  0  0  0  0  0  0  0  0
   10.3280   -0.9650    0.5200 C   0  0  0  0  0  0  0  0  0  0  0  0
    9.8870   -2.2500    0.3390 O   0  0  0  0  0  0  0  0  0  0  0  0
    8.6470   -2.1660   -0.2410 C   0  0  0  0  0  0  0  0  0  0  0  0
    2.8510    2.2150   -0.3940 C   0  0  0  0  0  0  0  0  0  0  0  0
    1.6380    1.4340    0.1160 C   0  0  0  0  0  0  0  0  0  0  0  0
    1.6690    0.0140   -0.3300 C   0  0  0  0  0  0  0  0  0  0  0  0
    0.6450   -0.8300   -0.1880 C   0  0  0  0  0  0  0  0  0  0  0  0
    0.7480   -2.2490   -0.6270 C   0  0  0  0  0  0  0  0  0  0  0  0
   -0.6680   -0.4490    0.4150 C   0  0  0  0  0  0  0  0  0  0  0  0
   -1.6260    0.0270   -0.6790 C   0  0  0  0  0  0  0  0  0  0  0  0
   -2.9720    0.4170   -0.0750 C   0  0  0  0  0  0  0  0  0  0  0  0
   -3.8960    1.0610   -1.1180 C   0  0  1  0  0  0  0  0  0  0  0  0
   -4.1980    0.1210   -2.2780 C   0  0  0  0  0  0  0  0  0  0  0  0
   -5.1500    1.4980   -0.4320 C   0  0  0  0  0  0  0  0  0  0  0  0
   -6.1060    0.6520   -0.0460 C   0  0  0  0  0  0  0  0  0  0  0  0
   -6.2510   -0.8060   -0.1570 C   0  0  0  0  0  0  0  0  0  0  0  0
   -7.4180   -1.1480    0.4160 C   0  0  0  0  0  0  0  0  0  0  0  0
   -8.0410   -2.4810    0.5960 C   0  0  0  0  0  0  0  0  0  0  0  0
   -7.4700   -3.4260   -0.2540 O   0  0  0  0  0  0  0  0  0  0  0  0
   -8.0520    0.0940    0.9110 C   0  0  0  0  0  0  0  0  0  0  0  0
   -9.0880    0.3220    1.4860 O   0  0  0  0  0  0  0  0  0  0  0  0
   -7.2250    1.1620    0.6050 O   0  0  0  0  0  0  0  0  0  0  0  0
  1  2  1  0
  2  3  2  0
  2 11  1  0
  3  4  1  0
  4  5  1  0
  5  6  1  0
  6 10  2  0
  6  7  1  0
  7  8  2  0
  8  9  1  0
  9 10  1  0
 11 12  1  0
 12 13  1  0
 13 14  2  0
 14 15  1  0
 14 16  1  0
 16 17  1  0
 17 18  1  0
 18 19  1  0
 19 20  1  6
 19 21  1  0
 21 22  2  0
 22 23  1  0
 22 29  1  0
 23 24  2  0
 24 25  1  0
 24 27  1  0
 25 26  1  0
 27 29  1  0
 27 28  2  0
M  END
>  <id>  (133) 
737

>  <scaffolds>  (133) 
['c1ccoc1']

>  <name>  (133) 
22-Deoxy-23-hydroxymethylvariabilin

>  <formula>  (133) 
C25H34O4

>  <SMILES>  (133) 
CC(=CCCc1ccoc1)CCC=C(C)CCCC(C)C=c2cc(CO)c(=O)o2

>  <ChEMBL_id>  (133) 


>  <ZINC_id>  (133) 


>  <PubChem_id>  (133) 


>  <DrugBank_id>  (133) 


>  <CAS_no>  (133) 
211946-79-1

>  <references>  (133) 
[{'journal': {'name': 'Journal of Natural Products', 'id': 5}, 'title': 'A New Furanosesterterpene from the South African Nudibranch Hypselodoris capensis and a Dictyoceratida Sponge', 'year': 1998, 'start_page': 961, 'volume': 61, 'issue': 7, 'doi': '10.1021/np980051y', 'isbn': '', 'despositor': {'code': 'TMM', 'first_name': 'Thommas', 'last_name': 'Musyoka', 'id': 22}, 'refauthors_set': [{'author': {'first_name': 'Kerry', 'initials': 'KL', 'last_name': 'McPhail', 'id': 483}, 'first_author': True, 'id': 637}, {'author': {'first_name': 'Michael', 'initials': 'MT', 'last_name': 'Davies-Coleman', 'id': 449}, 'first_author': False, 'id': 695}, {'author': {'first_name': 'Philip', 'initials': 'PS', 'last_name': 'Coetzee', 'id': 451}, 'first_author': False, 'id': 696}], 'id': 243}]

>  <classifications>  (133) 
[{'classification': 'Sesterterpene', 'id': 869}, {'classification': 'Phenol lipids (Classyfire)', 'id': 951}]

>  <molecular_mass>  (133) 
398.53

>  <warheads>  (133) 
ab_unsat_carbonyl:1

>  <n_warheads>  (133) 
1

>  <max_tier>  (133) 
1

>  <pains_flag>  (133) 


>  <MW>  (133) 
398.5

>  <cLogP>  (133) 
6.05

>  <HBD>  (133) 
1

>  <HBA>  (133) 
4

>  <TPSA>  (133) 
59.7

>  <ArRings>  (133) 
1

$$$$
SANC00771_minRM1.pdb
     RDKit          3D

 24 26  0  0  1  0  0  0  0  0999 V2000
   -2.1010    3.7510    1.2250 C   0  0  0  0  0  0  0  0  0  0  0  0
   -1.4090    3.0680    0.1060 C   0  0  0  0  0  0  0  0  0  0  0  0
   -1.1500    1.7560    0.0610 C   0  0  0  0  0  0  0  0  0  0  0  0
   -1.5410    0.7750    1.1110 C   0  0  0  0  0  0  0  0  0  0  0  0
   -2.7630   -0.0900    0.7780 C   0  0  1  0  0  0  0  0  0  0  0  0
   -3.9520    0.7820    0.3990 C   0  0  0  0  0  0  0  0  0  0  0  0
   -2.4920   -1.1470   -0.3150 C   0  0  1  0  0  0  0  0  0  0  0  0
   -3.6880   -2.0990   -0.4570 C   0  0  0  0  0  0  0  0  0  0  0  0
   -2.1580   -0.5910   -1.5430 O   0  0  0  0  0  0  0  0  0  0  0  0
   -1.2690   -1.9810    0.0660 C   0  0  0  0  0  0  0  0  0  0  0  0
   -1.2680   -2.9850    0.7520 O   0  0  0  0  0  0  0  0  0  0  0  0
   -0.1320   -1.4540   -0.4400 O   0  0  0  0  0  0  0  0  0  0  0  0
    1.0140   -2.2720   -0.5610 C   0  0  0  0  0  0  0  0  0  0  0  0
    2.2180   -1.4940   -0.1760 C   0  0  0  0  0  0  0  0  0  0  0  0
    3.4640   -1.8600   -0.4960 C   0  0  0  0  0  0  0  0  0  0  0  0
    4.4730   -0.9560    0.1430 C   0  0  0  0  0  0  0  0  0  0  0  0
    3.6850    0.0030    0.9930 N   0  0  0  0  0  0  0  0  0  0  0  0
    2.2230   -0.2820    0.7110 C   0  0  1  0  0  0  0  0  0  0  0  0
    1.6120    1.0190    0.1140 C   0  0  2  0  0  0  0  0  0  0  0  0
    0.8410    0.7200   -1.0180 O   0  0  0  0  0  0  0  0  0  0  0  0
   -0.4000    1.2820   -1.1290 C   0  0  0  0  0  0  0  0  0  0  0  0
   -0.8000    1.3890   -2.2730 O   0  0  0  0  0  0  0  0  0  0  0  0
    2.8210    1.8640   -0.3320 C   0  0  0  0  0  0  0  0  0  0  0  0
    3.9230    1.4320    0.6390 C   0  0  0  0  0  0  0  0  0  0  0  0
  1  2  1  0
  2  3  2  0
  3 21  1  0
  3  4  1  0
  4  5  1  0
  5  7  1  0
  5  6  1  6
  7  9  1  0
  7  8  1  6
  7 10  1  0
 10 12  1  0
 10 11  2  0
 12 13  1  0
 13 14  1  0
 14 15  2  0
 14 18  1  0
 15 16  1  0
 17 16  1  0
 17 24  1  0
 18 17  1  6
 18 19  1  0
 19 20  1  0
 19 23  1  6
 20 21  1  0
 21 22  2  0
 23 24  1  0
M  END
>  <id>  (134) 
771

>  <scaffolds>  (134) 
['O=C1CCCCC(=O)OC2CCN3CC=C(CO1)C23', 'C=C1CCCC(=O)OCC2=CCN3CCC(OC1=O)C23', 'C1CCNC1']

>  <name>  (134) 
Integerrimine

>  <formula>  (134) 
C18H25NO5

>  <SMILES>  (134) 
CC=C1C[C@@H](C)[C@@](C)(O)C(=O)OCC2=CCN3[C@H]2[C@H](OC1=O)CC3

>  <ChEMBL_id>  (134) 
CHEMBL488203

>  <ZINC_id>  (134) 


>  <PubChem_id>  (134) 
5281733

>  <DrugBank_id>  (134) 


>  <CAS_no>  (134) 
480-79-5

>  <references>  (134) 
[{'journal': {'name': 'Phytochemistry', 'id': 10}, 'title': 'Diversity of pyrrolizidine alkaloids in native and invasive Senecio pterophorus (Asteraceae): Implications for toxicity', 'year': 2014, 'start_page': 137, 'volume': 108, 'issue': None, 'doi': '10.1016/j.phytochem.2014.09.006', 'isbn': '', 'despositor': {'code': 'AMU', 'first_name': 'Arnold', 'last_name': 'Amusengeri', 'id': 25}, 'refauthors_set': [{'author': {'first_name': 'Eva', 'initials': 'E', 'last_name': 'Castells', 'id': 929}, 'first_author': True, 'id': 1511}, {'author': {'first_name': 'Patrick', 'initials': 'PJ', 'last_name': 'Mulder', 'id': 930}, 'first_author': None, 'id': 1512}, {'author': {'first_name': 'Míriam', 'initials': 'M', 'last_name': 'Pérez-Trujillo', 'id': 931}, 'first_author': None, 'id': 1513}], 'id': 426}]

>  <classifications>  (134) 
[{'classification': 'Pyrrolizidine alkaloid', 'id': 875}, {'classification': 'Macrolides and analogues (Classyfire)', 'id': 945}]

>  <molecular_mass>  (134) 
335.39

>  <warheads>  (134) 
ab_unsat_carbonyl:1

>  <n_warheads>  (134) 
1

>  <max_tier>  (134) 
1

>  <pains_flag>  (134) 


>  <MW>  (134) 
335.4

>  <cLogP>  (134) 
1.19

>  <HBD>  (134) 
1

>  <HBA>  (134) 
6

>  <TPSA>  (134) 
76.1

>  <ArRings>  (134) 
0

$$$$
SANC00774_minRM1.pdb
     RDKit          3D

 26 27  0  0  1  0  0  0  0  0999 V2000
   -3.8900   -2.1980    1.3100 C   0  0  0  0  0  0  0  0  0  0  0  0
   -2.4750   -2.2900    0.8830 C   0  0  0  0  0  0  0  0  0  0  0  0
   -1.9700   -1.6770   -0.1940 C   0  0  0  0  0  0  0  0  0  0  0  0
   -2.7320   -0.8670   -1.1800 C   0  0  0  0  0  0  0  0  0  0  0  0
   -2.3510    0.6180   -1.2840 C   0  0  1  0  0  0  0  0  0  0  0  0
   -3.1940    1.2340   -2.4020 C   0  0  0  0  0  0  0  0  0  0  0  0
   -2.5750    1.4050    0.0290 C   0  0  1  0  0  0  0  0  0  0  0  0
   -2.4750    2.9280   -0.1510 C   0  0  0  0  0  0  0  0  0  0  0  0
   -3.8670    1.0840    0.4430 O   0  0  0  0  0  0  0  0  0  0  0  0
   -1.5960    0.9740    1.1270 C   0  0  0  0  0  0  0  0  0  0  0  0
   -1.9440    0.2860    2.0710 O   0  0  0  0  0  0  0  0  0  0  0  0
   -0.3280    1.4500    1.2550 O   0  0  0  0  0  0  0  0  0  0  0  0
    0.3850    1.9510    0.1440 C   0  0  0  0  0  0  0  0  0  0  0  0
    1.7430    1.3170    0.2190 C   0  0  0  0  0  0  0  0  0  0  0  0
    2.5530    1.4750    1.2610 C   0  0  0  0  0  0  0  0  0  0  0  0
    3.8900    0.8130    1.3870 C   0  0  0  0  0  0  0  0  0  0  0  0
    4.1410   -0.0720    0.2150 N   0  0  0  0  0  0  0  0  0  0  0  0
    3.7660   -1.4870    0.4880 C   0  0  0  0  0  0  0  0  0  0  0  0
    2.2410   -1.5930    0.5670 C   0  0  0  0  0  0  0  0  0  0  0  0
    1.6150   -1.0230   -0.7080 C   0  0  1  0  0  0  0  0  0  0  0  0
    0.2170   -0.8760   -0.5360 O   0  0  0  0  0  0  0  0  0  0  0  0
   -0.5640   -1.9850   -0.5220 C   0  0  0  0  0  0  0  0  0  0  0  0
   -0.0880   -3.0810   -0.7530 O   0  0  0  0  0  0  0  0  0  0  0  0
    2.0580    0.4310   -0.9200 C   0  0  0  0  0  0  0  0  0  0  0  0
    2.5020    0.8170   -1.9810 O   0  0  0  0  0  0  0  0  0  0  0  0
    5.5330    0.0400   -0.2770 C   0  0  0  0  0  0  0  0  0  0  0  0
  1  2  1  0
  2  3  2  0
  3  4  1  0
  3 22  1  0
  4  5  1  0
  5  6  1  6
  5  7  1  0
  7  8  1  6
  7  9  1  0
  7 10  1  0
 10 12  1  0
 10 11  2  0
 12 13  1  0
 13 14  1  0
 14 24  1  0
 14 15  2  0
 15 16  1  0
 16 17  1  0
 17 26  1  0
 17 18  1  0
 18 19  1  0
 20 19  1  1
 20 24  1  0
 20 21  1  0
 21 22  1  0
 22 23  2  0
 24 25  2  0
M  END
>  <id>  (135) 
774

>  <scaffolds>  (135) 
['O=C1CCCCC(=O)OC2CCNCC=C(CO1)C2=O']

>  <name>  (135) 
Senkirkine

>  <formula>  (135) 
C19H27NO6

>  <SMILES>  (135) 
CC=C1C[C@@H](C)[C@@](C)(O)C(=O)OCC2=CCN(CC[C@@H](OC1=O)C2=O)C

>  <ChEMBL_id>  (135) 
CHEMBL469650

>  <ZINC_id>  (135) 


>  <PubChem_id>  (135) 
5281752

>  <DrugBank_id>  (135) 


>  <CAS_no>  (135) 
2318-18-5

>  <references>  (135) 
[{'journal': {'name': 'Phytochemistry', 'id': 10}, 'title': 'Diversity of pyrrolizidine alkaloids in native and invasive Senecio pterophorus (Asteraceae): Implications for toxicity', 'year': 2014, 'start_page': 137, 'volume': 108, 'issue': None, 'doi': '10.1016/j.phytochem.2014.09.006', 'isbn': '', 'despositor': {'code': 'AMU', 'first_name': 'Arnold', 'last_name': 'Amusengeri', 'id': 25}, 'refauthors_set': [{'author': {'first_name': 'Eva', 'initials': 'E', 'last_name': 'Castells', 'id': 929}, 'first_author': True, 'id': 1511}, {'author': {'first_name': 'Patrick', 'initials': 'PJ', 'last_name': 'Mulder', 'id': 930}, 'first_author': None, 'id': 1512}, {'author': {'first_name': 'Míriam', 'initials': 'M', 'last_name': 'Pérez-Trujillo', 'id': 931}, 'first_author': None, 'id': 1513}], 'id': 426}]

>  <classifications>  (135) 
[{'classification': 'Pyrrolizidine alkaloid', 'id': 875}, {'classification': 'Macrolides and analogues (Classyfire)', 'id': 945}]

>  <molecular_mass>  (135) 
365.42

>  <warheads>  (135) 
ab_unsat_carbonyl:2

>  <n_warheads>  (135) 
2

>  <max_tier>  (135) 
1

>  <pains_flag>  (135) 


>  <MW>  (135) 
365.4

>  <cLogP>  (135) 
1.01

>  <HBD>  (135) 
1

>  <HBA>  (135) 
7

>  <TPSA>  (135) 
93.1

>  <ArRings>  (135) 
0

$$$$
SANC00781_minRM1.pdb
     RDKit          3D

 27 29  0  0  1  0  0  0  0  0999 V2000
   -5.2700    0.0780    0.9150 C   0  0  0  0  0  0  0  0  0  0  0  0
   -4.1010    0.1740    0.0180 N   0  0  0  0  0  0  0  0  0  0  0  0
   -3.8240    1.5640   -0.4420 C   0  0  0  0  0  0  0  0  0  0  0  0
   -2.3920    1.9270   -0.0130 C   0  0  0  0  0  0  0  0  0  0  0  0
   -1.4650    0.7510   -0.3200 C   0  0  1  0  0  0  0  0  0  0  0  0
   -0.1230    1.0480    0.0120 O   0  0  0  0  0  0  0  0  0  0  0  0
    0.6120    1.7490   -0.8880 C   0  0  0  0  0  0  0  0  0  0  0  0
    0.0900    2.3250   -1.8210 O   0  0  0  0  0  0  0  0  0  0  0  0
    2.0730    1.6400   -0.5760 C   0  0  1  0  0  0  0  0  0  0  0  0
    2.7460    2.8870   -0.5990 O   0  0  0  0  0  0  0  0  0  0  0  0
    2.5950    2.2850    0.6780 C   0  0  1  0  0  0  0  0  0  0  0  0
    1.6370    2.9610    1.6170 C   0  0  0  0  0  0  0  0  0  0  0  0
    2.7170    0.5020   -1.3330 C   0  0  0  0  0  0  0  0  0  0  0  0
    3.3110   -0.6460   -0.5100 C   0  0  2  0  0  0  0  0  0  0  0  0
    2.3350   -1.2900    0.5040 C   0  0  1  0  0  0  0  0  0  0  0  0
    1.0990   -1.8440   -0.2180 C   0  0  0  0  0  0  0  0  0  0  0  0
    0.9160   -1.9890   -1.4090 O   0  0  0  0  0  0  0  0  0  0  0  0
    0.1720   -2.2670    0.6800 O   0  0  0  0  0  0  0  0  0  0  0  0
   -1.0550   -2.7940    0.2280 C   0  0  0  0  0  0  0  0  0  0  0  0
   -2.0380   -1.7030   -0.0550 C   0  0  0  0  0  0  0  0  0  0  0  0
   -3.1090   -1.8900   -0.8230 C   0  0  0  0  0  0  0  0  0  0  0  0
   -4.1370   -0.8290   -1.0800 C   0  0  0  0  0  0  0  0  0  0  0  0
   -1.7900   -0.4120    0.6240 C   0  0  0  0  0  0  0  0  0  0  0  0
   -1.7710   -0.2930    1.8300 O   0  0  0  0  0  0  0  0  0  0  0  0
    2.9910   -2.4810    1.2210 C   0  0  0  0  0  0  0  0  0  0  0  0
    1.9800   -0.3010    1.4080 O   0  0  0  0  0  0  0  0  0  0  0  0
    4.5980   -0.2090    0.1810 C   0  0  0  0  0  0  0  0  0  0  0  0
  1  2  1  0
  2 22  1  0
  2  3  1  0
  3  4  1  0
  5  4  1  1
  5  6  1  0
  5 23  1  0
  6  7  1  0
  7  8  2  0
  9  7  1  0
  9 13  1  6
  9 10  1  0
  9 11  1  0
 10 11  1  0
 11 12  1  1
 13 14  1  0
 14 27  1  1
 14 15  1  0
 15 16  1  0
 15 25  1  1
 15 26  1  0
 16 17  2  0
 16 18  1  0
 18 19  1  0
 19 20  1  0
 20 21  2  0
 20 23  1  0
 21 22  1  0
 23 24  2  0
M  END
>  <id>  (136) 
781

>  <scaffolds>  (136) 
['O=C1CCCCC(=O)OC2CCNCC=C(CO1)C2=O', 'O=C1CCCC2(CO2)C(=O)OC2CCNCC=C(CO1)C2=O']

>  <name>  (136) 
Otosenine

>  <formula>  (136) 
C19H27NO7

>  <SMILES>  (136) 
CN1CC[C@H]2OC(=O)[C@]3(O[C@H]3C)CC([C@@](C(=O)OCC(=CC1)C2=O)(C)O)C

>  <ChEMBL_id>  (136) 


>  <ZINC_id>  (136) 


>  <PubChem_id>  (136) 
91746991

>  <DrugBank_id>  (136) 


>  <CAS_no>  (136) 
16958-29-5

>  <references>  (136) 
[{'journal': {'name': 'Phytochemistry', 'id': 10}, 'title': 'Diversity of pyrrolizidine alkaloids in native and invasive Senecio pterophorus (Asteraceae): Implications for toxicity', 'year': 2014, 'start_page': 137, 'volume': 108, 'issue': None, 'doi': '10.1016/j.phytochem.2014.09.006', 'isbn': '', 'despositor': {'code': 'AMU', 'first_name': 'Arnold', 'last_name': 'Amusengeri', 'id': 25}, 'refauthors_set': [{'author': {'first_name': 'Eva', 'initials': 'E', 'last_name': 'Castells', 'id': 929}, 'first_author': True, 'id': 1511}, {'author': {'first_name': 'Patrick', 'initials': 'PJ', 'last_name': 'Mulder', 'id': 930}, 'first_author': None, 'id': 1512}, {'author': {'first_name': 'Míriam', 'initials': 'M', 'last_name': 'Pérez-Trujillo', 'id': 931}, 'first_author': None, 'id': 1513}], 'id': 426}]

>  <classifications>  (136) 
[{'classification': 'Pyrrolizidine alkaloid', 'id': 875}, {'classification': 'Azaspirodecane derivatives (Classyfire)', 'id': 998}]

>  <molecular_mass>  (136) 
381.42

>  <warheads>  (136) 
ab_unsat_carbonyl:1

>  <n_warheads>  (136) 
1

>  <max_tier>  (136) 
1

>  <pains_flag>  (136) 


>  <MW>  (136) 
381.4

>  <cLogP>  (136) 
0.22

>  <HBD>  (136) 
1

>  <HBA>  (136) 
8

>  <TPSA>  (136) 
105.7

>  <ArRings>  (136) 
0

$$$$
SANC00782_minRM1.pdb
     RDKit          3D

 30 32  0  0  1  0  0  0  0  0999 V2000
    4.6730    1.5720    2.0380 C   0  0  0  0  0  0  0  0  0  0  0  0
    3.8760    1.2330    0.8360 N   0  0  0  0  0  0  0  0  0  0  0  0
    4.4130    0.0210    0.1750 C   0  0  0  0  0  0  0  0  0  0  0  0
    3.6170   -0.4440   -1.0490 C   0  0  0  0  0  0  0  0  0  0  0  0
    2.0870   -0.3380   -0.9540 C   0  0  1  0  0  0  0  0  0  0  0  0
    1.6490   -0.4900    0.3750 O   0  0  0  0  0  0  0  0  0  0  0  0
    1.3080   -1.7710    0.7370 C   0  0  0  0  0  0  0  0  0  0  0  0
    2.0940   -2.3880    1.4170 O   0  0  0  0  0  0  0  0  0  0  0  0
   -0.0810   -2.2070    0.3740 C   0  0  1  0  0  0  0  0  0  0  0  0
   -0.1860   -2.7650   -0.9190 O   0  0  0  0  0  0  0  0  0  0  0  0
   -0.3620   -3.6730    0.1590 C   0  0  1  0  0  0  0  0  0  0  0  0
    0.7110   -4.7090    0.3300 C   0  0  0  0  0  0  0  0  0  0  0  0
   -1.1590   -1.2760    0.8890 C   0  0  0  0  0  0  0  0  0  0  0  0
   -2.4380   -1.2340    0.0350 C   0  0  2  0  0  0  0  0  0  0  0  0
   -2.6740    0.1790   -0.5500 C   0  0  1  0  0  0  0  0  0  0  0  0
   -1.3880    0.6440   -1.2450 C   0  0  0  0  0  0  0  0  0  0  0  0
   -0.7420   -0.0260   -2.0150 O   0  0  0  0  0  0  0  0  0  0  0  0
   -1.0310    1.9590   -1.0620 O   0  0  0  0  0  0  0  0  0  0  0  0
   -0.1460    2.1830    0.0090 C   0  0  0  0  0  0  0  0  0  0  0  0
    1.2860    2.0570   -0.3920 C   0  0  0  0  0  0  0  0  0  0  0  0
    2.2510    2.7730    0.1850 C   0  0  0  0  0  0  0  0  0  0  0  0
    3.6960    2.4260   -0.0410 C   0  0  0  0  0  0  0  0  0  0  0  0
    1.6620    1.0590   -1.4120 C   0  0  0  0  0  0  0  0  0  0  0  0
    1.7230    1.3410   -2.5920 O   0  0  0  0  0  0  0  0  0  0  0  0
   -3.7560    0.2000   -1.6240 C   0  0  0  0  0  0  0  0  0  0  0  0
   -2.8390    1.1160    0.4880 O   0  0  0  0  0  0  0  0  0  0  0  0
   -4.0490    1.4660    0.9950 C   0  0  0  0  0  0  0  0  0  0  0  0
   -5.0790    0.9060    0.6830 O   0  0  0  0  0  0  0  0  0  0  0  0
   -3.8890    2.5840    1.9780 C   0  0  0  0  0  0  0  0  0  0  0  0
   -3.6290   -1.6880    0.8700 C   0  0  0  0  0  0  0  0  0  0  0  0
  1  2  1  0
  2 22  1  0
  2  3  1  0
  3  4  1  0
  5  4  1  1
  5 23  1  0
  5  6  1  0
  6  7  1  0
  7  8  2  0
  9  7  1  0
  9 10  1  0
  9 11  1  0
  9 13  1  6
 10 11  1  0
 11 12  1  1
 13 14  1  0
 14 15  1  0
 14 30  1  1
 15 25  1  6
 15 16  1  0
 15 26  1  0
 16 17  2  0
 16 18  1  0
 18 19  1  0
 19 20  1  0
 20 23  1  0
 20 21  2  0
 21 22  1  0
 23 24  2  0
 26 27  1  0
 27 28  2  0
 27 29  1  0
M  END
>  <id>  (137) 
782

>  <scaffolds>  (137) 
['O=C1CCCCC(=O)OC2CCNCC=C(CO1)C2=O', 'O=C1CCCC2(CO2)C(=O)OC2CCNCC=C(CO1)C2=O']

>  <name>  (137) 
Florosenine

>  <formula>  (137) 
C21H29NO8

>  <SMILES>  (137) 
CN1CC[C@H]2OC(=O)[C@]3(OC3C)C[C@H]([C@@](C(=O)OCC(=CC1)C2=O)(C)OC(=O)C)C	

>  <ChEMBL_id>  (137) 


>  <ZINC_id>  (137) 


>  <PubChem_id>  (137) 
6441404

>  <DrugBank_id>  (137) 


>  <CAS_no>  (137) 
16958-30-8

>  <references>  (137) 
[{'journal': {'name': 'Phytochemistry', 'id': 10}, 'title': 'Diversity of pyrrolizidine alkaloids in native and invasive Senecio pterophorus (Asteraceae): Implications for toxicity', 'year': 2014, 'start_page': 137, 'volume': 108, 'issue': None, 'doi': '10.1016/j.phytochem.2014.09.006', 'isbn': '', 'despositor': {'code': 'AMU', 'first_name': 'Arnold', 'last_name': 'Amusengeri', 'id': 25}, 'refauthors_set': [{'author': {'first_name': 'Eva', 'initials': 'E', 'last_name': 'Castells', 'id': 929}, 'first_author': True, 'id': 1511}, {'author': {'first_name': 'Patrick', 'initials': 'PJ', 'last_name': 'Mulder', 'id': 930}, 'first_author': None, 'id': 1512}, {'author': {'first_name': 'Míriam', 'initials': 'M', 'last_name': 'Pérez-Trujillo', 'id': 931}, 'first_author': None, 'id': 1513}], 'id': 426}]

>  <classifications>  (137) 
[{'classification': 'Pyrrolizidine alkaloid', 'id': 875}, {'classification': 'Azaspirodecane derivatives (Classyfire)', 'id': 998}]

>  <molecular_mass>  (137) 
423.46

>  <warheads>  (137) 
ab_unsat_carbonyl:1

>  <n_warheads>  (137) 
1

>  <max_tier>  (137) 
1

>  <pains_flag>  (137) 


>  <MW>  (137) 
423.5

>  <cLogP>  (137) 
0.79

>  <HBD>  (137) 
0

>  <HBA>  (137) 
9

>  <TPSA>  (137) 
111.7

>  <ArRings>  (137) 
0

$$$$
SANC00783_minRM1.pdb
     RDKit          3D

 31 32  0  0  1  0  0  0  0  0999 V2000
   -5.5950    0.7070    1.0450 C   0  0  0  0  0  0  0  0  0  0  0  0
   -4.1210    0.7070    0.9070 N   0  0  0  0  0  0  0  0  0  0  0  0
   -3.4580    0.1270    2.1050 C   0  0  0  0  0  0  0  0  0  0  0  0
   -1.9940   -0.1640    1.7720 C   0  0  0  0  0  0  0  0  0  0  0  0
   -1.9130   -1.1060    0.5640 C   0  0  2  0  0  0  0  0  0  0  0  0
   -0.5200   -1.3000    0.3930 O   0  0  0  0  0  0  0  0  0  0  0  0
   -0.0670   -1.9820   -0.6810 C   0  0  0  0  0  0  0  0  0  0  0  0
   -0.7900   -2.2370   -1.6240 O   0  0  0  0  0  0  0  0  0  0  0  0
    1.4030   -2.3790   -0.5770 C   0  0  1  0  0  0  0  0  0  0  0  0
    1.6220   -3.4510   -1.4440 O   0  0  0  0  0  0  0  0  0  0  0  0
    2.3170   -1.2040   -0.9800 C   0  0  0  0  0  0  0  0  0  0  0  0
    2.3280   -0.0130   -0.0110 C   0  0  2  0  0  0  0  0  0  0  0  0
    2.2190    1.3300   -0.7760 C   0  0  2  0  0  0  0  0  0  0  0  0
    0.7860    1.6670   -1.1790 C   0  0  0  0  0  0  0  0  0  0  0  0
    0.2610    2.7550   -1.0390 O   0  0  0  0  0  0  0  0  0  0  0  0
    0.1460    0.6500   -1.7960 O   0  0  0  0  0  0  0  0  0  0  0  0
   -1.1820    0.8670   -2.2370 C   0  0  0  0  0  0  0  0  0  0  0  0
   -2.1240    0.8630   -1.0750 C   0  0  0  0  0  0  0  0  0  0  0  0
   -2.5820    1.9840   -0.5240 C   0  0  0  0  0  0  0  0  0  0  0  0
   -3.5900    2.0600    0.5800 C   0  0  0  0  0  0  0  0  0  0  0  0
   -2.5780   -0.4820   -0.6650 C   0  0  0  0  0  0  0  0  0  0  0  0
   -3.4190   -1.0930   -1.2890 O   0  0  0  0  0  0  0  0  0  0  0  0
    3.0720    1.3850   -2.0490 C   0  0  0  0  0  0  0  0  0  0  0  0
    2.7030    2.4130   -0.0120 O   0  0  0  0  0  0  0  0  0  0  0  0
    2.0600    2.7990    1.1240 C   0  0  0  0  0  0  0  0  0  0  0  0
    1.1110    2.1760    1.5570 O   0  0  0  0  0  0  0  0  0  0  0  0
    2.6820    4.0310    1.6970 C   0  0  0  0  0  0  0  0  0  0  0  0
    3.6140   -0.0320    0.8170 C   0  0  0  0  0  0  0  0  0  0  0  0
    1.7240   -2.9620    0.8330 C   0  0  2  0  0  0  0  0  0  0  0  0
    3.0450   -3.3910    0.8760 O   0  0  0  0  0  0  0  0  0  0  0  0
    0.7570   -4.0900    1.1940 C   0  0  0  0  0  0  0  0  0  0  0  0
  1  2  1  0
  2 20  1  0
  2  3  1  0
  3  4  1  0
  5  4  1  1
  5 21  1  0
  5  6  1  0
  6  7  1  0
  7  8  2  0
  7  9  1  0
  9 10  1  6
  9 11  1  0
  9 29  1  0
 11 12  1  0
 12 13  1  0
 12 28  1  6
 13 23  1  6
 13 14  1  0
 13 24  1  0
 14 16  1  0
 14 15  2  0
 16 17  1  0
 17 18  1  0
 18 21  1  0
 18 19  2  0
 19 20  1  0
 21 22  2  0
 24 25  1  0
 25 26  2  0
 25 27  1  0
 29 30  1  0
 29 31  1  6
M  END
>  <id>  (138) 
783

>  <scaffolds>  (138) 
['O=C1CCCCC(=O)OC2CCNCC=C(CO1)C2=O']

>  <name>  (138) 
Floridanine

>  <formula>  (138) 
C21H31NO9

>  <SMILES>  (138) 
CN1CCC2OC(=O)C(O)(CC(C(C(=O)OCC(=CC1)C2=O)(C)OC(=O)C)C)C(O)C

>  <ChEMBL_id>  (138) 


>  <ZINC_id>  (138) 


>  <PubChem_id>  (138) 
101297605

>  <DrugBank_id>  (138) 


>  <CAS_no>  (138) 
16958-31-9

>  <references>  (138) 
[{'journal': {'name': 'Phytochemistry', 'id': 10}, 'title': 'Diversity of pyrrolizidine alkaloids in native and invasive Senecio pterophorus (Asteraceae): Implications for toxicity', 'year': 2014, 'start_page': 137, 'volume': 108, 'issue': None, 'doi': '10.1016/j.phytochem.2014.09.006', 'isbn': '', 'despositor': {'code': 'AMU', 'first_name': 'Arnold', 'last_name': 'Amusengeri', 'id': 25}, 'refauthors_set': [{'author': {'first_name': 'Eva', 'initials': 'E', 'last_name': 'Castells', 'id': 929}, 'first_author': True, 'id': 1511}, {'author': {'first_name': 'Patrick', 'initials': 'PJ', 'last_name': 'Mulder', 'id': 930}, 'first_author': None, 'id': 1512}, {'author': {'first_name': 'Míriam', 'initials': 'M', 'last_name': 'Pérez-Trujillo', 'id': 931}, 'first_author': None, 'id': 1513}], 'id': 426}]

>  <classifications>  (138) 
[{'classification': 'Pyrrolizidine alkaloid', 'id': 875}, {'classification': 'Carboxylic acids and derivatives (Classyfire)', 'id': 950}]

>  <molecular_mass>  (138) 
441.47

>  <warheads>  (138) 
ab_unsat_carbonyl:1

>  <n_warheads>  (138) 
1

>  <max_tier>  (138) 
1

>  <pains_flag>  (138) 


>  <MW>  (138) 
441.5

>  <cLogP>  (138) 
-0.25

>  <HBD>  (138) 
2

>  <HBA>  (138) 
10

>  <TPSA>  (138) 
139.7

>  <ArRings>  (138) 
0

$$$$
SANC00784_minRM1.pdb
     RDKit          3D

 25 27  0  0  1  0  0  0  0  0999 V2000
    0.3800   -4.3560   -0.9970 C   0  0  0  0  0  0  0  0  0  0  0  0
    1.3830   -3.3030   -0.7060 C   0  0  0  0  0  0  0  0  0  0  0  0
    1.1030   -2.1980   -0.0090 C   0  0  0  0  0  0  0  0  0  0  0  0
    2.1230   -1.1590    0.3210 C   0  0  0  0  0  0  0  0  0  0  0  0
    2.2880   -0.1370   -0.7610 C   0  0  0  0  0  0  0  0  0  0  0  0
    2.3090   -0.4740   -2.0470 C   0  0  0  0  0  0  0  0  0  0  0  0
    2.5370    1.2790   -0.3010 C   0  0  2  0  0  0  0  0  0  0  0  0
    2.4020    2.1310   -1.3990 O   0  0  0  0  0  0  0  0  0  0  0  0
    3.9930    1.4020    0.2590 C   0  0  0  0  0  0  0  0  0  0  0  0
    4.2580    0.4800    1.2560 O   0  0  0  0  0  0  0  0  0  0  0  0
    1.5170    1.6950    0.7640 C   0  0  0  0  0  0  0  0  0  0  0  0
    1.8170    1.8880    1.9320 O   0  0  0  0  0  0  0  0  0  0  0  0
    0.2140    1.9400    0.4950 O   0  0  0  0  0  0  0  0  0  0  0  0
   -0.2990    1.7380   -0.8080 C   0  0  0  0  0  0  0  0  0  0  0  0
   -1.7620    1.5310   -0.6510 C   0  0  0  0  0  0  0  0  0  0  0  0
   -2.6800    1.8490   -1.5690 C   0  0  0  0  0  0  0  0  0  0  0  0
   -4.0580    1.5120   -1.0850 C   0  0  0  0  0  0  0  0  0  0  0  0
   -3.8890    0.9660    0.3060 N   0  0  0  0  0  0  0  0  0  0  0  0
   -2.4000    0.9540    0.5810 C   0  0  1  0  0  0  0  0  0  0  0  0
   -2.0130   -0.5070    0.9400 C   0  0  2  0  0  0  0  0  0  0  0  0
   -0.7880   -0.8130    0.3090 O   0  0  0  0  0  0  0  0  0  0  0  0
   -0.2370   -2.0250    0.5780 C   0  0  0  0  0  0  0  0  0  0  0  0
   -0.8330   -2.8450    1.2540 O   0  0  0  0  0  0  0  0  0  0  0  0
   -3.1660   -1.3730    0.4130 C   0  0  0  0  0  0  0  0  0  0  0  0
   -4.3750   -0.4340    0.4670 C   0  0  0  0  0  0  0  0  0  0  0  0
  1  2  1  0
  2  3  2  0
  3  4  1  0
  3 22  1  0
  4  5  1  0
  5  6  2  0
  5  7  1  0
  7  8  1  6
  7  9  1  0
  7 11  1  0
  9 10  1  0
 11 13  1  0
 11 12  2  0
 13 14  1  0
 14 15  1  0
 15 16  2  0
 15 19  1  0
 16 17  1  0
 18 17  1  0
 18 25  1  0
 19 18  1  6
 19 20  1  0
 20 21  1  0
 20 24  1  6
 21 22  1  0
 22 23  2  0
 24 25  1  0
M  END
>  <id>  (139) 
784

>  <scaffolds>  (139) 
['O=C1CCCCC(=O)OC2CCN3CC=C(CO1)C23', 'C=C1CCCC(=O)OCC2=CCN3CCC(OC1=O)C23', 'C1CCNC1']

>  <name>  (139) 
Ridelliine

>  <formula>  (139) 
C18H23NO6

>  <SMILES>  (139) 
CC=C1CC(=C)[C@](O)(CO)C(=O)OCC2=CCN3[C@H]2[C@H](OC1=O)CC3

>  <ChEMBL_id>  (139) 


>  <ZINC_id>  (139) 


>  <PubChem_id>  (139) 
5281744

>  <DrugBank_id>  (139) 


>  <CAS_no>  (139) 
23246-96-0

>  <references>  (139) 
[{'journal': {'name': 'Phytochemistry', 'id': 10}, 'title': 'Diversity of pyrrolizidine alkaloids in native and invasive Senecio pterophorus (Asteraceae): Implications for toxicity', 'year': 2014, 'start_page': 137, 'volume': 108, 'issue': None, 'doi': '10.1016/j.phytochem.2014.09.006', 'isbn': '', 'despositor': {'code': 'AMU', 'first_name': 'Arnold', 'last_name': 'Amusengeri', 'id': 25}, 'refauthors_set': [{'author': {'first_name': 'Eva', 'initials': 'E', 'last_name': 'Castells', 'id': 929}, 'first_author': True, 'id': 1511}, {'author': {'first_name': 'Patrick', 'initials': 'PJ', 'last_name': 'Mulder', 'id': 930}, 'first_author': None, 'id': 1512}, {'author': {'first_name': 'Míriam', 'initials': 'M', 'last_name': 'Pérez-Trujillo', 'id': 931}, 'first_author': None, 'id': 1513}], 'id': 426}]

>  <classifications>  (139) 
[{'classification': 'Pyrrolizidine alkaloid', 'id': 875}]

>  <molecular_mass>  (139) 
349.38

>  <warheads>  (139) 
ab_unsat_carbonyl:1

>  <n_warheads>  (139) 
1

>  <max_tier>  (139) 
1

>  <pains_flag>  (139) 


>  <MW>  (139) 
349.4

>  <cLogP>  (139) 
0.09

>  <HBD>  (139) 
2

>  <HBA>  (139) 
7

>  <TPSA>  (139) 
96.3

>  <ArRings>  (139) 
0

$$$$
SANC00787_minRM1.pdb
     RDKit          3D

 28 29  0  0  1  0  0  0  0  0999 V2000
    5.3950   -0.4070   -1.4750 C   0  0  0  0  0  0  0  0  0  0  0  0
    4.3470   -0.2110   -0.4520 N   0  0  0  0  0  0  0  0  0  0  0  0
    4.2400   -1.3730    0.4760 C   0  0  0  0  0  0  0  0  0  0  0  0
    2.9170   -2.1100    0.1960 C   0  0  0  0  0  0  0  0  0  0  0  0
    1.7800   -1.1180   -0.0680 C   0  0  1  0  0  0  0  0  0  0  0  0
    0.5530   -1.7430    0.2580 O   0  0  0  0  0  0  0  0  0  0  0  0
   -0.4510   -1.6750   -0.6610 C   0  0  0  0  0  0  0  0  0  0  0  0
   -0.2370   -1.9220   -1.8280 O   0  0  0  0  0  0  0  0  0  0  0  0
   -1.7840   -1.3180   -0.0100 C   0  0  1  0  0  0  0  0  0  0  0  0
   -1.5850   -0.4600    1.0590 O   0  0  0  0  0  0  0  0  0  0  0  0
   -2.6250   -0.5000   -1.0080 C   0  0  0  0  0  0  0  0  0  0  0  0
   -1.9370    0.7910   -1.4790 C   0  0  2  0  0  0  0  0  0  0  0  0
   -2.2060    2.0100   -0.5550 C   0  0  2  0  0  0  0  0  0  0  0  0
   -1.5190    1.8740    0.8140 C   0  0  0  0  0  0  0  0  0  0  0  0
   -2.1320    1.8500    1.8640 O   0  0  0  0  0  0  0  0  0  0  0  0
   -0.1690    1.7870    0.9840 O   0  0  0  0  0  0  0  0  0  0  0  0
    0.7290    2.0840   -0.0610 C   0  0  0  0  0  0  0  0  0  0  0  0
    2.0090    1.3820    0.2830 C   0  0  0  0  0  0  0  0  0  0  0  0
    3.2080    1.8730   -0.0190 C   0  0  0  0  0  0  0  0  0  0  0  0
    4.4720    1.1030    0.2460 C   0  0  0  0  0  0  0  0  0  0  0  0
    1.8760    0.0530    0.9180 C   0  0  0  0  0  0  0  0  0  0  0  0
    1.8660   -0.1190    2.1160 O   0  0  0  0  0  0  0  0  0  0  0  0
   -3.7070    2.2210   -0.3300 C   0  0  0  0  0  0  0  0  0  0  0  0
   -1.6100    3.1560   -1.0920 O   0  0  0  0  0  0  0  0  0  0  0  0
   -2.3970    1.0910   -2.9050 C   0  0  0  0  0  0  0  0  0  0  0  0
   -2.4450   -2.6440    0.4770 C   0  0  1  0  0  0  0  0  0  0  0  0
   -3.2640   -2.3920    1.5700 O   0  0  0  0  0  0  0  0  0  0  0  0
   -3.1920   -3.3800   -0.6300 C   0  0  0  0  0  0  0  0  0  0  0  0
  1  2  1  0
  2 20  1  0
  2  3  1  0
  3  4  1  0
  5  4  1  1
  5  6  1  0
  5 21  1  0
  6  7  1  0
  7  8  2  0
  7  9  1  0
  9 11  1  0
  9 26  1  0
  9 10  1  1
 11 12  1  0
 12 25  1  6
 12 13  1  0
 13 24  1  0
 13 23  1  1
 13 14  1  0
 14 16  1  0
 14 15  2  0
 16 17  1  0
 17 18  1  0
 18 19  2  0
 18 21  1  0
 19 20  1  0
 21 22  2  0
 26 28  1  6
 26 27  1  0
M  END
>  <id>  (140) 
787

>  <scaffolds>  (140) 
['O=C1CCCCC(=O)OC2CCNCC=C(CO1)C2=O']

>  <name>  (140) 
Onetine

>  <formula>  (140) 
C19H29NO8

>  <SMILES>  (140) 
CN1CCC2OC(=O)C(O)(CC(C(C(=O)OCC(=CC1)C2=O)(C)O)C)C(O)C

>  <ChEMBL_id>  (140) 


>  <ZINC_id>  (140) 


>  <PubChem_id>  (140) 
102059844

>  <DrugBank_id>  (140) 


>  <CAS_no>  (140) 
41451-67-6

>  <references>  (140) 
[{'journal': {'name': 'Phytochemistry', 'id': 10}, 'title': 'Diversity of pyrrolizidine alkaloids in native and invasive Senecio pterophorus (Asteraceae): Implications for toxicity', 'year': 2014, 'start_page': 137, 'volume': 108, 'issue': None, 'doi': '10.1016/j.phytochem.2014.09.006', 'isbn': '', 'despositor': {'code': 'AMU', 'first_name': 'Arnold', 'last_name': 'Amusengeri', 'id': 25}, 'refauthors_set': [{'author': {'first_name': 'Eva', 'initials': 'E', 'last_name': 'Castells', 'id': 929}, 'first_author': True, 'id': 1511}, {'author': {'first_name': 'Patrick', 'initials': 'PJ', 'last_name': 'Mulder', 'id': 930}, 'first_author': None, 'id': 1512}, {'author': {'first_name': 'Míriam', 'initials': 'M', 'last_name': 'Pérez-Trujillo', 'id': 931}, 'first_author': None, 'id': 1513}], 'id': 426}]

>  <classifications>  (140) 
[{'classification': 'Pyrrolizidine alkaloid', 'id': 875}, {'classification': 'Macrolides and analogues (Classyfire)', 'id': 945}]

>  <molecular_mass>  (140) 
399.43

>  <warheads>  (140) 
ab_unsat_carbonyl:1

>  <n_warheads>  (140) 
1

>  <max_tier>  (140) 
1

>  <pains_flag>  (140) 


>  <MW>  (140) 
399.4

>  <cLogP>  (140) 
-0.82

>  <HBD>  (140) 
3

>  <HBA>  (140) 
9

>  <TPSA>  (140) 
133.6

>  <ArRings>  (140) 
0

$$$$
SANC00788_minRM1.pdb
     RDKit          3D

 31 32  0  0  1  0  0  0  0  0999 V2000
   -5.8880   -1.2580   -1.2730 C   0  0  0  0  0  0  0  0  0  0  0  0
   -4.7480   -0.9930   -0.3640 N   0  0  0  0  0  0  0  0  0  0  0  0
   -4.7650    0.4030    0.1480 C   0  0  0  0  0  0  0  0  0  0  0  0
   -3.3720    0.7630    0.6730 C   0  0  0  0  0  0  0  0  0  0  0  0
   -2.3250    0.4960   -0.4130 C   0  0  1  0  0  0  0  0  0  0  0  0
   -1.0280    0.7320    0.1160 O   0  0  0  0  0  0  0  0  0  0  0  0
   -0.6280    2.0240    0.2200 C   0  0  0  0  0  0  0  0  0  0  0  0
   -1.3580    2.9280   -0.1280 O   0  0  0  0  0  0  0  0  0  0  0  0
    0.7560    2.1680    0.8630 C   0  0  1  0  0  0  0  0  0  0  0  0
    0.4440    2.2280    2.2190 O   0  0  0  0  0  0  0  0  0  0  0  0
    1.7160    1.0170    0.4780 C   0  0  0  0  0  0  0  0  0  0  0  0
    1.6650   -0.1820    1.4300 C   0  0  1  0  0  0  0  0  0  0  0  0
    2.0740   -1.4940    0.7030 C   0  0  2  0  0  0  0  0  0  0  0  0
    1.1840   -1.7810   -0.5090 C   0  0  0  0  0  0  0  0  0  0  0  0
    1.5660   -1.5880   -1.6470 O   0  0  0  0  0  0  0  0  0  0  0  0
   -0.0370   -2.3740   -0.4330 O   0  0  0  0  0  0  0  0  0  0  0  0
   -0.7990   -2.2980    0.7490 C   0  0  0  0  0  0  0  0  0  0  0  0
   -2.1960   -1.9240    0.3490 C   0  0  0  0  0  0  0  0  0  0  0  0
   -3.2520   -2.3610    1.0280 C   0  0  0  0  0  0  0  0  0  0  0  0
   -4.6730   -1.9940    0.7350 C   0  0  0  0  0  0  0  0  0  0  0  0
   -2.3110   -0.9920   -0.7930 C   0  0  0  0  0  0  0  0  0  0  0  0
   -2.3530   -1.3410   -1.9490 O   0  0  0  0  0  0  0  0  0  0  0  0
    2.0980   -2.6940    1.6500 C   0  0  0  0  0  0  0  0  0  0  0  0
    3.3610   -1.2130    0.1990 O   0  0  0  0  0  0  0  0  0  0  0  0
    4.0340   -2.1460   -0.5370 C   0  0  0  0  0  0  0  0  0  0  0  0
    3.6290   -3.2860   -0.6230 O   0  0  0  0  0  0  0  0  0  0  0  0
    5.2630   -1.5550   -1.1440 C   0  0  0  0  0  0  0  0  0  0  0  0
    2.5960    0.0410    2.6220 C   0  0  0  0  0  0  0  0  0  0  0  0
    1.3990    3.5030    0.4300 C   0  0  1  0  0  0  0  0  0  0  0  0
    1.5500    3.3480   -1.4090 Cl  0  0  0  0  0  0  0  0  0  0  0  0
    0.6110    4.7520    0.7220 C   0  0  0  0  0  0  0  0  0  0  0  0
  1  2  1  0
  2  3  1  0
  2 20  1  0
  3  4  1  0
  5  4  1  1
  5 21  1  0
  5  6  1  0
  6  7  1  0
  7  8  2  0
  7  9  1  0
  9 29  1  0
  9 11  1  0
  9 10  1  1
 11 12  1  0
 12 13  1  0
 12 28  1  1
 13 14  1  0
 13 24  1  0
 13 23  1  1
 14 15  2  0
 14 16  1  0
 16 17  1  0
 17 18  1  0
 18 21  1  0
 18 19  2  0
 19 20  1  0
 21 22  2  0
 24 25  1  0
 25 27  1  0
 25 26  2  0
 29 30  1  0
 29 31  1  6
M  END
>  <id>  (141) 
788

>  <scaffolds>  (141) 
['O=C1CCCCC(=O)OC2CCNCC=C(CO1)C2=O']

>  <name>  (141) 
Doronine

>  <formula>  (141) 
C21H30ClNO8

>  <SMILES>  (141) 
CN1CCC2OC(=O)C(O)(CC(C(C(=O)OCC(=CC1)C2=O)(C)OC(=O)C)C)C(Cl)C

>  <ChEMBL_id>  (141) 


>  <ZINC_id>  (141) 


>  <PubChem_id>  (141) 
5281726

>  <DrugBank_id>  (141) 


>  <CAS_no>  (141) 
60367-00-2

>  <references>  (141) 
[{'journal': {'name': 'Phytochemistry', 'id': 10}, 'title': 'Diversity of pyrrolizidine alkaloids in native and invasive Senecio pterophorus (Asteraceae): Implications for toxicity', 'year': 2014, 'start_page': 137, 'volume': 108, 'issue': None, 'doi': '10.1016/j.phytochem.2014.09.006', 'isbn': '', 'despositor': {'code': 'AMU', 'first_name': 'Arnold', 'last_name': 'Amusengeri', 'id': 25}, 'refauthors_set': [{'author': {'first_name': 'Eva', 'initials': 'E', 'last_name': 'Castells', 'id': 929}, 'first_author': True, 'id': 1511}, {'author': {'first_name': 'Patrick', 'initials': 'PJ', 'last_name': 'Mulder', 'id': 930}, 'first_author': None, 'id': 1512}, {'author': {'first_name': 'Míriam', 'initials': 'M', 'last_name': 'Pérez-Trujillo', 'id': 931}, 'first_author': None, 'id': 1513}], 'id': 426}]

>  <classifications>  (141) 
[{'classification': 'Pyrrolizidine alkaloid', 'id': 875}, {'classification': 'Carboxylic acids and derivatives (Classyfire)', 'id': 950}]

>  <molecular_mass>  (141) 
459.92

>  <warheads>  (141) 
ab_unsat_carbonyl:1

>  <n_warheads>  (141) 
1

>  <max_tier>  (141) 
1

>  <pains_flag>  (141) 


>  <MW>  (141) 
459.9

>  <cLogP>  (141) 
0.99

>  <HBD>  (141) 
1

>  <HBA>  (141) 
9

>  <TPSA>  (141) 
119.4

>  <ArRings>  (141) 
0

$$$$
SANC00789_minRM1.pdb
     RDKit          3D

 24 26  0  0  1  0  0  0  0  0999 V2000
   -1.5720    3.4550   -0.2830 C   0  0  0  0  0  0  0  0  0  0  0  0
   -0.9420    2.2800   -0.3100 C   0  0  0  0  0  0  0  0  0  0  0  0
    0.3500    2.1870    0.4010 C   0  0  0  0  0  0  0  0  0  0  0  0
    0.8530    3.0630    1.0910 O   0  0  0  0  0  0  0  0  0  0  0  0
    0.9880    0.9990    0.2550 O   0  0  0  0  0  0  0  0  0  0  0  0
    2.2030    0.8150    0.9430 C   0  0  2  0  0  0  0  0  0  0  0  0
    3.3660    1.6490    0.3260 C   0  0  0  0  0  0  0  0  0  0  0  0
    4.2540    0.6700   -0.4960 C   0  0  0  0  0  0  0  0  0  0  0  0
    3.3370   -0.4570   -0.6470 N   0  0  0  0  0  0  0  0  0  0  0  0
    2.6400   -0.6320    0.6580 C   0  0  2  0  0  0  0  0  0  0  0  0
    1.7570   -1.7990    0.3220 C   0  0  0  0  0  0  0  0  0  0  0  0
    2.3150   -2.4960   -0.6820 C   0  0  0  0  0  0  0  0  0  0  0  0
    3.5740   -1.8090   -1.1860 C   0  0  0  0  0  0  0  0  0  0  0  0
    0.4990   -2.1060    1.0430 C   0  0  0  0  0  0  0  0  0  0  0  0
   -0.5250   -1.6560    0.1680 O   0  0  0  0  0  0  0  0  0  0  0  0
   -1.8000   -1.7300    0.6060 C   0  0  0  0  0  0  0  0  0  0  0  0
   -2.0690   -2.3180    1.6390 O   0  0  0  0  0  0  0  0  0  0  0  0
   -2.8070   -1.0580   -0.3290 C   0  0  1  0  0  0  0  0  0  0  0  0
   -2.7030    0.4920   -0.2290 C   0  0  2  0  0  0  0  0  0  0  0  0
   -1.5100    1.0800   -1.0170 C   0  0  1  0  0  0  0  0  0  0  0  0
   -1.9260    1.5210   -2.4250 C   0  0  0  0  0  0  0  0  0  0  0  0
   -2.6550    0.8660    1.2530 C   0  0  0  0  0  0  0  0  0  0  0  0
   -2.6430   -1.6260   -1.7390 C   0  0  0  0  0  0  0  0  0  0  0  0
   -4.0970   -1.3370    0.1310 O   0  0  0  0  0  0  0  0  0  0  0  0
  1  2  2  0
  2 20  1  0
  2  3  1  0
  3  5  1  0
  3  4  2  0
  5  6  1  0
  6  7  1  6
  6 10  1  0
  7  8  1  0
  9  8  1  0
  9 13  1  0
 10  9  1  6
 10 11  1  0
 11 12  2  0
 11 14  1  0
 12 13  1  0
 14 15  1  0
 15 16  1  0
 16 18  1  0
 16 17  2  0
 18 23  1  6
 18 19  1  0
 18 24  1  0
 19 20  1  0
 19 22  1  1
 20 21  1  6
M  END
>  <id>  (142) 
789

>  <scaffolds>  (142) 
['O=C1CCCCC(=O)OC2CCN3CC=C(CO1)C23', 'C=C1CCCC(=O)OCC2=CCN3CCC(OC1=O)C23', 'C1CCNC1']

>  <name>  (142) 
Senecivernine

>  <formula>  (142) 
C18H25NO5

>  <SMILES>  (142) 
C=C1C(=O)OC2CCN3C2C(=CC3)COC(=O)C(C(C1C)C)(C)O

>  <ChEMBL_id>  (142) 
CHEMBL3349185

>  <ZINC_id>  (142) 
ZINC56871325

>  <PubChem_id>  (142) 
442764

>  <DrugBank_id>  (142) 


>  <CAS_no>  (142) 
72755-25-0

>  <references>  (142) 
[{'journal': {'name': 'Phytochemistry', 'id': 10}, 'title': 'Diversity of pyrrolizidine alkaloids in native and invasive Senecio pterophorus (Asteraceae): Implications for toxicity', 'year': 2014, 'start_page': 137, 'volume': 108, 'issue': None, 'doi': '10.1016/j.phytochem.2014.09.006', 'isbn': '', 'despositor': {'code': 'AMU', 'first_name': 'Arnold', 'last_name': 'Amusengeri', 'id': 25}, 'refauthors_set': [{'author': {'first_name': 'Eva', 'initials': 'E', 'last_name': 'Castells', 'id': 929}, 'first_author': True, 'id': 1511}, {'author': {'first_name': 'Patrick', 'initials': 'PJ', 'last_name': 'Mulder', 'id': 930}, 'first_author': None, 'id': 1512}, {'author': {'first_name': 'Míriam', 'initials': 'M', 'last_name': 'Pérez-Trujillo', 'id': 931}, 'first_author': None, 'id': 1513}], 'id': 426}]

>  <classifications>  (142) 
[{'classification': 'Pyrrolizidine alkaloid', 'id': 875}, {'classification': 'Macrolides and analogues (Classyfire)', 'id': 945}]

>  <molecular_mass>  (142) 
335.39

>  <warheads>  (142) 
ab_unsat_carbonyl:1;exo_methylene_carbonyl:1

>  <n_warheads>  (142) 
2

>  <max_tier>  (142) 
1

>  <pains_flag>  (142) 


>  <MW>  (142) 
335.4

>  <cLogP>  (142) 
1.05

>  <HBD>  (142) 
1

>  <HBA>  (142) 
6

>  <TPSA>  (142) 
76.1

>  <ArRings>  (142) 
0

$$$$
SANC00793_minRM1.pdb
     RDKit          3D

 28 29  0  0  1  0  0  0  0  0999 V2000
   -5.5030    0.2290   -1.3180 C   0  0  0  0  0  0  0  0  0  0  0  0
   -5.0040   -0.5320   -0.1500 N   0  0  0  0  0  0  0  0  0  0  0  0
   -3.9370   -1.4940   -0.5040 C   0  0  0  0  0  0  0  0  0  0  0  0
   -2.5610   -0.9180   -0.8670 C   0  0  0  0  0  0  0  0  0  0  0  0
   -1.6000   -0.8770    0.3250 C   0  0  1  0  0  0  0  0  0  0  0  0
   -0.2770   -0.7610   -0.1800 O   0  0  0  0  0  0  0  0  0  0  0  0
    0.3460   -1.9010   -0.5600 C   0  0  0  0  0  0  0  0  0  0  0  0
   -0.2010   -2.9800   -0.4430 O   0  0  0  0  0  0  0  0  0  0  0  0
    1.7260   -1.7230   -1.2080 C   0  0  1  0  0  0  0  0  0  0  0  0
    1.6560   -2.3370   -2.4680 O   0  0  0  0  0  0  0  0  0  0  0  0
    2.1840   -0.2650   -1.4020 C   0  0  0  0  0  0  0  0  0  0  0  0
    2.3540    0.5990   -0.1490 C   0  0  2  0  0  0  0  0  0  0  0  0
    1.8830    2.0570   -0.4190 C   0  0  2  0  0  0  0  0  0  0  0  0
    0.3660    2.0900   -0.6350 C   0  0  0  0  0  0  0  0  0  0  0  0
   -0.2580    1.8390   -1.6470 O   0  0  0  0  0  0  0  0  0  0  0  0
   -0.2700    2.5190    0.4830 O   0  0  0  0  0  0  0  0  0  0  0  0
   -1.6550    2.7690    0.4380 C   0  0  0  0  0  0  0  0  0  0  0  0
   -2.4510    1.5320    0.7130 C   0  0  0  0  0  0  0  0  0  0  0  0
   -3.7760    1.5260    0.5870 C   0  0  0  0  0  0  0  0  0  0  0  0
   -4.6310    0.3570    0.9740 C   0  0  0  0  0  0  0  0  0  0  0  0
   -1.7140    0.3610    1.2220 C   0  0  0  0  0  0  0  0  0  0  0  0
   -1.1980    0.3580    2.3190 O   0  0  0  0  0  0  0  0  0  0  0  0
    2.5380    2.6950   -1.6500 C   0  0  0  0  0  0  0  0  0  0  0  0
    2.2110    2.9080    0.6330 O   0  0  0  0  0  0  0  0  0  0  0  0
    3.8170    0.6440    0.2880 C   0  0  0  0  0  0  0  0  0  0  0  0
    2.6710   -2.6660   -0.4420 C   0  0  2  0  0  0  0  0  0  0  0  0
    2.5400   -2.1500    1.3370 Cl  0  0  0  0  0  0  0  0  0  0  0  0
    4.1120   -2.6040   -0.8540 C   0  0  0  0  0  0  0  0  0  0  0  0
  1  2  1  0
  2  3  1  0
  2 20  1  0
  3  4  1  0
  5  4  1  6
  5  6  1  0
  5 21  1  0
  6  7  1  0
  7  9  1  0
  7  8  2  0
  9 10  1  6
  9 11  1  0
  9 26  1  0
 11 12  1  0
 12 13  1  0
 12 25  1  6
 13 23  1  6
 13 14  1  0
 13 24  1  0
 14 15  2  0
 14 16  1  0
 16 17  1  0
 17 18  1  0
 18 19  2  0
 18 21  1  0
 19 20  1  0
 21 22  2  0
 26 28  1  6
 26 27  1  0
M  END
>  <id>  (143) 
793

>  <scaffolds>  (143) 
['O=C1CCCCC(=O)OC2CCNCC=C(CO1)C2=O']

>  <name>  (143) 
Desacetyldoronine

>  <formula>  (143) 
C19H28ClNO7

>  <SMILES>  (143) 
CN1CCC2OC(=O)C(O)(CC(C(C(=O)OCC(=CC1)C2=O)(C)O)C)C(Cl)C

>  <ChEMBL_id>  (143) 


>  <ZINC_id>  (143) 


>  <PubChem_id>  (143) 
91746997

>  <DrugBank_id>  (143) 


>  <CAS_no>  (143) 
120481-77-8

>  <references>  (143) 
[{'journal': {'name': 'Phytochemistry', 'id': 10}, 'title': 'Diversity of pyrrolizidine alkaloids in native and invasive Senecio pterophorus (Asteraceae): Implications for toxicity', 'year': 2014, 'start_page': 137, 'volume': 108, 'issue': None, 'doi': '10.1016/j.phytochem.2014.09.006', 'isbn': '', 'despositor': {'code': 'AMU', 'first_name': 'Arnold', 'last_name': 'Amusengeri', 'id': 25}, 'refauthors_set': [{'author': {'first_name': 'Eva', 'initials': 'E', 'last_name': 'Castells', 'id': 929}, 'first_author': True, 'id': 1511}, {'author': {'first_name': 'Patrick', 'initials': 'PJ', 'last_name': 'Mulder', 'id': 930}, 'first_author': None, 'id': 1512}, {'author': {'first_name': 'Míriam', 'initials': 'M', 'last_name': 'Pérez-Trujillo', 'id': 931}, 'first_author': None, 'id': 1513}], 'id': 426}]

>  <classifications>  (143) 
[{'classification': 'Pyrrolizidine alkaloid', 'id': 875}, {'classification': 'Macrolides and analogues (Classyfire)', 'id': 945}]

>  <molecular_mass>  (143) 
417.88

>  <warheads>  (143) 
ab_unsat_carbonyl:1

>  <n_warheads>  (143) 
1

>  <max_tier>  (143) 
1

>  <pains_flag>  (143) 


>  <MW>  (143) 
417.9

>  <cLogP>  (143) 
0.42

>  <HBD>  (143) 
2

>  <HBA>  (143) 
8

>  <TPSA>  (143) 
113.4

>  <ArRings>  (143) 
0

$$$$
SANC00796_minRM1.pdb
     RDKit          3D

 26 27  0  0  1  0  0  0  0  0999 V2000
    4.5890   -2.4720    0.1170 C   0  0  0  0  0  0  0  0  0  0  0  0
    3.1340   -2.6470    0.3350 C   0  0  0  0  0  0  0  0  0  0  0  0
    2.2170   -1.7940   -0.1460 C   0  0  0  0  0  0  0  0  0  0  0  0
    2.5730   -0.6000   -0.9670 C   0  0  0  0  0  0  0  0  0  0  0  0
    3.2690    0.5140   -0.1710 C   0  0  1  0  0  0  0  0  0  0  0  0
    4.0060    1.4230   -1.1530 C   0  0  0  0  0  0  0  0  0  0  0  0
    2.2890    1.3020    0.7360 C   0  0  1  0  0  0  0  0  0  0  0  0
    1.7190    0.4090    1.8470 C   0  0  0  0  0  0  0  0  0  0  0  0
    3.0410    2.3410    1.2870 O   0  0  0  0  0  0  0  0  0  0  0  0
    1.1460    1.9350   -0.0710 C   0  0  0  0  0  0  0  0  0  0  0  0
    1.1090    2.1960   -1.2530 O   0  0  0  0  0  0  0  0  0  0  0  0
    0.1130    2.2910    0.7440 O   0  0  0  0  0  0  0  0  0  0  0  0
   -1.1400    2.6210    0.1850 C   0  0  0  0  0  0  0  0  0  0  0  0
   -2.0270    1.3660    0.2490 C   0  0  2  0  0  0  0  0  0  0  0  0
   -1.5180    0.3240   -0.7170 C   0  0  0  0  0  0  0  0  0  0  0  0
   -1.2930    0.5880   -1.8790 O   0  0  0  0  0  0  0  0  0  0  0  0
   -1.3480   -1.1080   -0.1970 C   0  0  2  0  0  0  0  0  0  0  0  0
   -0.0730   -1.4630   -0.6990 O   0  0  0  0  0  0  0  0  0  0  0  0
    0.8010   -2.0940    0.1350 C   0  0  0  0  0  0  0  0  0  0  0  0
    0.3720   -2.8390    1.0010 O   0  0  0  0  0  0  0  0  0  0  0  0
   -2.4140   -2.0050   -0.8350 C   0  0  0  0  0  0  0  0  0  0  0  0
   -3.7410   -1.9580   -0.0610 C   0  0  0  0  0  0  0  0  0  0  0  0
   -3.9920   -0.6080    0.5130 N   0  0  0  0  0  0  0  0  0  0  0  0
   -5.0740   -0.6480    1.5250 C   0  0  0  0  0  0  0  0  0  0  0  0
   -4.2640    0.4330   -0.5170 C   0  0  0  0  0  0  0  0  0  0  0  0
   -3.4690    1.6990   -0.1470 C   0  0  0  0  0  0  0  0  0  0  0  0
  1  2  1  0
  2  3  2  0
  3  4  1  0
  3 19  1  0
  4  5  1  0
  5  6  1  6
  5  7  1  0
  7 10  1  0
  7  9  1  0
  7  8  1  1
 10 11  2  0
 10 12  1  0
 12 13  1  0
 14 13  1  6
 14 15  1  0
 14 26  1  0
 15 16  2  0
 15 17  1  0
 17 21  1  6
 17 18  1  0
 18 19  1  0
 19 20  2  0
 21 22  1  0
 22 23  1  0
 23 25  1  0
 23 24  1  0
 25 26  1  0
M  END
>  <id>  (144) 
796

>  <scaffolds>  (144) 
[]

>  <name>  (144) 
1,2-Dihydrosenkirkine

>  <formula>  (144) 
C19H29NO6

>  <SMILES>  (144) 
CC=C1C[C@@H](C)[C@@](C)(O)C(=O)OC[C@@H]2C(=O)[C@H](OC1=O)CCN(C)CC2

>  <ChEMBL_id>  (144) 


>  <ZINC_id>  (144) 


>  <PubChem_id>  (144) 


>  <DrugBank_id>  (144) 


>  <CAS_no>  (144) 
135574-55-9

>  <references>  (144) 
[{'journal': {'name': 'Phytochemistry', 'id': 10}, 'title': 'Diversity of pyrrolizidine alkaloids in native and invasive Senecio pterophorus (Asteraceae): Implications for toxicity', 'year': 2014, 'start_page': 137, 'volume': 108, 'issue': None, 'doi': '10.1016/j.phytochem.2014.09.006', 'isbn': '', 'despositor': {'code': 'AMU', 'first_name': 'Arnold', 'last_name': 'Amusengeri', 'id': 25}, 'refauthors_set': [{'author': {'first_name': 'Eva', 'initials': 'E', 'last_name': 'Castells', 'id': 929}, 'first_author': True, 'id': 1511}, {'author': {'first_name': 'Patrick', 'initials': 'PJ', 'last_name': 'Mulder', 'id': 930}, 'first_author': None, 'id': 1512}, {'author': {'first_name': 'Míriam', 'initials': 'M', 'last_name': 'Pérez-Trujillo', 'id': 931}, 'first_author': None, 'id': 1513}], 'id': 426}]

>  <classifications>  (144) 
[{'classification': 'Pyrrolizidine alkaloid', 'id': 875}, {'classification': 'Macrolides and analogues (Classyfire)', 'id': 945}]

>  <molecular_mass>  (144) 
367.44

>  <warheads>  (144) 
ab_unsat_carbonyl:1

>  <n_warheads>  (144) 
1

>  <max_tier>  (144) 
1

>  <pains_flag>  (144) 


>  <MW>  (144) 
367.4

>  <cLogP>  (144) 
1.09

>  <HBD>  (144) 
1

>  <HBA>  (144) 
7

>  <TPSA>  (144) 
93.1

>  <ArRings>  (144) 
0

$$$$
SANC00797_minRM1.pdb
     RDKit          3D

 25 27  0  0  1  0  0  0  0  0999 V2000
    4.4630   -2.1980   -0.9260 O   0  0  0  0  0  0  0  0  0  0  0  0
    3.3410   -1.7960   -1.6510 C   0  0  0  0  0  0  0  0  0  0  0  0
    2.0920   -1.8960   -0.8240 C   0  0  0  0  0  0  0  0  0  0  0  0
    1.8430   -1.1380    0.2420 C   0  0  0  0  0  0  0  0  0  0  0  0
    2.7370   -0.0810    0.8170 C   0  0  0  0  0  0  0  0  0  0  0  0
    2.3160    1.3930    0.5840 C   0  0  1  0  0  0  0  0  0  0  0  0
    3.1610    2.0420   -0.5030 C   0  0  0  0  0  0  0  0  0  0  0  0
    0.8060    1.4810    0.2640 C   0  0  1  0  0  0  0  0  0  0  0  0
    0.5350    0.9790   -1.1610 C   0  0  0  0  0  0  0  0  0  0  0  0
    0.1110    0.7380    1.2230 O   0  0  0  0  0  0  0  0  0  0  0  0
    0.2070    2.8860    0.3340 C   0  0  0  0  0  0  0  0  0  0  0  0
    0.8280    3.9210    0.4580 O   0  0  0  0  0  0  0  0  0  0  0  0
   -1.1380    3.0530    0.1440 O   0  0  0  0  0  0  0  0  0  0  0  0
   -2.0750    2.1460    0.6780 C   0  0  0  0  0  0  0  0  0  0  0  0
   -2.3360    0.9510   -0.1690 C   0  0  0  0  0  0  0  0  0  0  0  0
   -2.4890    0.9540   -1.4980 C   0  0  0  0  0  0  0  0  0  0  0  0
   -2.9980   -0.3740   -1.9880 C   0  0  0  0  0  0  0  0  0  0  0  0
   -3.4330   -1.0890   -0.7440 N   0  0  0  0  0  0  0  0  0  0  0  0
   -2.7760   -0.3690    0.4090 C   0  0  1  0  0  0  0  0  0  0  0  0
   -1.7640   -1.3680    1.0410 C   0  0  2  0  0  0  0  0  0  0  0  0
   -0.5360   -1.3530    0.3400 O   0  0  0  0  0  0  0  0  0  0  0  0
    0.6240   -1.4170    1.0480 C   0  0  0  0  0  0  0  0  0  0  0  0
    0.6290   -1.7100    2.2320 O   0  0  0  0  0  0  0  0  0  0  0  0
   -2.4130   -2.7290    0.7250 C   0  0  0  0  0  0  0  0  0  0  0  0
   -3.0440   -2.5260   -0.6600 C   0  0  0  0  0  0  0  0  0  0  0  0
  1  2  1  0
  2  3  1  0
  3  4  2  0
  4  5  1  0
  4 22  1  0
  5  6  1  0
  6  7  1  6
  6  8  1  0
  8  9  1  6
  8 11  1  0
  8 10  1  0
 11 13  1  0
 11 12  2  0
 13 14  1  0
 14 15  1  0
 15 16  2  0
 15 19  1  0
 16 17  1  0
 18 17  1  0
 18 25  1  0
 19 18  1  6
 19 20  1  0
 20 21  1  0
 20 24  1  6
 21 22  1  0
 22 23  2  0
 24 25  1  0
M  END
>  <id>  (145) 
797

>  <scaffolds>  (145) 
['O=C1CCCCC(=O)OC2CCN3CC=C(CO1)C23', 'C=C1CCCC(=O)OCC2=CCN3CCC(OC1=O)C23', 'C1CCNC1']

>  <name>  (145) 
Eruciflorine

>  <formula>  (145) 
C18H25NO6

>  <SMILES>  (145) 
OCC=C1C[C@@H](C)[C@@](C)(O)C(=O)OCC2=CCN3[C@H]2[C@H](OC1=O)CC3

>  <ChEMBL_id>  (145) 


>  <ZINC_id>  (145) 


>  <PubChem_id>  (145) 
14825842

>  <DrugBank_id>  (145) 


>  <CAS_no>  (145) 
135626-66-3

>  <references>  (145) 
[{'journal': {'name': 'Phytochemistry', 'id': 10}, 'title': 'Diversity of pyrrolizidine alkaloids in native and invasive Senecio pterophorus (Asteraceae): Implications for toxicity', 'year': 2014, 'start_page': 137, 'volume': 108, 'issue': None, 'doi': '10.1016/j.phytochem.2014.09.006', 'isbn': '', 'despositor': {'code': 'AMU', 'first_name': 'Arnold', 'last_name': 'Amusengeri', 'id': 25}, 'refauthors_set': [{'author': {'first_name': 'Eva', 'initials': 'E', 'last_name': 'Castells', 'id': 929}, 'first_author': True, 'id': 1511}, {'author': {'first_name': 'Patrick', 'initials': 'PJ', 'last_name': 'Mulder', 'id': 930}, 'first_author': None, 'id': 1512}, {'author': {'first_name': 'Míriam', 'initials': 'M', 'last_name': 'Pérez-Trujillo', 'id': 931}, 'first_author': None, 'id': 1513}], 'id': 426}]

>  <classifications>  (145) 
[{'classification': 'Pyrrolizidine alkaloid', 'id': 875}, {'classification': 'Macrolides and analogues (Classyfire)', 'id': 945}]

>  <molecular_mass>  (145) 
351.39

>  <warheads>  (145) 
ab_unsat_carbonyl:1

>  <n_warheads>  (145) 
1

>  <max_tier>  (145) 
1

>  <pains_flag>  (145) 


>  <MW>  (145) 
351.4

>  <cLogP>  (145) 
0.17

>  <HBD>  (145) 
2

>  <HBA>  (145) 
7

>  <TPSA>  (145) 
96.3

>  <ArRings>  (145) 
0

$$$$
SANC00799_minRM1.pdb
     RDKit          3D

 27 29  0  0  1  0  0  0  0  0999 V2000
    0.1930    4.5300   -1.0870 C   0  0  0  0  0  0  0  0  0  0  0  0
   -0.7980    3.4510   -0.8580 C   0  0  0  0  0  0  0  0  0  0  0  0
   -0.5480    2.3640   -0.1220 C   0  0  0  0  0  0  0  0  0  0  0  0
   -1.5690    1.3030    0.1250 C   0  0  0  0  0  0  0  0  0  0  0  0
   -1.5960    0.2570   -0.9440 C   0  0  0  0  0  0  0  0  0  0  0  0
   -1.1220    0.4620   -2.1680 C   0  0  0  0  0  0  0  0  0  0  0  0
   -2.1600   -1.0900   -0.5690 C   0  0  2  0  0  0  0  0  0  0  0  0
   -2.9200   -1.7700   -1.7100 C   0  0  0  0  0  0  0  0  0  0  0  0
   -2.9660   -1.0580    0.5910 O   0  0  0  0  0  0  0  0  0  0  0  0
   -4.1380   -0.3710    0.5830 C   0  0  0  0  0  0  0  0  0  0  0  0
   -4.5100    0.2500   -0.3920 O   0  0  0  0  0  0  0  0  0  0  0  0
   -4.8360   -0.5070    1.8980 C   0  0  0  0  0  0  0  0  0  0  0  0
   -0.9850   -1.9710   -0.1250 C   0  0  0  0  0  0  0  0  0  0  0  0
   -0.5760   -2.9690   -0.6860 O   0  0  0  0  0  0  0  0  0  0  0  0
   -0.4250   -1.5230    1.0190 O   0  0  0  0  0  0  0  0  0  0  0  0
    0.7370   -2.1790    1.4870 C   0  0  0  0  0  0  0  0  0  0  0  0
    1.8890   -1.9430    0.5860 C   0  0  0  0  0  0  0  0  0  0  0  0
    2.3290   -2.7270   -0.4120 C   0  0  0  0  0  0  0  0  0  0  0  0
    3.5410   -2.1160   -1.0950 C   0  0  0  0  0  0  0  0  0  0  0  0
    3.4020   -0.7200   -0.6340 N   0  0  0  0  0  0  0  0  0  0  0  0
    2.8380   -0.7910    0.7460 C   0  0  1  0  0  0  0  0  0  0  0  0
    2.5140    0.6890    0.9940 C   0  0  2  0  0  0  0  0  0  0  0  0
    1.2690    0.9500    0.3870 O   0  0  0  0  0  0  0  0  0  0  0  0
    0.7600    2.1980    0.5330 C   0  0  0  0  0  0  0  0  0  0  0  0
    1.3680    3.0490    1.1640 O   0  0  0  0  0  0  0  0  0  0  0  0
    3.6850    1.4100    0.2560 C   0  0  0  0  0  0  0  0  0  0  0  0
    4.4070    0.3430   -0.6160 C   0  0  0  0  0  0  0  0  0  0  0  0
  1  2  1  0
  2  3  2  0
  3  4  1  0
  3 24  1  0
  4  5  1  0
  5  6  2  0
  5  7  1  0
  7  8  1  6
  7 13  1  0
  7  9  1  0
  9 10  1  0
 10 11  2  0
 10 12  1  0
 13 14  2  0
 13 15  1  0
 15 16  1  0
 16 17  1  0
 17 18  2  0
 17 21  1  0
 18 19  1  0
 20 19  1  0
 20 27  1  0
 21 20  1  6
 21 22  1  0
 22 26  1  6
 22 23  1  0
 23 24  1  0
 24 25  2  0
 26 27  1  0
M  END
>  <id>  (146) 
799

>  <scaffolds>  (146) 
['O=C1CCCCC(=O)OC2CCN3CC=C(CO1)C23', 'C=C1CCCC(=O)OCC2=CCN3CCC(OC1=O)C23', 'C1CCNC1']

>  <name>  (146) 
Acetylspartioidine

>  <formula>  (146) 
C20H25NO6

>  <SMILES>  (146) 
CC=C1CC(=C)[C@](C)(OC(=O)C)C(=O)OCC2=CCN3[C@H]2[C@H](OC1=O)CC3

>  <ChEMBL_id>  (146) 


>  <ZINC_id>  (146) 


>  <PubChem_id>  (146) 
91753680

>  <DrugBank_id>  (146) 


>  <CAS_no>  (146) 
173142-98-8

>  <references>  (146) 
[{'journal': {'name': 'Phytochemistry', 'id': 10}, 'title': 'Diversity of pyrrolizidine alkaloids in native and invasive Senecio pterophorus (Asteraceae): Implications for toxicity', 'year': 2014, 'start_page': 137, 'volume': 108, 'issue': None, 'doi': '10.1016/j.phytochem.2014.09.006', 'isbn': '', 'despositor': {'code': 'AMU', 'first_name': 'Arnold', 'last_name': 'Amusengeri', 'id': 25}, 'refauthors_set': [{'author': {'first_name': 'Eva', 'initials': 'E', 'last_name': 'Castells', 'id': 929}, 'first_author': True, 'id': 1511}, {'author': {'first_name': 'Patrick', 'initials': 'PJ', 'last_name': 'Mulder', 'id': 930}, 'first_author': None, 'id': 1512}, {'author': {'first_name': 'Míriam', 'initials': 'M', 'last_name': 'Pérez-Trujillo', 'id': 931}, 'first_author': None, 'id': 1513}], 'id': 426}]

>  <classifications>  (146) 
[{'classification': 'Pyrrolizidine alkaloid', 'id': 875}]

>  <molecular_mass>  (146) 
375.41

>  <warheads>  (146) 
ab_unsat_carbonyl:1

>  <n_warheads>  (146) 
1

>  <max_tier>  (146) 
1

>  <pains_flag>  (146) 


>  <MW>  (146) 
375.4

>  <cLogP>  (146) 
1.68

>  <HBD>  (146) 
0

>  <HBA>  (146) 
7

>  <TPSA>  (146) 
82.1

>  <ArRings>  (146) 
0

$$$$
SANC00807_minRM1.pdb
     RDKit          3D

 39 42  0  0  1  0  0  0  0  0999 V2000
   -4.8150    2.1340   -2.0400 C   0  0  0  0  0  0  0  0  0  0  0  0
   -4.0460    1.0330   -1.6110 O   0  0  0  0  0  0  0  0  0  0  0  0
   -4.7160   -0.0280   -1.0910 C   0  0  0  0  0  0  0  0  0  0  0  0
   -5.9330   -0.0650   -1.1440 O   0  0  0  0  0  0  0  0  0  0  0  0
   -3.8010   -1.1070   -0.5800 C   0  0  0  0  0  0  0  0  0  0  0  0
   -2.7710   -0.6250    0.4450 C   0  0  2  0  0  0  0  0  0  0  0  0
   -1.5310   -1.5590    0.4230 C   0  0  2  0  0  0  0  0  0  0  0  0
   -1.9230   -3.0460    0.4310 C   0  0  0  0  0  0  0  0  0  0  0  0
   -0.6700   -1.3630    1.6280 C   0  0  0  0  0  0  0  0  0  0  0  0
   -1.0020   -0.6150    2.6750 C   0  0  0  0  0  0  0  0  0  0  0  0
   -2.2740    0.1240    2.7340 C   0  0  0  0  0  0  0  0  0  0  0  0
   -2.4200    1.0670    3.4870 O   0  0  0  0  0  0  0  0  0  0  0  0
   -3.3830   -0.4140    1.8430 C   0  0  0  0  0  0  0  0  0  0  0  0
   -3.9080   -1.6690    2.5300 C   0  0  0  0  0  0  0  0  0  0  0  0
   -4.5300    0.5960    1.7680 C   0  0  0  0  0  0  0  0  0  0  0  0
   -0.7270   -1.2960   -0.8850 C   0  0  1  0  0  0  0  0  0  0  0  0
   -0.0210    0.0680   -1.0700 C   0  0  1  0  0  0  0  0  0  0  0  0
   -0.9380    1.0800   -0.7460 O   0  0  0  0  0  0  0  0  0  0  0  0
   -0.9340    2.2600   -1.4430 C   0  0  0  0  0  0  0  0  0  0  0  0
   -1.4670    3.1740   -0.8430 O   0  0  0  0  0  0  0  0  0  0  0  0
   -0.3880    2.3560   -2.8310 C   0  0  0  0  0  0  0  0  0  0  0  0
    1.2210    0.2760   -0.1600 C   0  0  2  0  0  0  0  0  0  0  0  0
    1.6720    1.5640   -0.5310 O   0  0  0  0  0  0  0  0  0  0  0  0
    2.2030    2.3950    0.4060 C   0  0  0  0  0  0  0  0  0  0  0  0
    2.4290    2.0090    1.5350 O   0  0  0  0  0  0  0  0  0  0  0  0
    2.4450    3.7570   -0.1580 C   0  0  0  0  0  0  0  0  0  0  0  0
    2.2780   -0.7880   -0.5120 C   0  0  2  0  0  0  0  0  0  0  0  0
    1.6050   -2.1350   -0.4530 C   0  0  0  0  0  0  0  0  0  0  0  0
    2.3260   -3.0410    0.2140 C   0  0  0  0  0  0  0  0  0  0  0  0
    3.5800   -2.4450    0.7650 C   0  0  0  0  0  0  0  0  0  0  0  0
    3.4100   -0.9210    0.5490 C   0  0  1  0  0  0  0  0  0  0  0  0
    4.6910   -0.2850    0.1920 C   0  0  0  0  0  0  0  0  0  0  0  0
    5.2340    0.8280    0.7900 C   0  0  0  0  0  0  0  0  0  0  0  0
    6.4510    1.1230    0.2370 O   0  0  0  0  0  0  0  0  0  0  0  0
    6.6930    0.1730   -0.7210 C   0  0  0  0  0  0  0  0  0  0  0  0
    5.6520   -0.7160   -0.7900 C   0  0  0  0  0  0  0  0  0  0  0  0
    0.3260   -2.3450   -1.1000 C   0  0  0  0  0  0  0  0  0  0  0  0
    0.1220   -3.4190   -1.8620 C   0  0  0  0  0  0  0  0  0  0  0  0
    2.8120   -0.5760   -1.9220 C   0  0  0  0  0  0  0  0  0  0  0  0
  1  2  1  0
  2  3  1  0
  3  4  2  0
  3  5  1  0
  6  5  1  6
  6  7  1  0
  6 13  1  0
  7 16  1  0
  7  8  1  6
  7  9  1  0
  9 10  2  0
 10 11  1  0
 11 13  1  0
 11 12  2  0
 13 15  1  0
 13 14  1  0
 16 37  1  1
 16 17  1  0
 17 18  1  1
 17 22  1  0
 18 19  1  0
 19 21  1  0
 19 20  2  0
 22 23  1  6
 22 27  1  0
 23 24  1  0
 24 26  1  0
 24 25  2  0
 27 39  1  6
 27 28  1  0
 27 31  1  0
 28 37  1  0
 28 29  2  0
 29 30  1  0
 30 31  1  0
 31 32  1  6
 32 36  1  0
 32 33  2  0
 33 34  1  0
 34 35  1  0
 35 36  2  0
 37 38  2  0
M  END
>  <id>  (147) 
807

>  <scaffolds>  (147) 
['C1=CCCCC1', 'C=C1C2=CCC(c3ccoc3)C2CCC1C1C=CC(=O)CC1', 'c1ccoc1', 'C1CCCCC1', 'O=C1C=CCCC1']

>  <name>  (147) 
Turraflorin A

>  <formula>  (147) 
C31H38O8

>  <SMILES>  (147) 
COC(=O)C[C@@H]1[C@](C)(C=CC(=O)C1(C)C)[C@H]1[C@@H](OC(=O)C)[C@H](OC(=O)C)[C@@]2(C(=CC[C@H]2c2cocc2)C1=C)C

>  <ChEMBL_id>  (147) 


>  <ZINC_id>  (147) 


>  <PubChem_id>  (147) 
12150033

>  <DrugBank_id>  (147) 


>  <CAS_no>  (147) 
154974-37-5

>  <references>  (147) 
[{'journal': {'name': 'Phytochemistry', 'id': 10}, 'title': 'Limonoids from Turraea floribunda (Meliaceae)', 'year': 2004, 'start_page': 2031, 'volume': 65, 'issue': None, 'doi': '10.1016/j.phytochem.2004.06.019', 'isbn': '', 'despositor': {'code': 'AMU', 'first_name': 'Arnold', 'last_name': 'Amusengeri', 'id': 25}, 'refauthors_set': [{'author': {'first_name': 'Kathryn', 'initials': 'K', 'last_name': 'McFarland', 'id': 936}, 'first_author': True, 'id': 1519}, {'author': {'first_name': 'Dulcie', 'initials': 'DA', 'last_name': 'Mulholland', 'id': 525}, 'first_author': None, 'id': 1520}, {'author': {'first_name': 'Leigh-Anne', 'initials': 'L', 'last_name': 'Fraser', 'id': 937}, 'first_author': None, 'id': 1521}], 'id': 429}]

>  <classifications>  (147) 
[{'classification': 'Limonoids', 'id': 877}, {'classification': 'Carboxylic acids and derivatives (Classyfire)', 'id': 950}]

>  <molecular_mass>  (147) 
538.63

>  <warheads>  (147) 
ab_unsat_carbonyl:1

>  <n_warheads>  (147) 
1

>  <max_tier>  (147) 
1

>  <pains_flag>  (147) 


>  <MW>  (147) 
538.6

>  <cLogP>  (147) 
5.1

>  <HBD>  (147) 
0

>  <HBA>  (147) 
8

>  <TPSA>  (147) 
109.1

>  <ArRings>  (147) 
1

$$$$
SANC00808_minRM1.pdb
     RDKit          3D

 36 39  0  0  1  0  0  0  0  0999 V2000
   -6.0570    3.0780    1.5510 C   0  0  0  0  0  0  0  0  0  0  0  0
   -5.1070    2.7500    0.5640 O   0  0  0  0  0  0  0  0  0  0  0  0
   -4.1510    1.8420    0.8930 C   0  0  0  0  0  0  0  0  0  0  0  0
   -4.1300    1.3590    2.0110 O   0  0  0  0  0  0  0  0  0  0  0  0
   -3.1790    1.6130   -0.2280 C   0  0  0  0  0  0  0  0  0  0  0  0
   -2.7630    0.1400   -0.3230 C   0  0  2  0  0  0  0  0  0  0  0  0
   -1.2540   -0.0030   -0.6980 C   0  0  2  0  0  0  0  0  0  0  0  0
   -0.8180    1.0760   -1.6960 C   0  0  0  0  0  0  0  0  0  0  0  0
   -0.9790   -1.3030   -1.3930 C   0  0  0  0  0  0  0  0  0  0  0  0
   -1.8820   -2.2460   -1.6440 C   0  0  0  0  0  0  0  0  0  0  0  0
   -3.2890   -2.0650   -1.2730 C   0  0  0  0  0  0  0  0  0  0  0  0
   -4.0260   -3.0020   -1.0340 O   0  0  0  0  0  0  0  0  0  0  0  0
   -3.7350   -0.6140   -1.2500 C   0  0  0  0  0  0  0  0  0  0  0  0
   -5.1630   -0.5120   -0.7150 C   0  0  0  0  0  0  0  0  0  0  0  0
   -3.7100   -0.0990   -2.6850 C   0  0  0  0  0  0  0  0  0  0  0  0
   -0.4640    0.0830    0.6520 C   0  0  1  0  0  0  0  0  0  0  0  0
    0.6590   -0.9470    0.9170 C   0  0  1  0  0  0  0  0  0  0  0  0
    0.0950   -2.2220    0.7160 O   0  0  0  0  0  0  0  0  0  0  0  0
    0.6170   -3.2930    1.3710 C   0  0  0  0  0  0  0  0  0  0  0  0
    1.5000   -3.1560    2.1970 O   0  0  0  0  0  0  0  0  0  0  0  0
   -0.0390   -4.5670    0.9490 C   0  0  0  0  0  0  0  0  0  0  0  0
    1.8650   -0.7640   -0.0370 C   0  0  2  0  0  0  0  0  0  0  0  0
    2.7570   -1.8220    0.0550 O   0  0  0  0  0  0  0  0  0  0  0  0
    2.5040    0.6030    0.2600 C   0  0  2  0  0  0  0  0  0  0  0  0
    1.4360    1.6640    0.2140 C   0  0  0  0  0  0  0  0  0  0  0  0
    1.8470    2.7570   -0.4350 C   0  0  0  0  0  0  0  0  0  0  0  0
    3.2330    2.5810   -0.9730 C   0  0  0  0  0  0  0  0  0  0  0  0
    3.4900    1.0630   -0.8510 C   0  0  1  0  0  0  0  0  0  0  0  0
    4.8900    0.7000   -0.5740 C   0  0  0  0  0  0  0  0  0  0  0  0
    5.4550   -0.5310   -0.8160 C   0  0  0  0  0  0  0  0  0  0  0  0
    6.7730   -0.5320   -0.4480 O   0  0  0  0  0  0  0  0  0  0  0  0
    7.0500    0.7190    0.0390 C   0  0  0  0  0  0  0  0  0  0  0  0
    5.9340    1.5140   -0.0120 C   0  0  0  0  0  0  0  0  0  0  0  0
    0.1640    1.4320    0.8700 C   0  0  0  0  0  0  0  0  0  0  0  0
   -0.3700    2.3570    1.6660 C   0  0  0  0  0  0  0  0  0  0  0  0
    3.1530    0.6440    1.6360 C   0  0  0  0  0  0  0  0  0  0  0  0
  1  2  1  0
  2  3  1  0
  3  5  1  0
  3  4  2  0
  6  5  1  6
  6 13  1  0
  6  7  1  0
  7  8  1  6
  7  9  1  0
  7 16  1  0
  9 10  2  0
 10 11  1  0
 11 13  1  0
 11 12  2  0
 13 15  1  0
 13 14  1  0
 16 34  1  6
 16 17  1  0
 17 22  1  0
 17 18  1  6
 18 19  1  0
 19 21  1  0
 19 20  2  0
 22 23  1  1
 22 24  1  0
 24 28  1  0
 24 25  1  0
 24 36  1  1
 25 26  2  0
 25 34  1  0
 26 27  1  0
 27 28  1  0
 28 29  1  1
 29 30  2  0
 29 33  1  0
 30 31  1  0
 31 32  1  0
 32 33  2  0
 34 35  2  0
M  END
>  <id>  (148) 
808

>  <scaffolds>  (148) 
['C1=CCCCC1', 'C=C1C2=CCC(c3ccoc3)C2CCC1C1C=CC(=O)CC1', 'c1ccoc1', 'C1CCCCC1', 'O=C1C=CCCC1']

>  <name>  (148) 
Turraflorin B

>  <formula>  (148) 
C29H36O7

>  <SMILES>  (148) 
COC(=O)C[C@@H]1[C@](C)(C=CC(=O)C1(C)C)[C@H]1[C@@H](OC(=O)C)[C@H](O)[C@@]2(C(=CC[C@H]2c2cocc2)C1=C)C

>  <ChEMBL_id>  (148) 


>  <ZINC_id>  (148) 


>  <PubChem_id>  (148) 


>  <DrugBank_id>  (148) 


>  <CAS_no>  (148) 
154974-38-6

>  <references>  (148) 
[{'journal': {'name': 'Phytochemistry', 'id': 10}, 'title': 'Limonoids from Turraea floribunda (Meliaceae)', 'year': 2004, 'start_page': 2031, 'volume': 65, 'issue': None, 'doi': '10.1016/j.phytochem.2004.06.019', 'isbn': '', 'despositor': {'code': 'AMU', 'first_name': 'Arnold', 'last_name': 'Amusengeri', 'id': 25}, 'refauthors_set': [{'author': {'first_name': 'Kathryn', 'initials': 'K', 'last_name': 'McFarland', 'id': 936}, 'first_author': True, 'id': 1519}, {'author': {'first_name': 'Dulcie', 'initials': 'DA', 'last_name': 'Mulholland', 'id': 525}, 'first_author': None, 'id': 1520}, {'author': {'first_name': 'Leigh-Anne', 'initials': 'L', 'last_name': 'Fraser', 'id': 937}, 'first_author': None, 'id': 1521}], 'id': 429}]

>  <classifications>  (148) 
[{'classification': 'Limonoids', 'id': 877}, {'classification': 'Organooxygen compounds (Classyfire)', 'id': 954}]

>  <molecular_mass>  (148) 
496.59

>  <warheads>  (148) 
ab_unsat_carbonyl:1

>  <n_warheads>  (148) 
1

>  <max_tier>  (148) 
1

>  <pains_flag>  (148) 


>  <MW>  (148) 
496.6

>  <cLogP>  (148) 
4.53

>  <HBD>  (148) 
1

>  <HBA>  (148) 
7

>  <TPSA>  (148) 
103.0

>  <ArRings>  (148) 
1

$$$$
SANC00809_minRM1.pdb
     RDKit          3D

 41 44  0  0  1  0  0  0  0  0999 V2000
   -4.6260   -4.0920   -0.8330 C   0  0  0  0  0  0  0  0  0  0  0  0
   -3.8470   -2.9780   -0.4610 O   0  0  0  0  0  0  0  0  0  0  0  0
   -4.1760   -2.3430    0.6940 C   0  0  0  0  0  0  0  0  0  0  0  0
   -5.0990   -2.7530    1.3760 O   0  0  0  0  0  0  0  0  0  0  0  0
   -3.2410   -1.2090    1.0060 C   0  0  0  0  0  0  0  0  0  0  0  0
   -3.2630   -0.1070   -0.0520 C   0  0  2  0  0  0  0  0  0  0  0  0
   -2.1310    0.9620    0.1510 C   0  0  2  0  0  0  0  0  0  0  0  0
   -2.4580    1.9920    1.2330 C   0  0  0  0  0  0  0  0  0  0  0  0
   -2.1530    1.7120   -1.1600 C   0  0  0  0  0  0  0  0  0  0  0  0
   -3.3090    2.1590   -1.6430 C   0  0  0  0  0  0  0  0  0  0  0  0
   -4.5480    1.9060   -0.8880 C   0  0  0  0  0  0  0  0  0  0  0  0
   -5.4530    2.7200   -0.8650 O   0  0  0  0  0  0  0  0  0  0  0  0
   -4.6560    0.5530   -0.1930 C   0  0  0  0  0  0  0  0  0  0  0  0
   -5.3880    0.7230    1.1360 C   0  0  0  0  0  0  0  0  0  0  0  0
   -5.5530   -0.2590   -1.1380 C   0  0  0  0  0  0  0  0  0  0  0  0
   -0.7630    0.2690    0.4160 C   0  0  1  0  0  0  0  0  0  0  0  0
    0.4300    0.9900   -0.2690 C   0  0  1  0  0  0  0  0  0  0  0  0
    0.5070    2.2370    0.3970 O   0  0  0  0  0  0  0  0  0  0  0  0
    1.1650    3.2630   -0.2030 C   0  0  0  0  0  0  0  0  0  0  0  0
    1.7400    3.1000   -1.2630 O   0  0  0  0  0  0  0  0  0  0  0  0
    1.0710    4.5170    0.6030 C   0  0  0  0  0  0  0  0  0  0  0  0
    1.8050    0.2740   -0.1160 C   0  0  2  0  0  0  0  0  0  0  0  0
    2.3760   -0.1690   -1.3200 O   0  0  0  0  0  0  0  0  0  0  0  0
    1.7050   -0.8880   -2.2570 C   0  0  0  0  0  0  0  0  0  0  0  0
    0.5160   -1.1210   -2.1600 O   0  0  0  0  0  0  0  0  0  0  0  0
    2.6170   -1.2890   -3.3710 C   0  0  0  0  0  0  0  0  0  0  0  0
    1.8140   -0.8290    0.9580 C   0  0  2  0  0  0  0  0  0  0  0  0
    1.0050   -0.2430    2.0800 C   0  0  0  0  0  0  0  0  0  0  0  0
    1.7440    0.0340    3.1580 C   0  0  0  0  0  0  0  0  0  0  0  0
    3.1820   -0.3190    2.9580 C   0  0  0  0  0  0  0  0  0  0  0  0
    3.2230   -1.0550    1.6010 C   0  0  2  0  0  0  0  0  0  0  0  0
    4.3360   -0.6380    0.7270 C   0  0  0  0  0  0  0  0  0  0  0  0
    5.0720    0.4750    0.6780 C   0  0  0  0  0  0  0  0  0  0  0  0
    6.0480    0.3710   -0.4900 C   0  0  1  0  0  0  0  0  0  0  0  0
    5.8240   -0.9180   -1.0540 O   0  0  0  0  0  0  0  0  0  0  0  0
    4.8100   -1.5360   -0.3660 C   0  0  0  0  0  0  0  0  0  0  0  0
    4.4800   -2.6480   -0.7020 O   0  0  0  0  0  0  0  0  0  0  0  0
    5.8030    1.2900   -1.4840 O   0  0  0  0  0  0  0  0  0  0  0  0
   -0.4050    0.0310    1.8600 C   0  0  0  0  0  0  0  0  0  0  0  0
   -1.2220   -0.0070    2.9120 C   0  0  0  0  0  0  0  0  0  0  0  0
    1.2530   -2.1620    0.4960 C   0  0  0  0  0  0  0  0  0  0  0  0
  1  2  1  0
  2  3  1  0
  3  5  1  0
  3  4  2  0
  6  5  1  1
  6 13  1  0
  6  7  1  0
  7  9  1  0
  7 16  1  0
  7  8  1  1
  9 10  2  0
 10 11  1  0
 11 12  2  0
 11 13  1  0
 13 15  1  0
 13 14  1  0
 16 17  1  0
 16 39  1  1
 17 22  1  0
 17 18  1  1
 18 19  1  0
 19 20  2  0
 19 21  1  0
 22 23  1  6
 22 27  1  0
 23 24  1  0
 24 26  1  0
 24 25  2  0
 27 41  1  6
 27 31  1  0
 27 28  1  0
 28 39  1  0
 28 29  2  0
 29 30  1  0
 30 31  1  0
 31 32  1  6
 32 36  1  0
 32 33  2  0
 33 34  1  0
 34 38  1  6
 34 35  1  0
 35 36  1  0
 36 37  2  0
 39 40  2  0
M  END
>  <id>  (149) 
809

>  <scaffolds>  (149) 
['C1=CCCCC1', 'C1CCCCC1', 'O=C1C=CCCC1']

>  <name>  (149) 
Turraflorin D

>  <formula>  (149) 
C31H38O10

>  <SMILES>  (149) 
COC(=O)C[C@@H]1[C@](C)(C=CC(=O)C1(C)C)[C@H]1[C@@H](OC(=O)C)[C@H](OC(=O)C)[C@@]2(C(=CC[C@@H]2C2=CC(OC2=O)O)C1=C)C

>  <ChEMBL_id>  (149) 


>  <ZINC_id>  (149) 


>  <PubChem_id>  (149) 


>  <DrugBank_id>  (149) 


>  <CAS_no>  (149) 
760996-56-3

>  <references>  (149) 
[{'journal': {'name': 'Phytochemistry', 'id': 10}, 'title': 'Limonoids from Turraea floribunda (Meliaceae)', 'year': 2004, 'start_page': 2031, 'volume': 65, 'issue': None, 'doi': '10.1016/j.phytochem.2004.06.019', 'isbn': '', 'despositor': {'code': 'AMU', 'first_name': 'Arnold', 'last_name': 'Amusengeri', 'id': 25}, 'refauthors_set': [{'author': {'first_name': 'Kathryn', 'initials': 'K', 'last_name': 'McFarland', 'id': 936}, 'first_author': True, 'id': 1519}, {'author': {'first_name': 'Dulcie', 'initials': 'DA', 'last_name': 'Mulholland', 'id': 525}, 'first_author': None, 'id': 1520}, {'author': {'first_name': 'Leigh-Anne', 'initials': 'L', 'last_name': 'Fraser', 'id': 937}, 'first_author': None, 'id': 1521}], 'id': 429}]

>  <classifications>  (149) 
[{'classification': 'Limonoids', 'id': 877}, {'classification': 'Carboxylic acids and derivatives (Classyfire)', 'id': 950}]

>  <molecular_mass>  (149) 
570.63

>  <warheads>  (149) 
ab_unsat_carbonyl:2

>  <n_warheads>  (149) 
2

>  <max_tier>  (149) 
1

>  <pains_flag>  (149) 


>  <MW>  (149) 
570.6

>  <cLogP>  (149) 
3.14

>  <HBD>  (149) 
1

>  <HBA>  (149) 
10

>  <TPSA>  (149) 
142.5

>  <ArRings>  (149) 
0

$$$$
SANC00810_minRM1.pdb
     RDKit          3D

 41 44  0  0  1  0  0  0  0  0999 V2000
    7.2740    1.2810    0.7360 C   0  0  0  0  0  0  0  0  0  0  0  0
    6.2540    0.7090   -0.0490 O   0  0  0  0  0  0  0  0  0  0  0  0
    4.9810    1.1480    0.1540 C   0  0  0  0  0  0  0  0  0  0  0  0
    4.7910    2.0420    0.9580 O   0  0  0  0  0  0  0  0  0  0  0  0
    4.0110    0.4790   -0.7780 C   0  0  0  0  0  0  0  0  0  0  0  0
    2.8640   -0.3190   -0.1440 C   0  0  2  0  0  0  0  0  0  0  0  0
    1.5800    0.5280    0.1050 C   0  0  2  0  0  0  0  0  0  0  0  0
    1.9040    1.8900    0.7250 C   0  0  0  0  0  0  0  0  0  0  0  0
    0.6650   -0.1320    1.0890 C   0  0  0  0  0  0  0  0  0  0  0  0
    0.8950   -1.2900    1.6970 C   0  0  0  0  0  0  0  0  0  0  0  0
    2.1130   -2.0530    1.4070 C   0  0  0  0  0  0  0  0  0  0  0  0
    2.1490   -3.2680    1.4610 O   0  0  0  0  0  0  0  0  0  0  0  0
    3.3180   -1.1970    1.0380 C   0  0  0  0  0  0  0  0  0  0  0  0
    4.4660   -2.1130    0.6110 C   0  0  0  0  0  0  0  0  0  0  0  0
    3.7180   -0.4510    2.3050 C   0  0  0  0  0  0  0  0  0  0  0  0
    0.8430    0.7180   -1.2660 C   0  0  1  0  0  0  0  0  0  0  0  0
   -0.3040   -0.2640   -1.6010 C   0  0  1  0  0  0  0  0  0  0  0  0
    0.0100   -1.5770   -1.1980 O   0  0  0  0  0  0  0  0  0  0  0  0
    0.7140   -2.3800   -2.0420 C   0  0  0  0  0  0  0  0  0  0  0  0
    1.1320   -1.9500   -3.1020 O   0  0  0  0  0  0  0  0  0  0  0  0
    0.8940   -3.7530   -1.4830 C   0  0  0  0  0  0  0  0  0  0  0  0
   -1.6530    0.0310   -0.8850 C   0  0  2  0  0  0  0  0  0  0  0  0
   -2.5730   -0.9100   -1.3920 O   0  0  0  0  0  0  0  0  0  0  0  0
   -2.8330   -2.0440   -0.6830 C   0  0  0  0  0  0  0  0  0  0  0  0
   -2.4890   -2.1560    0.4770 O   0  0  0  0  0  0  0  0  0  0  0  0
   -3.6010   -3.0270   -1.5060 C   0  0  0  0  0  0  0  0  0  0  0  0
   -2.1470    1.4250   -1.3020 C   0  0  2  0  0  0  0  0  0  0  0  0
   -1.0350    2.3840   -0.9820 C   0  0  0  0  0  0  0  0  0  0  0  0
   -1.4560    3.4520   -0.3020 C   0  0  0  0  0  0  0  0  0  0  0  0
   -2.9220    3.3870   -0.0290 C   0  0  0  0  0  0  0  0  0  0  0  0
   -3.3650    1.9810   -0.4960 C   0  0  2  0  0  0  0  0  0  0  0  0
   -3.8050    1.0860    0.5970 C   0  0  0  0  0  0  0  0  0  0  0  0
   -4.5840    0.0050    0.4690 C   0  0  0  0  0  0  0  0  0  0  0  0
   -4.7180   -0.6330    1.8010 C   0  0  0  0  0  0  0  0  0  0  0  0
   -5.3270   -1.6020    2.1810 O   0  0  0  0  0  0  0  0  0  0  0  0
   -3.9720    0.0790    2.7130 O   0  0  0  0  0  0  0  0  0  0  0  0
   -3.4460    1.2370    2.0780 C   0  0  2  0  0  0  0  0  0  0  0  0
   -4.0590    2.3120    2.6920 O   0  0  0  0  0  0  0  0  0  0  0  0
    0.3090    2.1100   -1.4470 C   0  0  0  0  0  0  0  0  0  0  0  0
    1.0200    3.0740   -2.0330 C   0  0  0  0  0  0  0  0  0  0  0  0
   -2.4470    1.4900   -2.7970 C   0  0  0  0  0  0  0  0  0  0  0  0
  1  2  1  0
  2  3  1  0
  3  5  1  0
  3  4  2  0
  6  5  1  1
  6  7  1  0
  6 13  1  0
  7 16  1  0
  7  8  1  1
  7  9  1  0
  9 10  2  0
 10 11  1  0
 11 13  1  0
 11 12  2  0
 13 14  1  0
 13 15  1  0
 16 17  1  0
 16 39  1  1
 17 18  1  1
 17 22  1  0
 18 19  1  0
 19 20  2  0
 19 21  1  0
 22 23  1  6
 22 27  1  0
 23 24  1  0
 24 26  1  0
 24 25  2  0
 27 41  1  6
 27 28  1  0
 27 31  1  0
 28 39  1  0
 28 29  2  0
 29 30  1  0
 30 31  1  0
 31 32  1  1
 32 33  2  0
 32 37  1  0
 33 34  1  0
 34 35  2  0
 34 36  1  0
 36 37  1  0
 37 38  1  1
 39 40  2  0
M  END
>  <id>  (150) 
810

>  <scaffolds>  (150) 
['C1=CCCCC1', 'C1CCCCC1', 'O=C1C=CCCC1']

>  <name>  (150) 
Turraflorin E

>  <formula>  (150) 
C31H38O10

>  <SMILES>  (150) 
COC(=O)C[C@@H]1[C@](C)(C=CC(=O)C1(C)C)[C@H]1[C@@H](OC(=O)C)[C@H](OC(=O)C)[C@@]2(C(=CC[C@@H]2C2=CC(=O)OC2O)C1=C)C

>  <ChEMBL_id>  (150) 


>  <ZINC_id>  (150) 


>  <PubChem_id>  (150) 


>  <DrugBank_id>  (150) 


>  <CAS_no>  (150) 
760996-57-4

>  <references>  (150) 
[{'journal': {'name': 'Phytochemistry', 'id': 10}, 'title': 'Limonoids from Turraea floribunda (Meliaceae)', 'year': 2004, 'start_page': 2031, 'volume': 65, 'issue': None, 'doi': '10.1016/j.phytochem.2004.06.019', 'isbn': '', 'despositor': {'code': 'AMU', 'first_name': 'Arnold', 'last_name': 'Amusengeri', 'id': 25}, 'refauthors_set': [{'author': {'first_name': 'Kathryn', 'initials': 'K', 'last_name': 'McFarland', 'id': 936}, 'first_author': True, 'id': 1519}, {'author': {'first_name': 'Dulcie', 'initials': 'DA', 'last_name': 'Mulholland', 'id': 525}, 'first_author': None, 'id': 1520}, {'author': {'first_name': 'Leigh-Anne', 'initials': 'L', 'last_name': 'Fraser', 'id': 937}, 'first_author': None, 'id': 1521}], 'id': 429}]

>  <classifications>  (150) 
[{'classification': 'Limonoids', 'id': 877}, {'classification': 'Carboxylic acids and derivatives (Classyfire)', 'id': 950}]

>  <molecular_mass>  (150) 
570.63

>  <warheads>  (150) 
ab_unsat_carbonyl:2

>  <n_warheads>  (150) 
2

>  <max_tier>  (150) 
1

>  <pains_flag>  (150) 


>  <MW>  (150) 
570.6

>  <cLogP>  (150) 
3.14

>  <HBD>  (150) 
1

>  <HBA>  (150) 
10

>  <TPSA>  (150) 
142.5

>  <ArRings>  (150) 
0

$$$$
SANC00811_minRM1.pdb
     RDKit          3D

 37 40  0  0  1  0  0  0  0  0999 V2000
    3.6870    3.5610   -2.3690 C   0  0  0  0  0  0  0  0  0  0  0  0
    2.6160    2.7100   -2.0300 O   0  0  0  0  0  0  0  0  0  0  0  0
    2.6570    2.1010   -0.8120 C   0  0  0  0  0  0  0  0  0  0  0  0
    3.5970    2.3230   -0.0700 O   0  0  0  0  0  0  0  0  0  0  0  0
    1.4170    1.3000   -0.5470 C   0  0  0  0  0  0  0  0  0  0  0  0
    1.5720   -0.2160   -0.3640 C   0  0  2  0  0  0  0  0  0  0  0  0
    1.8430   -0.6600    1.1030 C   0  0  2  0  0  0  0  0  0  0  0  0
    2.4560    0.4510    1.9570 C   0  0  0  0  0  0  0  0  0  0  0  0
    2.8170   -1.8130    1.1850 C   0  0  0  0  0  0  0  0  0  0  0  0
    3.0890   -2.6320    0.1740 C   0  0  0  0  0  0  0  0  0  0  0  0
    2.5310   -2.3290   -1.1500 C   0  0  0  0  0  0  0  0  0  0  0  0
    2.1560   -3.1760   -1.9360 O   0  0  0  0  0  0  0  0  0  0  0  0
    2.5160   -0.8310   -1.4210 C   0  0  0  0  0  0  0  0  0  0  0  0
    1.9930   -0.5770   -2.8340 C   0  0  0  0  0  0  0  0  0  0  0  0
    3.9720   -0.3770   -1.3420 C   0  0  0  0  0  0  0  0  0  0  0  0
    0.5790   -1.2450    1.8250 C   0  0  1  0  0  0  0  0  0  0  0  0
   -0.6010   -0.3600    2.2910 C   0  0  1  0  0  0  0  0  0  0  0  0
   -0.1250    0.6570    3.1360 O   0  0  0  0  0  0  0  0  0  0  0  0
   -0.3650    1.9810    2.9780 C   0  0  0  0  0  0  0  0  0  0  0  0
   -0.7100    2.4700    1.9190 O   0  0  0  0  0  0  0  0  0  0  0  0
   -0.0880    2.7150    4.2530 C   0  0  0  0  0  0  0  0  0  0  0  0
   -1.5990    0.0540    1.1880 C   0  0  2  0  0  0  0  0  0  0  0  0
   -2.5700    0.7960    1.8620 O   0  0  0  0  0  0  0  0  0  0  0  0
   -2.2270   -1.2290    0.6070 C   0  0  2  0  0  0  0  0  0  0  0  0
   -1.1200   -2.1440    0.1680 C   0  0  0  0  0  0  0  0  0  0  0  0
   -1.3540   -2.6840   -1.0320 C   0  0  0  0  0  0  0  0  0  0  0  0
   -2.6500   -2.2040   -1.6010 C   0  0  0  0  0  0  0  0  0  0  0  0
   -3.0800   -1.0330   -0.6810 C   0  0  2  0  0  0  0  0  0  0  0  0
   -2.8670    0.2580   -1.3670 C   0  0  0  0  0  0  0  0  0  0  0  0
   -1.9050    0.6480   -2.2130 C   0  0  0  0  0  0  0  0  0  0  0  0
   -2.2010    2.0510   -2.6790 C   0  0  0  0  0  0  0  0  0  0  0  0
   -3.4200    2.4220   -2.0480 O   0  0  0  0  0  0  0  0  0  0  0  0
   -3.8390    1.3770   -1.2590 C   0  0  0  0  0  0  0  0  0  0  0  0
   -4.8660    1.5060   -0.6350 O   0  0  0  0  0  0  0  0  0  0  0  0
    0.0090   -2.3950    1.0430 C   0  0  0  0  0  0  0  0  0  0  0  0
    0.4850   -3.6340    1.1700 C   0  0  0  0  0  0  0  0  0  0  0  0
   -3.0710   -1.9520    1.6550 C   0  0  0  0  0  0  0  0  0  0  0  0
  1  2  1  0
  2  3  1  0
  3  5  1  0
  3  4  2  0
  6  5  1  1
  6 13  1  0
  6  7  1  0
  7  9  1  0
  7 16  1  0
  7  8  1  1
  9 10  2  0
 10 11  1  0
 11 12  2  0
 11 13  1  0
 13 14  1  0
 13 15  1  0
 16 35  1  6
 16 17  1  0
 17 22  1  0
 17 18  1  6
 18 19  1  0
 19 20  2  0
 19 21  1  0
 22 24  1  0
 22 23  1  1
 24 28  1  0
 24 25  1  0
 24 37  1  1
 25 26  2  0
 25 35  1  0
 26 27  1  0
 27 28  1  0
 28 29  1  6
 29 30  2  0
 29 33  1  0
 30 31  1  0
 31 32  1  0
 32 33  1  0
 33 34  2  0
 35 36  2  0
M  END
>  <id>  (151) 
811

>  <scaffolds>  (151) 
['C1=CCCCC1', 'C1CCCCC1', 'O=C1C=CCCC1']

>  <name>  (151) 
Turraflorin F

>  <formula>  (151) 
C29H36O8

>  <SMILES>  (151) 
COC(=O)C[C@@H]1[C@](C)(C=CC(=O)C1(C)C)[C@H]1[C@@H](OC(=O)C)[C@H](O)[C@@]2(C(=CC[C@@H]2C2=CCOC2=O)C1=C)C

>  <ChEMBL_id>  (151) 


>  <ZINC_id>  (151) 


>  <PubChem_id>  (151) 


>  <DrugBank_id>  (151) 


>  <CAS_no>  (151) 
760996-58-5

>  <references>  (151) 
[{'journal': {'name': 'Phytochemistry', 'id': 10}, 'title': 'Limonoids from Turraea floribunda (Meliaceae)', 'year': 2004, 'start_page': 2031, 'volume': 65, 'issue': None, 'doi': '10.1016/j.phytochem.2004.06.019', 'isbn': '', 'despositor': {'code': 'AMU', 'first_name': 'Arnold', 'last_name': 'Amusengeri', 'id': 25}, 'refauthors_set': [{'author': {'first_name': 'Kathryn', 'initials': 'K', 'last_name': 'McFarland', 'id': 936}, 'first_author': True, 'id': 1519}, {'author': {'first_name': 'Dulcie', 'initials': 'DA', 'last_name': 'Mulholland', 'id': 525}, 'first_author': None, 'id': 1520}, {'author': {'first_name': 'Leigh-Anne', 'initials': 'L', 'last_name': 'Fraser', 'id': 937}, 'first_author': None, 'id': 1521}], 'id': 429}]

>  <classifications>  (151) 
[{'classification': 'Limonoids', 'id': 877}, {'classification': 'Carboxylic acids and derivatives (Classyfire)', 'id': 950}]

>  <molecular_mass>  (151) 
512.59

>  <warheads>  (151) 
ab_unsat_carbonyl:2

>  <n_warheads>  (151) 
2

>  <max_tier>  (151) 
1

>  <pains_flag>  (151) 


>  <MW>  (151) 
512.6

>  <cLogP>  (151) 
3.25

>  <HBD>  (151) 
1

>  <HBA>  (151) 
8

>  <TPSA>  (151) 
116.2

>  <ArRings>  (151) 
0

$$$$
SANC00852_minRM1.pdb
     RDKit          3D

 14 14  0  0  0  0  0  0  0  0999 V2000
   -5.5060   -0.3970    0.2240 C   0  0  0  0  0  0  0  0  0  0  0  0
   -4.1440   -0.7270    0.3630 O   0  0  0  0  0  0  0  0  0  0  0  0
   -3.2370    0.2240    0.0140 C   0  0  0  0  0  0  0  0  0  0  0  0
   -3.6170    1.3110   -0.3910 O   0  0  0  0  0  0  0  0  0  0  0  0
   -1.8540   -0.2360    0.1860 C   0  0  0  0  0  0  0  0  0  0  0  0
   -0.8530    0.5130   -0.2870 C   0  0  0  0  0  0  0  0  0  0  0  0
    0.5440    0.1130   -0.1730 C   0  0  0  0  0  0  0  0  0  0  0  0
    1.5050    1.0980    0.0580 C   0  0  0  0  0  0  0  0  0  0  0  0
    2.8420    0.7310    0.1500 C   0  0  0  0  0  0  0  0  0  0  0  0
    3.2260   -0.6140    0.0060 C   0  0  0  0  0  0  0  0  0  0  0  0
    2.2560   -1.5890   -0.2260 C   0  0  0  0  0  0  0  0  0  0  0  0
    0.9210   -1.2200   -0.3140 C   0  0  0  0  0  0  0  0  0  0  0  0
    4.5000   -1.0610    0.0860 O   0  0  0  0  0  0  0  0  0  0  0  0
    3.8500    1.6110    0.3940 O   0  0  0  0  0  0  0  0  0  0  0  0
  1  2  1  0
  2  3  1  0
  3  4  2  0
  3  5  1  0
  5  6  2  0
  6  7  1  0
  7 12  1  0
  7  8  2  0
  8  9  1  0
  9 10  2  0
  9 14  1  0
 10 11  1  0
 10 13  1  0
 11 12  2  0
M  END
>  <id>  (152) 
852

>  <scaffolds>  (152) 
['c1ccccc1']

>  <name>  (152) 
Methyl caffeate

>  <formula>  (152) 
C10H10O4

>  <SMILES>  (152) 
COC(=O)/C=C/C1=CC(=C(C=C1)O)O

>  <ChEMBL_id>  (152) 
CHEMBL17001

>  <ZINC_id>  (152) 
ZINC58222

>  <PubChem_id>  (152) 
689075

>  <DrugBank_id>  (152) 


>  <CAS_no>  (152) 
67667-67-8

>  <references>  (152) 
[{'journal': {'name': 'Fitoterapia', 'id': 35}, 'title': 'First identification of natural products from the African medicinal plant Zamioculcas zamiifolia — A drought resistant survivor through millions of years', 'year': 2015, 'start_page': None, 'volume': None, 'issue': None, 'doi': 'https://doi.org/10.1016/j.fitote.2015.09.011', 'isbn': '', 'despositor': {'code': 'BND', 'first_name': "Bakary N'tji", 'last_name': 'Diallo', 'id': 26}, 'refauthors_set': [{'author': {'first_name': 'Angharad Le ', 'initials': 'ALM', 'last_name': 'Moullec', 'id': 963}, 'first_author': True, 'id': 1550}], 'id': 439}]

>  <classifications>  (152) 
[{'classification': 'Caffeic Acids', 'id': 889}, {'classification': 'Cinnamic acids and derivatives (Classyfire)', 'id': 975}]

>  <molecular_mass>  (152) 
194.06

>  <warheads>  (152) 
ab_unsat_carbonyl:1

>  <n_warheads>  (152) 
1

>  <max_tier>  (152) 
1

>  <pains_flag>  (152) 
catechol_A(92)

>  <MW>  (152) 
194.2

>  <cLogP>  (152) 
1.28

>  <HBD>  (152) 
2

>  <HBA>  (152) 
4

>  <TPSA>  (152) 
66.8

>  <ArRings>  (152) 
1

$$$$
SANC00853_minRM1.pdb
     RDKit          3D

 26 27  0  0  1  0  0  0  0  0999 V2000
   -4.5970    0.0270   -1.3170 C   0  0  0  0  0  0  0  0  0  0  0  0
   -5.9700   -0.0850   -1.1470 C   0  0  0  0  0  0  0  0  0  0  0  0
   -6.4720   -0.7750   -0.0420 C   0  0  0  0  0  0  0  0  0  0  0  0
   -5.5860   -1.3460    0.8830 C   0  0  0  0  0  0  0  0  0  0  0  0
   -4.2110   -1.2280    0.7120 C   0  0  0  0  0  0  0  0  0  0  0  0
   -3.7210   -0.5400   -0.3940 C   0  0  0  0  0  0  0  0  0  0  0  0
   -2.2440   -0.4170   -0.5750 C   0  0  0  0  0  0  0  0  0  0  0  0
   -1.7150    0.6500    0.3920 C   0  0  2  0  0  0  0  0  0  0  0  0
   -1.9310    2.0570   -0.1540 C   0  0  0  0  0  0  0  0  0  0  0  0
   -2.6750    2.3520   -1.0660 O   0  0  0  0  0  0  0  0  0  0  0  0
   -1.2870    3.0950    0.4310 O   0  0  0  0  0  0  0  0  0  0  0  0
   -0.3650    0.4470    0.7270 O   0  0  0  0  0  0  0  0  0  0  0  0
    0.5850    0.5150   -0.2520 C   0  0  0  0  0  0  0  0  0  0  0  0
    0.2730    0.8460   -1.3810 O   0  0  0  0  0  0  0  0  0  0  0  0
    1.9180    0.1830    0.2580 C   0  0  0  0  0  0  0  0  0  0  0  0
    2.9830    0.3700   -0.5300 C   0  0  0  0  0  0  0  0  0  0  0  0
    4.3380    0.0690   -0.0860 C   0  0  0  0  0  0  0  0  0  0  0  0
    5.2300   -0.5020   -1.0000 C   0  0  0  0  0  0  0  0  0  0  0  0
    6.5230   -0.7920   -0.5930 C   0  0  0  0  0  0  0  0  0  0  0  0
    6.9340   -0.5010    0.7270 C   0  0  0  0  0  0  0  0  0  0  0  0
    6.0430    0.0760    1.6220 C   0  0  0  0  0  0  0  0  0  0  0  0
    4.7420    0.3580    1.2100 C   0  0  0  0  0  0  0  0  0  0  0  0
    8.2150   -0.8190    1.0200 O   0  0  0  0  0  0  0  0  0  0  0  0
    7.4680   -1.3550   -1.3830 O   0  0  0  0  0  0  0  0  0  0  0  0
   -6.1460   -1.9540    1.9670 O   0  0  0  0  0  0  0  0  0  0  0  0
   -7.8210   -0.8280    0.0540 O   0  0  0  0  0  0  0  0  0  0  0  0
  1  2  2  0
  1  6  1  0
  2  3  1  0
  3 26  1  0
  3  4  2  0
  4  5  1  0
  4 25  1  0
  5  6  2  0
  6  7  1  0
  8  7  1  6
  8  9  1  0
  8 12  1  0
  9 10  2  0
  9 11  1  0
 12 13  1  0
 13 14  2  0
 13 15  1  0
 15 16  2  0
 16 17  1  0
 17 18  2  0
 17 22  1  0
 18 19  1  0
 19 24  1  0
 19 20  2  0
 20 23  1  0
 20 21  1  0
 21 22  2  0
M  END
>  <id>  (153) 
853

>  <scaffolds>  (153) 
['c1ccccc1', 'O=C(C=Cc1ccccc1)OCCc1ccccc1']

>  <name>  (153) 
Rosmarinic acid

>  <formula>  (153) 
C18H16O8

>  <SMILES>  (153) 
C1=CC(=C(C=C1C[C@H](C(=O)O)OC(=O)/C=C/C2=CC(=C(C=C2)O)O)O)O

>  <ChEMBL_id>  (153) 
SCHEMBL2028694

>  <ZINC_id>  (153) 
ZINC899870

>  <PubChem_id>  (153) 
5281792

>  <DrugBank_id>  (153) 


>  <CAS_no>  (153) 
20283-92-5

>  <references>  (153) 
[{'journal': {'name': 'Fitoterapia', 'id': 35}, 'title': 'First identification of natural products from the African medicinal plant Zamioculcas zamiifolia — A drought resistant survivor through millions of years', 'year': 2015, 'start_page': None, 'volume': None, 'issue': None, 'doi': 'https://doi.org/10.1016/j.fitote.2015.09.011', 'isbn': '', 'despositor': {'code': 'BND', 'first_name': "Bakary N'tji", 'last_name': 'Diallo', 'id': 26}, 'refauthors_set': [{'author': {'first_name': 'Angharad Le ', 'initials': 'ALM', 'last_name': 'Moullec', 'id': 963}, 'first_author': True, 'id': 1550}], 'id': 439}]

>  <classifications>  (153) 
[{'classification': 'Depsides', 'id': 890}, {'classification': 'Cinnamic acids and derivatives (Classyfire)', 'id': 975}]

>  <molecular_mass>  (153) 
360.08

>  <warheads>  (153) 
ab_unsat_carbonyl:1

>  <n_warheads>  (153) 
1

>  <max_tier>  (153) 
1

>  <pains_flag>  (153) 
catechol_A(92)

>  <MW>  (153) 
360.3

>  <cLogP>  (153) 
1.76

>  <HBD>  (153) 
5

>  <HBA>  (153) 
7

>  <TPSA>  (153) 
144.5

>  <ArRings>  (153) 
2

$$$$
SANC00867_minRM1.pdb
     RDKit          3D

 43 47  0  0  1  0  0  0  0  0999 V2000
    8.2470    0.5910    0.8320 C   0  0  0  0  0  0  0  0  0  0  0  0
    9.5540    0.8510    1.2230 C   0  0  0  0  0  0  0  0  0  0  0  0
   10.5210    1.0670    0.2410 C   0  0  0  0  0  0  0  0  0  0  0  0
   10.2020    1.0300   -1.1220 C   0  0  0  0  0  0  0  0  0  0  0  0
    8.8930    0.7760   -1.4890 C   0  0  0  0  0  0  0  0  0  0  0  0
    7.9120    0.5490   -0.5180 C   0  0  0  0  0  0  0  0  0  0  0  0
    6.5460    0.2950   -0.9500 C   0  0  0  0  0  0  0  0  0  0  0  0
    5.7270   -0.5500   -0.3130 C   0  0  0  0  0  0  0  0  0  0  0  0
    4.3650   -0.7350   -0.8270 C   0  0  0  0  0  0  0  0  0  0  0  0
    3.9090   -0.3070   -1.8760 O   0  0  0  0  0  0  0  0  0  0  0  0
    3.5960   -1.5000   -0.0060 O   0  0  0  0  0  0  0  0  0  0  0  0
    2.2530   -1.7070   -0.3680 C   0  0  0  0  0  0  0  0  0  0  0  0
    1.4360   -0.4160   -0.1470 C   0  0  2  0  0  0  0  0  0  0  0  0
    1.4730    0.0240    1.3350 C   0  0  2  0  0  0  0  0  0  0  0  0
    0.4780    1.1980    1.5210 C   0  0  1  0  0  0  0  0  0  0  0  0
   -0.9270    0.8060    0.9890 C   0  0  2  0  0  0  0  0  0  0  0  0
   -0.7770    0.2960   -0.4740 C   0  0  1  0  0  0  0  0  0  0  0  0
    0.1190   -0.7960   -0.4540 O   0  0  0  0  0  0  0  0  0  0  0  0
   -1.8930   -0.3650   -1.0400 O   0  0  0  0  0  0  0  0  0  0  0  0
   -3.1210    0.0530   -0.6210 C   0  0  0  0  0  0  0  0  0  0  0  0
   -3.9970   -0.8800   -0.1840 C   0  0  0  0  0  0  0  0  0  0  0  0
   -5.2900   -0.5710    0.1390 O   0  0  0  0  0  0  0  0  0  0  0  0
   -5.7060    0.7190    0.0100 C   0  0  0  0  0  0  0  0  0  0  0  0
   -7.0230    0.9320    0.4160 C   0  0  0  0  0  0  0  0  0  0  0  0
   -7.5210    2.2300    0.3020 C   0  0  0  0  0  0  0  0  0  0  0  0
   -6.7540    3.2910   -0.1930 C   0  0  0  0  0  0  0  0  0  0  0  0
   -5.4420    3.0240   -0.5840 C   0  0  0  0  0  0  0  0  0  0  0  0
   -4.8900    1.7350   -0.4940 C   0  0  0  0  0  0  0  0  0  0  0  0
   -3.5210    1.4410   -0.8950 C   0  0  0  0  0  0  0  0  0  0  0  0
   -2.7700    2.2420   -1.4260 O   0  0  0  0  0  0  0  0  0  0  0  0
   -4.6230    3.9790   -1.0590 O   0  0  0  0  0  0  0  0  0  0  0  0
   -8.7990    2.3880    0.7080 O   0  0  0  0  0  0  0  0  0  0  0  0
   -3.7670   -2.3150   -0.0580 C   0  0  0  0  0  0  0  0  0  0  0  0
   -4.7110   -3.2140   -0.5530 C   0  0  0  0  0  0  0  0  0  0  0  0
   -4.4840   -4.5800   -0.4740 C   0  0  0  0  0  0  0  0  0  0  0  0
   -3.3000   -5.0330    0.1110 C   0  0  0  0  0  0  0  0  0  0  0  0
   -2.3460   -4.1430    0.6160 C   0  0  0  0  0  0  0  0  0  0  0  0
   -2.5870   -2.7820    0.5230 C   0  0  0  0  0  0  0  0  0  0  0  0
   -2.9890   -6.3450    0.2350 O   0  0  0  0  0  0  0  0  0  0  0  0
   -1.7810    1.8920    1.1090 O   0  0  0  0  0  0  0  0  0  0  0  0
    0.4380    1.4120    2.8990 O   0  0  0  0  0  0  0  0  0  0  0  0
    2.7700    0.4790    1.5570 O   0  0  0  0  0  0  0  0  0  0  0  0
   11.8210    1.3280    0.5220 O   0  0  0  0  0  0  0  0  0  0  0  0
  1  6  1  0
  1  2  2  0
  2  3  1  0
  3  4  2  0
  3 43  1  0
  4  5  1  0
  5  6  2  0
  6  7  1  0
  7  8  2  0
  8  9  1  0
  9 10  2  0
  9 11  1  0
 11 12  1  0
 13 12  1  1
 13 18  1  0
 13 14  1  0
 14 15  1  0
 14 42  1  6
 15 16  1  0
 15 41  1  1
 16 17  1  0
 16 40  1  6
 17 19  1  1
 17 18  1  0
 19 20  1  0
 20 29  1  0
 20 21  2  0
 21 33  1  0
 21 22  1  0
 22 23  1  0
 23 28  1  0
 23 24  2  0
 24 25  1  0
 25 26  2  0
 25 32  1  0
 26 27  1  0
 27 31  1  0
 27 28  2  0
 28 29  1  0
 29 30  2  0
 33 34  1  0
 33 38  2  0
 34 35  2  0
 35 36  1  0
 36 39  1  0
 36 37  2  0
 37 38  1  0
M  END
>  <id>  (154) 
867

>  <scaffolds>  (154) 
['c1ccccc1', 'O=c1cc(-c2ccccc2)oc2ccccc12', 'O=c1c(OC2CCCCO2)c(-c2ccccc2)oc2ccccc12', 'C1CCOCC1', 'O=c1ccoc2ccccc12', 'O=C(C=Cc1ccccc1)OCC1CCCC(Oc2c(-c3ccccc3)oc3ccccc3c2=O)O1']

>  <name>  (154) 
Tribuloside 

>  <formula>  (154) 
C30H26O13

>  <SMILES>  (154) 
C1=CC(=CC=C1/C=C/C(=O)OC[C@@H]2[C@H]([C@@H]([C@H]([C@@H](O2)OC3=C(OC4=CC(=CC(=C4C3=O)O)O)C5=CC=C(C=C5)O)O)O)O)O

>  <ChEMBL_id>  (154) 


>  <ZINC_id>  (154) 


>  <PubChem_id>  (154) 


>  <DrugBank_id>  (154) 


>  <CAS_no>  (154) 
20316-62-5

>  <references>  (154) 
[{'journal': {'name': 'South African Journal of Botany', 'id': 1}, 'title': 'HPTLC fingerprinting of Croton gratissimus leaf extract with Preparative HPLC-MS-isolated marker compounds', 'year': 2018, 'start_page': None, 'volume': None, 'issue': None, 'doi': 'https://doi.org/10.1016/j.sajb.2017.10.004', 'isbn': '', 'despositor': {'code': 'BND', 'first_name': "Bakary N'tji", 'last_name': 'Diallo', 'id': 26}, 'refauthors_set': [{'author': {'first_name': 'J.', 'initials': 'JP', 'last_name': 'Pudumo', 'id': 994}, 'first_author': True, 'id': 1576}], 'id': 474}]

>  <classifications>  (154) 
[{'classification': 'Flavonoids', 'id': 776}, {'classification': 'Flavonoids (Classyfire)', 'id': 941}]

>  <molecular_mass>  (154) 
594.52

>  <warheads>  (154) 
ab_unsat_carbonyl:1

>  <n_warheads>  (154) 
1

>  <max_tier>  (154) 
1

>  <pains_flag>  (154) 


>  <MW>  (154) 
594.5

>  <cLogP>  (154) 
1.73

>  <HBD>  (154) 
7

>  <HBA>  (154) 
13

>  <TPSA>  (154) 
216.6

>  <ArRings>  (154) 
4

$$$$
SANC00871_minRM1.pdb
     RDKit          3D

 18 20  0  0  1  0  0  0  0  0999 V2000
   -0.6130   -0.8250    1.4780 C   0  0  0  0  0  0  0  0  0  0  0  0
   -0.8980   -0.7430   -0.0180 C   0  0  1  0  0  0  0  0  0  0  0  0
   -2.2980   -1.3110   -0.3090 C   0  0  0  0  0  0  0  0  0  0  0  0
   -3.3960   -0.4550    0.3370 C   0  0  1  0  0  0  0  0  0  0  0  0
   -3.2980    0.9900   -0.1720 C   0  0  0  0  0  0  0  0  0  0  0  0
   -1.9270    1.5060    0.1230 C   0  0  0  0  0  0  0  0  0  0  0  0
   -1.7540    2.5810    0.8850 C   0  0  0  0  0  0  0  0  0  0  0  0
   -0.8360    0.7080   -0.5250 C   0  0  1  0  0  0  0  0  0  0  0  0
    0.5500    1.2910   -0.2830 C   0  0  0  0  0  0  0  0  0  0  0  0
    1.6230    0.5220   -1.0480 C   0  0  2  0  0  0  0  0  0  0  0  0
    1.5100   -1.0170   -0.9350 C   0  0  2  0  0  0  0  0  0  0  0  0
    0.1100   -1.5980   -0.7940 C   0  0  0  0  0  0  0  0  0  0  0  0
    2.3040   -1.4040    0.1810 O   0  0  0  0  0  0  0  0  0  0  0  0
    3.2060   -0.4120    0.4570 C   0  0  0  0  0  0  0  0  0  0  0  0
    4.0440   -0.6190    1.3050 O   0  0  0  0  0  0  0  0  0  0  0  0
    2.9400    0.7740   -0.3800 C   0  0  0  0  0  0  0  0  0  0  0  0
    3.7210    1.8360   -0.4750 C   0  0  0  0  0  0  0  0  0  0  0  0
   -4.6600   -0.9010   -0.0700 O   0  0  0  0  0  0  0  0  0  0  0  0
  2  1  1  1
  2 12  1  0
  2  8  1  0
  2  3  1  0
  3  4  1  0
  4  5  1  0
  4 18  1  6
  5  6  1  0
  6  8  1  0
  6  7  2  0
  8  9  1  1
 10  9  1  1
 10 11  1  0
 10 16  1  0
 11 12  1  1
 11 13  1  0
 13 14  1  0
 14 16  1  0
 14 15  2  0
 16 17  2  0
M  END
>  <id>  (155) 
871

>  <scaffolds>  (155) 
['C1CCCCC1', 'C=C1CCCC2CCCCC12', 'C=C1CCCC2CC3OC(=O)C(=C)C3CC12', 'O=C1CCCO1', 'C=C1C(=O)OC2CCCCC12', 'C1CCC2CCCCC2C1']

>  <name>  (155) 
Ivalin

>  <formula>  (155) 
C15H20O3

>  <SMILES>  (155) 
C[C@@]12C[C@@H](CC(=C)[C@H]1C[C@@H]3[C@H](C2)OC(=O)C3=C)O

>  <ChEMBL_id>  (155) 
CHEMBL1974789

>  <ZINC_id>  (155) 


>  <PubChem_id>  (155) 
257273

>  <DrugBank_id>  (155) 


>  <CAS_no>  (155) 
5938-03-04

>  <references>  (155) 
[{'journal': {'name': 'Natural Product Research', 'id': 18}, 'title': 'Sesquiterpene lactones from Geigeria aspera Harv. and their cytotoxicity', 'year': 2019, 'start_page': None, 'volume': None, 'issue': None, 'doi': 'https://doi.org/10.1080/14786419.2019.1675068', 'isbn': '', 'despositor': {'code': 'BND', 'first_name': "Bakary N'tji", 'last_name': 'Diallo', 'id': 26}, 'refauthors_set': [{'author': {'first_name': 'Gerda ', 'initials': 'GF', 'last_name': 'Fouche', 'id': 967}, 'first_author': True, 'id': 1553}], 'id': 442}]

>  <classifications>  (155) 
[{'classification': 'Sesquiterpene', 'id': 828}, {'classification': 'Phenol lipids (Classyfire)', 'id': 951}]

>  <molecular_mass>  (155) 
248.14

>  <warheads>  (155) 
ab_unsat_carbonyl:1;exo_methylene_carbonyl:1

>  <n_warheads>  (155) 
2

>  <max_tier>  (155) 
1

>  <pains_flag>  (155) 


>  <MW>  (155) 
248.3

>  <cLogP>  (155) 
2.21

>  <HBD>  (155) 
1

>  <HBA>  (155) 
3

>  <TPSA>  (155) 
46.5

>  <ArRings>  (155) 
0

$$$$
SANC00891_minRM1.pdb
     RDKit          3D

 38 40  0  0  1  0  0  0  0  0999 V2000
   -1.2300    2.4700   -3.6280 C   0  0  0  0  0  0  0  0  0  0  0  0
   -1.0060    1.2730   -2.7850 C   0  0  0  0  0  0  0  0  0  0  0  0
   -0.9090    1.2780   -1.4520 C   0  0  0  0  0  0  0  0  0  0  0  0
   -1.0110    2.5140   -0.6230 C   0  0  1  0  0  0  0  0  0  0  0  0
   -1.2010    2.2030    0.8200 C   0  0  0  0  0  0  0  0  0  0  0  0
   -0.9350    0.9870    1.3340 C   0  0  0  0  0  0  0  0  0  0  0  0
   -0.4940   -0.0540    0.6040 O   0  0  0  0  0  0  0  0  0  0  0  0
   -0.7020   -0.0540   -0.7850 C   0  0  1  0  0  0  0  0  0  0  0  0
   -1.7800   -0.9130   -1.0150 O   0  0  0  0  0  0  0  0  0  0  0  0
   -3.0370   -0.5170   -0.5340 C   0  0  1  0  0  0  0  0  0  0  0  0
   -4.0720   -1.1370   -1.5120 C   0  0  1  0  0  0  0  0  0  0  0  0
   -4.0820   -2.6910   -1.4500 C   0  0  2  0  0  0  0  0  0  0  0  0
   -3.2870   -3.2010   -0.2180 C   0  0  1  0  0  0  0  0  0  0  0  0
   -3.6210   -2.2810    0.9760 C   0  0  2  0  0  0  0  0  0  0  0  0
   -3.1140   -0.9800    0.7750 O   0  0  0  0  0  0  0  0  0  0  0  0
   -2.9450   -2.7710    2.2840 C   0  0  0  0  0  0  0  0  0  0  0  0
   -3.8000   -3.6010    3.0000 O   0  0  0  0  0  0  0  0  0  0  0  0
   -3.7490   -4.4720    0.1280 O   0  0  0  0  0  0  0  0  0  0  0  0
   -3.4170   -3.2330   -2.5510 O   0  0  0  0  0  0  0  0  0  0  0  0
   -5.3580   -0.7610   -1.1180 O   0  0  0  0  0  0  0  0  0  0  0  0
   -1.6540    3.2440    1.7370 C   0  0  0  0  0  0  0  0  0  0  0  0
   -1.7700    3.1490    2.9490 O   0  0  0  0  0  0  0  0  0  0  0  0
   -1.9750    4.4180    1.1260 O   0  0  0  0  0  0  0  0  0  0  0  0
   -2.4390    5.4640    1.9480 C   0  0  0  0  0  0  0  0  0  0  0  0
    0.2380    3.3900   -0.8030 C   0  0  0  0  0  0  0  0  0  0  0  0
    1.5090    2.5890   -0.7570 C   0  0  0  0  0  0  0  0  0  0  0  0
    2.2870    2.4170   -1.6780 O   0  0  0  0  0  0  0  0  0  0  0  0
    1.7610    2.0730    0.4700 O   0  0  0  0  0  0  0  0  0  0  0  0
    2.9880    1.3990    0.6700 C   0  0  0  0  0  0  0  0  0  0  0  0
    2.9240   -0.0150    0.0850 C   0  0  0  0  0  0  0  0  0  0  0  0
    4.2440   -0.6810    0.2860 C   0  0  0  0  0  0  0  0  0  0  0  0
    5.3070   -0.3260   -0.5400 C   0  0  0  0  0  0  0  0  0  0  0  0
    6.5370   -0.9520   -0.3690 C   0  0  0  0  0  0  0  0  0  0  0  0
    6.7080   -1.9320    0.6220 C   0  0  0  0  0  0  0  0  0  0  0  0
    5.6370   -2.2750    1.4470 C   0  0  0  0  0  0  0  0  0  0  0  0
    4.4110   -1.6450    1.2740 C   0  0  0  0  0  0  0  0  0  0  0  0
    7.8650   -2.5960    0.8590 O   0  0  0  0  0  0  0  0  0  0  0  0
    7.6320   -0.6800   -1.1300 O   0  0  0  0  0  0  0  0  0  0  0  0
  1  2  1  0
  2  3  2  0
  3  8  1  0
  3  4  1  0
  4 25  1  1
  4  5  1  0
  5  6  2  0
  5 21  1  0
  6  7  1  0
  7  8  1  0
  8  9  1  1
 10  9  1  6
 10 11  1  0
 10 15  1  0
 11 12  1  0
 11 20  1  1
 12 19  1  6
 12 13  1  0
 13 18  1  1
 13 14  1  0
 14 15  1  0
 14 16  1  1
 16 17  1  0
 21 23  1  0
 21 22  2  0
 23 24  1  0
 25 26  1  0
 26 27  2  0
 26 28  1  0
 28 29  1  0
 29 30  1  0
 30 31  1  0
 31 32  2  0
 31 36  1  0
 32 33  1  0
 33 38  1  0
 33 34  2  0
 34 37  1  0
 34 35  1  0
 35 36  2  0
M  END
>  <id>  (156) 
891

>  <scaffolds>  (156) 
['c1ccccc1', 'C1CCOCC1']

>  <name>  (156) 
Oleuropein

>  <formula>  (156) 
C25H32O13

>  <SMILES>  (156) 
C/C=C/1\[C@@H](C(=CO[C@H]1O[C@H]2[C@@H]([C@H]([C@@H]([C@H](O2)CO)O)O)O)C(=O)OC)CC(=O)OCCC3=CC(=C(C=C3)O)O

>  <ChEMBL_id>  (156) 
CHEMBL1911053

>  <ZINC_id>  (156) 
ZINC4098348

>  <PubChem_id>  (156) 
32619-42-4

>  <DrugBank_id>  (156) 
nan

>  <CAS_no>  (156) 
32619-42-4

>  <references>  (156) 
[{'journal': {'name': 'Phytochemistry', 'id': 10}, 'title': 'Phenolic glucosides from Olea europaea subs. africana', 'year': 1984, 'start_page': None, 'volume': None, 'issue': None, 'doi': '10.1016/0031-9422(84)83025-3', 'isbn': '', 'despositor': {'code': 'BND', 'first_name': "Bakary N'tji", 'last_name': 'Diallo', 'id': 26}, 'refauthors_set': [{'author': {'first_name': 'Tsukamoto', 'initials': 'TH', 'last_name': 'Hiroki', 'id': 995}, 'first_author': True, 'id': 1577}], 'id': 475}]

>  <classifications>  (156) 
[{'classification': 'Iridoid', 'id': 788}, {'classification': 'Iridoids', 'id': 907}, {'classification': 'Phenol lipids (Classyfire)', 'id': 951}]

>  <molecular_mass>  (156) 
540.5

>  <warheads>  (156) 
ab_unsat_carbonyl:1

>  <n_warheads>  (156) 
1

>  <max_tier>  (156) 
1

>  <pains_flag>  (156) 
catechol_A(92)

>  <MW>  (156) 
540.5

>  <cLogP>  (156) 
-0.63

>  <HBD>  (156) 
6

>  <HBA>  (156) 
13

>  <TPSA>  (156) 
201.7

>  <ArRings>  (156) 
1

$$$$
SANC00893_minRM1.pdb
     RDKit          3D

 40 43  0  0  1  0  0  0  0  0999 V2000
   -1.0680   -3.8860   -3.0820 C   0  0  0  0  0  0  0  0  0  0  0  0
   -1.2950   -2.7220   -2.1880 C   0  0  0  0  0  0  0  0  0  0  0  0
   -2.1600   -1.7220   -2.6140 C   0  0  0  0  0  0  0  0  0  0  0  0
   -2.4080   -0.6140   -1.8000 C   0  0  0  0  0  0  0  0  0  0  0  0
   -1.8190   -0.4830   -0.5360 C   0  0  0  0  0  0  0  0  0  0  0  0
   -0.9310   -1.4940   -0.1550 C   0  0  0  0  0  0  0  0  0  0  0  0
   -0.6550   -2.6160   -0.9450 C   0  0  0  0  0  0  0  0  0  0  0  0
    0.2790   -3.6250   -0.4390 C   0  0  0  0  0  0  0  0  0  0  0  0
    0.6360   -4.6120   -1.0640 O   0  0  0  0  0  0  0  0  0  0  0  0
    0.7800   -3.3820    0.9150 C   0  0  0  0  0  0  0  0  0  0  0  0
    0.4570   -2.2630    1.5740 C   0  0  0  0  0  0  0  0  0  0  0  0
   -0.3440   -1.2870    1.0620 O   0  0  0  0  0  0  0  0  0  0  0  0
    0.8890   -1.9030    2.9550 C   0  0  0  0  0  0  0  0  0  0  0  0
    2.3340   -2.3030    3.1560 C   0  0  0  0  0  0  0  0  0  0  0  0
    3.2220   -1.8060    2.4920 O   0  0  0  0  0  0  0  0  0  0  0  0
    2.5980   -3.3240    4.2190 C   0  0  0  0  0  0  0  0  0  0  0  0
   -2.1500    0.6680    0.3690 C   0  0  1  0  0  0  0  0  0  0  0  0
   -1.4590    1.9620   -0.1230 C   0  0  1  0  0  0  0  0  0  0  0  0
   -1.9120    3.1460    0.7570 C   0  0  2  0  0  0  0  0  0  0  0  0
   -3.4590    3.2230    0.6630 C   0  0  1  0  0  0  0  0  0  0  0  0
   -4.0500    1.8560    1.0910 C   0  0  2  0  0  0  0  0  0  0  0  0
   -3.5460    0.8440    0.2590 O   0  0  0  0  0  0  0  0  0  0  0  0
   -5.5770    1.8410    0.8480 C   0  0  0  0  0  0  0  0  0  0  0  0
   -6.1420    0.6170    1.1910 O   0  0  0  0  0  0  0  0  0  0  0  0
   -3.9510    4.1450    1.5860 O   0  0  0  0  0  0  0  0  0  0  0  0
   -1.4600    4.3550    0.2260 O   0  0  0  0  0  0  0  0  0  0  0  0
   -0.0640    1.8530   -0.2070 O   0  0  0  0  0  0  0  0  0  0  0  0
    0.7050    1.5480    0.8720 C   0  0  0  0  0  0  0  0  0  0  0  0
    0.2210    1.4860    1.9900 O   0  0  0  0  0  0  0  0  0  0  0  0
    2.1220    1.3610    0.5410 C   0  0  0  0  0  0  0  0  0  0  0  0
    2.5920    1.2980   -0.7090 C   0  0  0  0  0  0  0  0  0  0  0  0
    4.0080    1.0940   -0.9850 C   0  0  0  0  0  0  0  0  0  0  0  0
    4.7590    0.1960   -0.2300 C   0  0  0  0  0  0  0  0  0  0  0  0
    6.1070    0.0090   -0.5040 C   0  0  0  0  0  0  0  0  0  0  0  0
    6.6920    0.7350   -1.5420 C   0  0  0  0  0  0  0  0  0  0  0  0
    5.9490    1.6370   -2.3150 C   0  0  0  0  0  0  0  0  0  0  0  0
    4.6050    1.8020   -2.0310 C   0  0  0  0  0  0  0  0  0  0  0  0
    7.9990    0.6270   -1.8800 O   0  0  0  0  0  0  0  0  0  0  0  0
   -3.1800    0.4330   -2.1900 O   0  0  0  0  0  0  0  0  0  0  0  0
   -4.2000    0.1660   -3.1230 C   0  0  0  0  0  0  0  0  0  0  0  0
  1  2  1  0
  2  3  1  0
  2  7  2  0
  3  4  2  0
  4 39  1  0
  4  5  1  0
  5  6  2  0
 17  5  1  6
  6  7  1  0
  6 12  1  0
  7  8  1  0
  8  9  2  0
  8 10  1  0
 10 11  2  0
 11 12  1  0
 11 13  1  0
 13 14  1  0
 14 15  2  0
 14 16  1  0
 17 18  1  0
 17 22  1  0
 18 27  1  1
 18 19  1  0
 19 26  1  6
 19 20  1  0
 20 21  1  0
 20 25  1  1
 21 22  1  0
 21 23  1  6
 23 24  1  0
 27 28  1  0
 28 30  1  0
 28 29  2  0
 30 31  2  0
 31 32  1  0
 32 37  2  0
 32 33  1  0
 33 34  2  0
 34 35  1  0
 35 36  2  0
 35 38  1  0
 36 37  1  0
 39 40  1  0
M  END
>  <id>  (157) 
893

>  <scaffolds>  (157) 
['c1ccccc1', 'C1CCOCC1', 'O=C(C=Cc1ccccc1)OC1CCCOC1c1cccc2c(=O)ccoc12', 'O=c1ccoc2ccccc12', 'O=C(C=Cc1ccccc1)OCCc1ccccc1', 'O=c1ccoc2c(C3CCCCO3)cccc12']

>  <name>  (157) 
7-O-Methylaloeresin A

>  <formula>  (157) 
C29H30O11

>  <SMILES>  (157) 
CC1=CC(=C(C2=C1C(=O)C=C(O2)CC(=O)C)[C@H]3[C@@H]([C@H]([C@@H]([C@H](O3)CO)O)O)OC(=O)/C=C/C4=CC=C(C=C4)O)OC

>  <ChEMBL_id>  (157) 


>  <ZINC_id>  (157) 
ZINC85530008

>  <PubChem_id>  (157) 
329361-25-3

>  <DrugBank_id>  (157) 


>  <CAS_no>  (157) 
329361-25-3

>  <references>  (157) 
[{'journal': {'name': 'Phytochemistry', 'id': 10}, 'title': 'Chromones and anthrones from Aloe marlothii and Aloe rupestris', 'year': 2000, 'start_page': None, 'volume': None, 'issue': None, 'doi': '10.1016/S0031-9422(00)00328-9', 'isbn': '', 'despositor': {'code': 'BND', 'first_name': "Bakary N'tji", 'last_name': 'Diallo', 'id': 26}, 'refauthors_set': [{'author': {'first_name': 'Bisrat', 'initials': 'BD', 'last_name': 'Daniel', 'id': 996}, 'first_author': True, 'id': 1578}], 'id': 476}]

>  <classifications>  (157) 
[{'classification': 'Organooxygen compounds (Classyfire)', 'id': 954}]

>  <molecular_mass>  (157) 
554.5

>  <warheads>  (157) 
ab_unsat_carbonyl:1

>  <n_warheads>  (157) 
1

>  <max_tier>  (157) 
1

>  <pains_flag>  (157) 


>  <MW>  (157) 
554.5

>  <cLogP>  (157) 
1.73

>  <HBD>  (157) 
4

>  <HBA>  (157) 
11

>  <TPSA>  (157) 
173.0

>  <ArRings>  (157) 
3

$$$$
SANC00928_minRM1.pdb
     RDKit          3D

 14 14  0  0  1  0  0  0  0  0999 V2000
   -0.1360   -2.5080    0.1150 C   0  0  0  0  0  0  0  0  0  0  0  0
   -1.1140   -1.4100   -0.0820 C   0  0  0  0  0  0  0  0  0  0  0  0
   -2.4170   -1.6010    0.1480 C   0  0  0  0  0  0  0  0  0  0  0  0
   -3.3720   -0.5040   -0.1580 C   0  0  0  0  0  0  0  0  0  0  0  0
   -2.8480    0.8080    0.4200 C   0  0  0  0  0  0  0  0  0  0  0  0
   -1.3640    1.0890    0.0990 C   0  0  0  0  0  0  0  0  0  0  0  0
   -0.7020   -0.0930   -0.6570 C   0  0  1  0  0  0  0  0  0  0  0  0
    0.7730    0.1190   -0.7770 C   0  0  0  0  0  0  0  0  0  0  0  0
    1.6700   -0.1470    0.1740 C   0  0  0  0  0  0  0  0  0  0  0  0
    3.1080    0.1000   -0.0420 C   0  0  0  0  0  0  0  0  0  0  0  0
    3.5580    0.5000   -1.1020 O   0  0  0  0  0  0  0  0  0  0  0  0
    4.0000   -0.1770    1.1330 C   0  0  0  0  0  0  0  0  0  0  0  0
   -0.6350    1.3760    1.4120 C   0  0  0  0  0  0  0  0  0  0  0  0
   -1.2610    2.3350   -0.7870 C   0  0  0  0  0  0  0  0  0  0  0  0
  1  2  1  0
  2  7  1  0
  2  3  2  0
  3  4  1  0
  4  5  1  0
  5  6  1  0
  6 14  1  0
  6  7  1  0
  6 13  1  0
  7  8  1  1
  8  9  2  0
  9 10  1  0
 10 11  2  0
 10 12  1  0
M  END
>  <id>  (158) 
928

>  <scaffolds>  (158) 
['C1=CCCCC1']

>  <name>  (158) 
[alpha]-ionone

>  <formula>  (158) 
C13H20O

>  <SMILES>  (158) 
CC1=CCCC(C1/C=C/C(=O)C)(C)C

>  <ChEMBL_id>  (158) 
CHEMBL472877

>  <ZINC_id>  (158) 


>  <PubChem_id>  (158) 


>  <DrugBank_id>  (158) 


>  <CAS_no>  (158) 
127-41-3

>  <references>  (158) 
[{'journal': {'name': 'South African Journal of Botany', 'id': 1}, 'title': 'Antigonococcal activity of Ximenia caffra Sond. (Olacaceae) and identification of the active principle', 'year': 2013, 'start_page': None, 'volume': None, 'issue': None, 'doi': '10.1016/j.sajb.2013.02.170', 'isbn': '', 'despositor': {'code': 'BND', 'first_name': "Bakary N'tji", 'last_name': 'Diallo', 'id': 26}, 'refauthors_set': [{'author': {'first_name': 'Nair', 'initials': 'NJ', 'last_name': 'J.', 'id': 1008}, 'first_author': True, 'id': 1589}], 'id': 489}]

>  <classifications>  (158) 
[{'classification': 'Norisoprenoids', 'id': 917}, {'classification': 'Phenol lipids (Classyfire)', 'id': 951}]

>  <molecular_mass>  (158) 
192.3

>  <warheads>  (158) 
ab_unsat_carbonyl:1

>  <n_warheads>  (158) 
1

>  <max_tier>  (158) 
1

>  <pains_flag>  (158) 


>  <MW>  (158) 
192.3

>  <cLogP>  (158) 
3.51

>  <HBD>  (158) 
0

>  <HBA>  (158) 
1

>  <TPSA>  (158) 
17.1

>  <ArRings>  (158) 
0

$$$$
SANC00930_minRM1.pdb
     RDKit          3D

 14 14  0  0  1  0  0  0  0  0999 V2000
   -4.6870    0.0190    0.3430 C   0  0  0  0  0  0  0  0  0  0  0  0
   -3.3590   -0.2700   -0.2530 C   0  0  0  0  0  0  0  0  0  0  0  0
   -2.2210    0.1970    0.2620 C   0  0  0  0  0  0  0  0  0  0  0  0
   -0.9190   -0.1200   -0.3580 C   0  0  0  0  0  0  0  0  0  0  0  0
   -0.8390   -0.4320   -1.5340 O   0  0  0  0  0  0  0  0  0  0  0  0
    0.3010   -0.0520    0.5450 C   0  0  1  0  0  0  0  0  0  0  0  0
    1.1010   -1.2980    0.3360 C   0  0  0  0  0  0  0  0  0  0  0  0
    2.2350   -1.3280   -0.3620 C   0  0  0  0  0  0  0  0  0  0  0  0
    2.8420   -0.1300   -0.9980 C   0  0  0  0  0  0  0  0  0  0  0  0
    1.8880    1.0570   -1.0510 C   0  0  0  0  0  0  0  0  0  0  0  0
    1.1270    1.2150    0.2660 C   0  0  0  0  0  0  0  0  0  0  0  0
    2.1080    1.4240    1.4210 C   0  0  0  0  0  0  0  0  0  0  0  0
    0.2130    2.4370    0.1800 C   0  0  0  0  0  0  0  0  0  0  0  0
    0.5280   -2.5190    0.9630 C   0  0  0  0  0  0  0  0  0  0  0  0
  1  2  1  0
  2  3  2  0
  3  4  1  0
  4  5  2  0
  6  4  1  6
  6 11  1  0
  6  7  1  0
  7  8  2  0
  7 14  1  0
  8  9  1  0
  9 10  1  0
 10 11  1  0
 11 13  1  0
 11 12  1  0
M  END
>  <id>  (159) 
930

>  <scaffolds>  (159) 
['C1=CCCCC1']

>  <name>  (159) 
[alpha]-Damascone

>  <formula>  (159) 
C13H20O

>  <SMILES>  (159) 
C/C=C/C(=O)C1C(=CCCC1(C)C)C

>  <ChEMBL_id>  (159) 
SCHEMBL454166

>  <ZINC_id>  (159) 


>  <PubChem_id>  (159) 


>  <DrugBank_id>  (159) 


>  <CAS_no>  (159) 
43052-87-5

>  <references>  (159) 
[{'journal': {'name': 'South African Journal of Botany', 'id': 1}, 'title': 'Antigonococcal activity of Ximenia caffra Sond. (Olacaceae) and identification of the active principle', 'year': 2013, 'start_page': None, 'volume': None, 'issue': None, 'doi': '10.1016/j.sajb.2013.02.170', 'isbn': '', 'despositor': {'code': 'BND', 'first_name': "Bakary N'tji", 'last_name': 'Diallo', 'id': 26}, 'refauthors_set': [{'author': {'first_name': 'Nair', 'initials': 'NJ', 'last_name': 'J.', 'id': 1008}, 'first_author': True, 'id': 1589}], 'id': 489}]

>  <classifications>  (159) 
[{'classification': 'Butanones', 'id': 918}, {'classification': 'Organooxygen compounds (Classyfire)', 'id': 954}]

>  <molecular_mass>  (159) 
192.3

>  <warheads>  (159) 
ab_unsat_carbonyl:1

>  <n_warheads>  (159) 
1

>  <max_tier>  (159) 
1

>  <pains_flag>  (159) 


>  <MW>  (159) 
192.3

>  <cLogP>  (159) 
3.51

>  <HBD>  (159) 
0

>  <HBA>  (159) 
1

>  <TPSA>  (159) 
17.1

>  <ArRings>  (159) 
0

$$$$
SANC00953_minRM1.pdb
     RDKit          3D

 14 14  0  0  0  0  0  0  0  0999 V2000
   -4.0370    1.5520    0.0070 C   0  0  0  0  0  0  0  0  0  0  0  0
   -3.1070    1.1150    0.9720 O   0  0  0  0  0  0  0  0  0  0  0  0
   -2.1660    0.2670    0.4560 C   0  0  0  0  0  0  0  0  0  0  0  0
   -2.4670   -1.0870    0.2350 C   0  0  0  0  0  0  0  0  0  0  0  0
   -1.4690   -1.9660   -0.1850 C   0  0  0  0  0  0  0  0  0  0  0  0
   -0.1780   -1.4890   -0.3700 C   0  0  0  0  0  0  0  0  0  0  0  0
    0.1200   -0.1470   -0.1490 C   0  0  0  0  0  0  0  0  0  0  0  0
   -0.8780    0.7430    0.2540 C   0  0  0  0  0  0  0  0  0  0  0  0
    1.4730    0.3560   -0.3480 C   0  0  0  0  0  0  0  0  0  0  0  0
    2.5490   -0.3250    0.0590 C   0  0  0  0  0  0  0  0  0  0  0  0
    3.8930    0.2230   -0.1850 C   0  0  0  0  0  0  0  0  0  0  0  0
    4.1740    1.0760   -1.0090 O   0  0  0  0  0  0  0  0  0  0  0  0
    4.9430   -0.2390    0.5390 O   0  0  0  0  0  0  0  0  0  0  0  0
   -3.7540   -1.4490    0.4380 O   0  0  0  0  0  0  0  0  0  0  0  0
  1  2  1  0
  2  3  1  0
  3  4  2  0
  3  8  1  0
  4  5  1  0
  4 14  1  0
  5  6  2  0
  6  7  1  0
  7  9  1  0
  7  8  2  0
  9 10  2  0
 10 11  1  0
 11 12  2  0
 11 13  1  0
M  END
>  <id>  (160) 
953

>  <scaffolds>  (160) 
['c1ccccc1']

>  <name>  (160) 
Ferulic acid

>  <formula>  (160) 
C10H10O4

>  <SMILES>  (160) 
COC1=C(C=CC(=C1)/C=C/C(=O)O)O

>  <ChEMBL_id>  (160) 
SCHEMBL15673

>  <ZINC_id>  (160) 
ZINC58258

>  <PubChem_id>  (160) 
445858

>  <DrugBank_id>  (160) 
DB07767

>  <CAS_no>  (160) 
1135-24-6

>  <references>  (160) 
[{'journal': {'name': 'Planta', 'id': 60}, 'title': 'Physiological role of phenolic biostimulants isolated from brown seaweed Ecklonia maxima on plant growth and development', 'year': 2015, 'start_page': None, 'volume': None, 'issue': None, 'doi': '10.1007/s00425-015-2256-x', 'isbn': '', 'despositor': {'code': 'BND', 'first_name': "Bakary N'tji", 'last_name': 'Diallo', 'id': 26}, 'refauthors_set': [{'author': {'first_name': 'Aremu', 'initials': 'AA', 'last_name': 'Adeyemi', 'id': 1016}, 'first_author': True, 'id': 1596}], 'id': 497}]

>  <classifications>  (160) 
[{'classification': 'Cinnamic acids and derivatives (Classyfire)', 'id': 975}]

>  <molecular_mass>  (160) 
194.18

>  <warheads>  (160) 
ab_unsat_carbonyl:1

>  <n_warheads>  (160) 
1

>  <max_tier>  (160) 
1

>  <pains_flag>  (160) 


>  <MW>  (160) 
194.2

>  <cLogP>  (160) 
1.5

>  <HBD>  (160) 
2

>  <HBA>  (160) 
3

>  <TPSA>  (160) 
66.8

>  <ArRings>  (160) 
1

$$$$
SANC00962_minRM1.pdb
     RDKit          3D

 22 24  0  0  1  0  0  0  0  0999 V2000
   -3.5570    1.9460   -0.2300 C   0  0  0  0  0  0  0  0  0  0  0  0
   -3.1480    0.6130    0.2460 C   0  0  0  0  0  0  0  0  0  0  0  0
   -3.9340   -0.4590    0.3740 C   0  0  0  0  0  0  0  0  0  0  0  0
   -3.1810   -1.6320    0.9070 C   0  0  0  0  0  0  0  0  0  0  0  0
   -1.6880   -1.2250    0.8090 C   0  0  2  0  0  0  0  0  0  0  0  0
   -1.7510    0.3210    0.7210 C   0  0  1  0  0  0  0  0  0  0  0  0
   -0.6830    0.9630   -0.1500 C   0  0  2  0  0  0  0  0  0  0  0  0
    0.7600    0.5400    0.2500 C   0  0  1  0  0  0  0  0  0  0  0  0
    1.1980   -0.5980   -0.6720 C   0  0  2  0  0  0  0  0  0  0  0  0
    0.5540   -1.9240   -0.2680 C   0  0  0  0  0  0  0  0  0  0  0  0
   -0.9900   -1.9940   -0.3410 C   0  0  2  0  0  0  0  0  0  0  0  0
   -1.5270   -1.6420   -1.7290 C   0  0  0  0  0  0  0  0  0  0  0  0
   -1.3040   -3.3630   -0.2240 O   0  0  0  0  0  0  0  0  0  0  0  0
    2.5970   -0.7500   -0.7480 O   0  0  0  0  0  0  0  0  0  0  0  0
    3.3380   -1.1180    0.3280 C   0  0  0  0  0  0  0  0  0  0  0  0
    2.8690   -1.1520    1.4500 O   0  0  0  0  0  0  0  0  0  0  0  0
    4.7480   -1.4200   -0.0680 C   0  0  0  0  0  0  0  0  0  0  0  0
    1.5130    1.8250    0.1300 C   0  0  0  0  0  0  0  0  0  0  0  0
    2.8090    2.0920    0.1310 C   0  0  0  0  0  0  0  0  0  0  0  0
    0.4980    2.8980    0.0800 C   0  0  0  0  0  0  0  0  0  0  0  0
    0.6120    4.1030    0.0970 O   0  0  0  0  0  0  0  0  0  0  0  0
   -0.7620    2.3710    0.0230 O   0  0  0  0  0  0  0  0  0  0  0  0
  1  2  1  0
  2  3  2  0
  6  2  1  6
  3  4  1  0
  5  4  1  6
  5 11  1  0
  5  6  1  0
  6  7  1  0
  7 22  1  1
  7  8  1  0
  8  9  1  0
  8 18  1  6
  9 14  1  1
  9 10  1  0
 10 11  1  0
 11 12  1  6
 11 13  1  0
 14 15  1  0
 15 17  1  0
 15 16  2  0
 18 20  1  0
 18 19  2  0
 20 22  1  0
 20 21  2  0
M  END
>  <id>  (161) 
962

>  <scaffolds>  (161) 
['O=C1CCCO1', 'C=C1C(=O)OC2C1CCCC1CC=CC12']

>  <name>  (161) 
cumambrin A

>  <formula>  (161) 
C17H22O5

>  <SMILES>  (161) 
CC1=CC[C@@H]2[C@H]1[C@@H]3[C@@H]([C@H](C[C@@]2(C)O)OC(=O)C)C(=C)C(=O)O3

>  <ChEMBL_id>  (161) 
CHEMBL190755

>  <ZINC_id>  (161) 
ZINC4027543

>  <PubChem_id>  (161) 
174867

>  <DrugBank_id>  (161) 


>  <CAS_no>  (161) 
20482-33-1

>  <references>  (161) 
[{'journal': {'name': 'Phytochemistry', 'id': 10}, 'title': 'Bitter guaianolides from Eriocephalus punctulatus', 'year': 1992, 'start_page': None, 'volume': None, 'issue': None, 'doi': '10.1016/0031-9422(92)80391-Q', 'isbn': '', 'despositor': {'code': 'BND', 'first_name': "Bakary N'tji", 'last_name': 'Diallo', 'id': 26}, 'refauthors_set': [{'author': {'first_name': 'Davies-Coleman', 'initials': 'DM', 'last_name': 'Michael', 'id': 1020}, 'first_author': True, 'id': 1600}], 'id': 501}]

>  <classifications>  (161) 
[{'classification': 'Phenol lipids', 'id': 899}, {'classification': 'Phenol lipids (Classyfire)', 'id': 951}]

>  <molecular_mass>  (161) 
306.4

>  <warheads>  (161) 
ab_unsat_carbonyl:1;exo_methylene_carbonyl:1

>  <n_warheads>  (161) 
2

>  <max_tier>  (161) 
1

>  <pains_flag>  (161) 


>  <MW>  (161) 
306.4

>  <cLogP>  (161) 
1.75

>  <HBD>  (161) 
1

>  <HBA>  (161) 
5

>  <TPSA>  (161) 
72.8

>  <ArRings>  (161) 
0

$$$$
SANC00964_minRM1.pdb
     RDKit          3D

 49 53  0  0  1  0  0  0  0  0999 V2000
    4.5010    3.4550    0.7210 C   0  0  0  0  0  0  0  0  0  0  0  0
    3.2470    2.6790    0.5440 C   0  0  0  0  0  0  0  0  0  0  0  0
    3.3350    1.3110    0.3100 C   0  0  0  0  0  0  0  0  0  0  0  0
    2.1740    0.5740    0.0980 C   0  0  0  0  0  0  0  0  0  0  0  0
    0.8930    1.1500    0.0800 C   0  0  0  0  0  0  0  0  0  0  0  0
    0.8410    2.5030    0.4320 C   0  0  0  0  0  0  0  0  0  0  0  0
    1.9900    3.2840    0.6280 C   0  0  0  0  0  0  0  0  0  0  0  0
    1.8290    4.7100    0.9290 C   0  0  0  0  0  0  0  0  0  0  0  0
    2.7020    5.5510    0.7970 O   0  0  0  0  0  0  0  0  0  0  0  0
    0.4960    5.0700    1.4210 C   0  0  0  0  0  0  0  0  0  0  0  0
   -0.5240    4.2200    1.2540 C   0  0  0  0  0  0  0  0  0  0  0  0
   -0.4130    3.0240    0.6060 O   0  0  0  0  0  0  0  0  0  0  0  0
   -1.9250    4.4600    1.7070 C   0  0  0  0  0  0  0  0  0  0  0  0
   -2.6380    5.2510    0.6290 C   0  0  0  0  0  0  0  0  0  0  0  0
   -3.1150    4.6910   -0.3380 O   0  0  0  0  0  0  0  0  0  0  0  0
   -2.7050    6.7320    0.8250 C   0  0  0  0  0  0  0  0  0  0  0  0
   -0.2700    0.2390   -0.2170 C   0  0  1  0  0  0  0  0  0  0  0  0
   -1.6530    0.8980   -0.3810 C   0  0  1  0  0  0  0  0  0  0  0  0
   -1.9470    1.3860   -1.8220 C   0  0  2  0  0  0  0  0  0  0  0  0
   -1.5270    0.3390   -2.8770 C   0  0  1  0  0  0  0  0  0  0  0  0
   -0.1060   -0.1850   -2.5960 C   0  0  2  0  0  0  0  0  0  0  0  0
    0.0260   -0.6290   -1.2760 O   0  0  0  0  0  0  0  0  0  0  0  0
    0.9690    0.8350   -3.0260 C   0  0  0  0  0  0  0  0  0  0  0  0
    2.1530    0.1830   -3.3610 O   0  0  0  0  0  0  0  0  0  0  0  0
   -2.4560   -0.6930   -2.9320 O   0  0  0  0  0  0  0  0  0  0  0  0
   -1.1690    2.5110   -2.0830 O   0  0  0  0  0  0  0  0  0  0  0  0
   -2.6430   -0.0880   -0.1530 O   0  0  0  0  0  0  0  0  0  0  0  0
   -2.9870   -0.3930    1.1260 C   0  0  0  0  0  0  0  0  0  0  0  0
   -2.4010    0.1300    2.0600 O   0  0  0  0  0  0  0  0  0  0  0  0
   -4.0780   -1.3680    1.2280 C   0  0  0  0  0  0  0  0  0  0  0  0
   -4.7860   -1.8040    0.1820 C   0  0  0  0  0  0  0  0  0  0  0  0
   -5.8730   -2.7640    0.3460 C   0  0  0  0  0  0  0  0  0  0  0  0
   -7.0470   -2.5890   -0.3860 C   0  0  0  0  0  0  0  0  0  0  0  0
   -8.0950   -3.4870   -0.2350 C   0  0  0  0  0  0  0  0  0  0  0  0
   -7.9690   -4.5660    0.6340 C   0  0  0  0  0  0  0  0  0  0  0  0
   -6.7930   -4.7470    1.3510 C   0  0  0  0  0  0  0  0  0  0  0  0
   -5.7440   -3.8470    1.2110 C   0  0  0  0  0  0  0  0  0  0  0  0
    2.2390   -0.7690   -0.1640 O   0  0  0  0  0  0  0  0  0  0  0  0
    2.9300   -1.5360    0.7970 C   0  0  1  0  0  0  0  0  0  0  0  0
    2.2380   -2.9360    0.7810 C   0  0  1  0  0  0  0  0  0  0  0  0
    2.8840   -3.8920   -0.2540 C   0  0  2  0  0  0  0  0  0  0  0  0
    4.4390   -3.8940   -0.1760 C   0  0  1  0  0  0  0  0  0  0  0  0
    4.9650   -2.7020    0.6530 C   0  0  2  0  0  0  0  0  0  0  0  0
    4.2390   -1.5530    0.2930 O   0  0  0  0  0  0  0  0  0  0  0  0
    6.4310   -2.3680    0.2760 C   0  0  0  0  0  0  0  0  0  0  0  0
    7.2080   -3.5180    0.2080 O   0  0  0  0  0  0  0  0  0  0  0  0
    4.8760   -5.0260    0.5140 O   0  0  0  0  0  0  0  0  0  0  0  0
    2.4520   -3.5800   -1.5350 O   0  0  0  0  0  0  0  0  0  0  0  0
    2.4490   -3.5210    2.0290 O   0  0  0  0  0  0  0  0  0  0  0  0
  1  2  1  0
  2  3  1  0
  2  7  2  0
  3  4  2  0
  4 38  1  0
  4  5  1  0
 17  5  1  6
  5  6  2  0
  6 12  1  0
  6  7  1  0
  7  8  1  0
  8  9  2  0
  8 10  1  0
 10 11  2  0
 11 12  1  0
 11 13  1  0
 13 14  1  0
 14 15  2  0
 14 16  1  0
 17 22  1  0
 17 18  1  0
 18 19  1  0
 18 27  1  6
 19 20  1  0
 19 26  1  6
 20 25  1  1
 20 21  1  0
 21 23  1  1
 21 22  1  0
 23 24  1  0
 27 28  1  0
 28 30  1  0
 28 29  2  0
 30 31  2  0
 31 32  1  0
 32 33  2  0
 32 37  1  0
 33 34  1  0
 34 35  2  0
 35 36  1  0
 36 37  2  0
 39 38  1  6
 39 44  1  0
 39 40  1  0
 40 41  1  0
 40 49  1  1
 41 48  1  6
 41 42  1  0
 42 47  1  1
 42 43  1  0
 43 45  1  6
 43 44  1  0
 45 46  1  0
M  END
>  <id>  (162) 
964

>  <scaffolds>  (162) 
['c1ccccc1', 'C1CCOCC1', 'c1ccc(OC2CCCCO2)cc1', 'O=C(C=Cc1ccccc1)OC1CCCOC1c1cccc2c(=O)ccoc12', 'O=C(C=Cc1ccccc1)OC1CCCOC1c1c(OC2CCCCO2)ccc2c(=O)ccoc12', 'O=c1ccoc2ccccc12', 'O=C(C=Cc1ccccc1)OCCc1ccccc1', 'O=c1ccoc2c(C3CCCCO3)cccc12']

>  <name>  (162) 
Aloeresin E

>  <formula>  (162) 
C34H38O15

>  <SMILES>  (162) 
CC1=CC(=C(C2=C1C(=O)C=C(O2)CC(=O)C)[C@H]3[C@@H]([C@H]([C@@H]([C@H](O3)CO)O)O)OC(=O)/C=C/C4=CC=CC=C4)O[C@H]5[C@@H]([C@H]([C@@H]([C@H](O5)CO)O)O)O

>  <ChEMBL_id>  (162) 


>  <ZINC_id>  (162) 


>  <PubChem_id>  (162) 
102247458

>  <DrugBank_id>  (162) 


>  <CAS_no>  (162) 
182754-64-9

>  <references>  (162) 
[{'journal': {'name': 'Phytochemistry', 'id': 10}, 'title': 'Aloeresins E and F, two chromone derivatives from Aloe peglerae', 'year': 1996, 'start_page': None, 'volume': None, 'issue': None, 'doi': '10.1016/0031-9422(96)00302-0', 'isbn': '', 'despositor': {'code': 'BND', 'first_name': "Bakary N'tji", 'last_name': 'Diallo', 'id': 26}, 'refauthors_set': [{'author': {'first_name': 'Va', 'initials': 'VH', 'last_name': 'Heerden', 'id': 1021}, 'first_author': True, 'id': 1601}], 'id': 502}]

>  <classifications>  (162) 
[{'classification': 'Organooxygen compounds (Classyfire)', 'id': 954}]

>  <molecular_mass>  (162) 
686.7

>  <warheads>  (162) 
ab_unsat_carbonyl:1

>  <n_warheads>  (162) 
1

>  <max_tier>  (162) 
1

>  <pains_flag>  (162) 


>  <MW>  (162) 
686.7

>  <cLogP>  (162) 
-0.81

>  <HBD>  (162) 
7

>  <HBA>  (162) 
15

>  <TPSA>  (162) 
242.9

>  <ArRings>  (162) 
3

$$$$
SANC00965_minRM1.pdb
     RDKit          3D

 38 41  0  0  1  0  0  0  0  0999 V2000
   -6.0540   -1.3180    0.9010 C   0  0  0  0  0  0  0  0  0  0  0  0
   -4.6930   -0.7290    0.8510 C   0  0  0  0  0  0  0  0  0  0  0  0
   -4.4780    0.4910    1.4630 C   0  0  0  0  0  0  0  0  0  0  0  0
   -3.2190    1.1070    1.3790 C   0  0  0  0  0  0  0  0  0  0  0  0
   -2.1680    0.5570    0.6300 C   0  0  0  0  0  0  0  0  0  0  0  0
   -2.3730   -0.7600    0.1960 C   0  0  0  0  0  0  0  0  0  0  0  0
   -3.6210   -1.3920    0.2290 C   0  0  0  0  0  0  0  0  0  0  0  0
   -3.7630   -2.7160   -0.3760 C   0  0  0  0  0  0  0  0  0  0  0  0
   -4.8270   -3.2790   -0.5780 O   0  0  0  0  0  0  0  0  0  0  0  0
   -2.4990   -3.3570   -0.7470 C   0  0  0  0  0  0  0  0  0  0  0  0
   -1.3430   -2.6910   -0.6450 C   0  0  0  0  0  0  0  0  0  0  0  0
   -1.2430   -1.3960   -0.2350 O   0  0  0  0  0  0  0  0  0  0  0  0
    0.0010   -3.2560   -0.9610 C   0  0  0  0  0  0  0  0  0  0  0  0
    0.3360   -4.2660    0.1190 C   0  0  0  0  0  0  0  0  0  0  0  0
    0.6630   -3.9030    1.2300 O   0  0  0  0  0  0  0  0  0  0  0  0
    0.2510   -5.7110   -0.2670 C   0  0  0  0  0  0  0  0  0  0  0  0
   -0.8750    1.3160    0.4520 C   0  0  1  0  0  0  0  0  0  0  0  0
   -0.1870    1.1170   -0.9240 C   0  0  1  0  0  0  0  0  0  0  0  0
    0.1030    2.3730   -1.8030 C   0  0  2  0  0  0  0  0  0  0  0  0
   -0.1810    3.7340   -1.1250 C   0  0  1  0  0  0  0  0  0  0  0  0
   -1.3950    3.6010   -0.1940 C   0  0  2  0  0  0  0  0  0  0  0  0
   -1.0960    2.6580    0.8010 O   0  0  0  0  0  0  0  0  0  0  0  0
   -2.6830    3.3230   -0.9970 C   0  0  0  0  0  0  0  0  0  0  0  0
   -3.7620    4.0260   -0.4700 O   0  0  0  0  0  0  0  0  0  0  0  0
    0.9320    4.2070   -0.4560 O   0  0  0  0  0  0  0  0  0  0  0  0
   -0.7540    2.3360   -2.9060 O   0  0  0  0  0  0  0  0  0  0  0  0
    1.0150    0.3910   -0.7720 O   0  0  0  0  0  0  0  0  0  0  0  0
    2.0570    0.9590   -0.1070 C   0  0  0  0  0  0  0  0  0  0  0  0
    1.9050    2.0140    0.4940 O   0  0  0  0  0  0  0  0  0  0  0  0
    3.3040    0.1980   -0.2200 C   0  0  0  0  0  0  0  0  0  0  0  0
    4.3580    0.5800    0.5110 C   0  0  0  0  0  0  0  0  0  0  0  0
    5.6690   -0.0460    0.4150 C   0  0  0  0  0  0  0  0  0  0  0  0
    5.8160   -1.4010    0.1310 C   0  0  0  0  0  0  0  0  0  0  0  0
    7.0880   -1.9530    0.0360 C   0  0  0  0  0  0  0  0  0  0  0  0
    8.2120   -1.1600    0.2260 C   0  0  0  0  0  0  0  0  0  0  0  0
    8.0670    0.1910    0.5220 C   0  0  0  0  0  0  0  0  0  0  0  0
    6.8000    0.7480    0.6210 C   0  0  0  0  0  0  0  0  0  0  0  0
   -3.1300    2.2520    2.0770 O   0  0  0  0  0  0  0  0  0  0  0  0
  1  2  1  0
  2  7  2  0
  2  3  1  0
  3  4  2  0
  4  5  1  0
  4 38  1  0
  5  6  2  0
 17  5  1  6
  6 12  1  0
  6  7  1  0
  7  8  1  0
  8 10  1  0
  8  9  2  0
 10 11  2  0
 11 13  1  0
 11 12  1  0
 13 14  1  0
 14 16  1  0
 14 15  2  0
 17 18  1  0
 17 22  1  0
 18 19  1  0
 18 27  1  1
 19 26  1  6
 19 20  1  0
 20 25  1  1
 20 21  1  0
 21 23  1  6
 21 22  1  0
 23 24  1  0
 27 28  1  0
 28 30  1  0
 28 29  2  0
 30 31  2  0
 31 32  1  0
 32 33  2  0
 32 37  1  0
 33 34  1  0
 34 35  2  0
 35 36  1  0
 36 37  2  0
M  END
>  <id>  (163) 
965

>  <scaffolds>  (163) 
['c1ccccc1', 'C1CCOCC1', 'O=C(C=Cc1ccccc1)OC1CCCOC1c1cccc2c(=O)ccoc12', 'O=c1ccoc2ccccc12', 'O=C(C=Cc1ccccc1)OCCc1ccccc1', 'O=c1ccoc2c(C3CCCCO3)cccc12']

>  <name>  (163) 
Aloeresin F

>  <formula>  (163) 
C28H28O10

>  <SMILES>  (163) 
CC1=CC(=C(C2=C1C(=O)C=C(O2)CC(=O)C)[C@H]3[C@@H]([C@H]([C@@H]([C@H](O3)CO)O)O)OC(=O)/C=C/C4=CC=CC=C4)O

>  <ChEMBL_id>  (163) 


>  <ZINC_id>  (163) 


>  <PubChem_id>  (163) 
11813365

>  <DrugBank_id>  (163) 


>  <CAS_no>  (163) 
182754-88-7

>  <references>  (163) 
[{'journal': {'name': 'Phytochemistry', 'id': 10}, 'title': 'Aloeresins E and F, two chromone derivatives from Aloe peglerae', 'year': 1996, 'start_page': None, 'volume': None, 'issue': None, 'doi': '10.1016/0031-9422(96)00302-0', 'isbn': '', 'despositor': {'code': 'BND', 'first_name': "Bakary N'tji", 'last_name': 'Diallo', 'id': 26}, 'refauthors_set': [{'author': {'first_name': 'Va', 'initials': 'VH', 'last_name': 'Heerden', 'id': 1021}, 'first_author': True, 'id': 1601}], 'id': 502}]

>  <classifications>  (163) 
[{'classification': 'Organooxygen compounds (Classyfire)', 'id': 954}]

>  <molecular_mass>  (163) 
524.5

>  <warheads>  (163) 
ab_unsat_carbonyl:1

>  <n_warheads>  (163) 
1

>  <max_tier>  (163) 
1

>  <pains_flag>  (163) 


>  <MW>  (163) 
524.5

>  <cLogP>  (163) 
1.72

>  <HBD>  (163) 
4

>  <HBA>  (163) 
10

>  <TPSA>  (163) 
163.7

>  <ArRings>  (163) 
3

$$$$
SANC00984_minRM1.pdb
     RDKit          3D

 13 13  0  0  0  0  0  0  0  0999 V2000
    0.8920   -1.6180   -0.0810 C   0  0  0  0  0  0  0  0  0  0  0  0
    2.2680   -1.5300   -0.2210 C   0  0  0  0  0  0  0  0  0  0  0  0
    2.8900   -0.2820   -0.1270 C   0  0  0  0  0  0  0  0  0  0  0  0
    2.1160    0.8670    0.1040 C   0  0  0  0  0  0  0  0  0  0  0  0
    0.7340    0.7770    0.2330 C   0  0  0  0  0  0  0  0  0  0  0  0
    0.1260   -0.4720    0.1370 C   0  0  0  0  0  0  0  0  0  0  0  0
   -1.3190   -0.6030    0.2740 C   0  0  0  0  0  0  0  0  0  0  0  0
   -2.1690    0.2760   -0.2660 C   0  0  0  0  0  0  0  0  0  0  0  0
   -3.6190    0.0870   -0.0930 C   0  0  0  0  0  0  0  0  0  0  0  0
   -4.1660   -0.9450    0.2570 O   0  0  0  0  0  0  0  0  0  0  0  0
   -4.4600    1.1230   -0.3340 O   0  0  0  0  0  0  0  0  0  0  0  0
    2.7980    2.0440    0.1480 O   0  0  0  0  0  0  0  0  0  0  0  0
    4.2330   -0.2840   -0.2840 O   0  0  0  0  0  0  0  0  0  0  0  0
  1  2  2  0
  1  6  1  0
  2  3  1  0
  3 13  1  0
  3  4  2  0
  4 12  1  0
  4  5  1  0
  5  6  2  0
  6  7  1  0
  7  8  2  0
  8  9  1  0
  9 11  1  0
  9 10  2  0
M  END
>  <id>  (164) 
984

>  <scaffolds>  (164) 
['c1ccccc1']

>  <name>  (164) 
Caffeic acid

>  <formula>  (164) 
C9H8O4

>  <SMILES>  (164) 
C1=CC(=C(C=C1/C=C/C(=O)O)O)O

>  <ChEMBL_id>  (164) 
SCHEMBL23358

>  <ZINC_id>  (164) 
ZINC58172

>  <PubChem_id>  (164) 
689043

>  <DrugBank_id>  (164) 
DB01880

>  <CAS_no>  (164) 
331-39-5

>  <references>  (164) 
[{'journal': {'name': 'Food Chemistry', 'id': 64}, 'title': 'Antioxidant, antiinflammatory activities and HPLC analysis of South African Salvia species', 'year': 2010, 'start_page': None, 'volume': None, 'issue': None, 'doi': '10.1016/j.foodchem.2009.07.010', 'isbn': '', 'despositor': {'code': 'BND', 'first_name': "Bakary N'tji", 'last_name': 'Diallo', 'id': 26}, 'refauthors_set': [{'author': {'first_name': 'Kamatou', 'initials': 'KG', 'last_name': 'Guy', 'id': 1029}, 'first_author': True, 'id': 1610}], 'id': 511}]

>  <classifications>  (164) 
[{'classification': 'Cinnamic acids and derivatives (Classyfire)', 'id': 975}]

>  <molecular_mass>  (164) 
180.16

>  <warheads>  (164) 
ab_unsat_carbonyl:1

>  <n_warheads>  (164) 
1

>  <max_tier>  (164) 
1

>  <pains_flag>  (164) 
catechol_A(92)

>  <MW>  (164) 
180.2

>  <cLogP>  (164) 
1.2

>  <HBD>  (164) 
3

>  <HBA>  (164) 
3

>  <TPSA>  (164) 
77.8

>  <ArRings>  (164) 
1

$$$$
SANC00994_minRM1.pdb
     RDKit          3D

 19 20  0  0  1  0  0  0  0  0999 V2000
   -1.8890    0.9990    2.3920 C   0  0  0  0  0  0  0  0  0  0  0  0
   -1.4650    1.1800    0.9740 C   0  0  0  0  0  0  0  0  0  0  0  0
   -0.1790    1.0770    0.6300 C   0  0  0  0  0  0  0  0  0  0  0  0
    0.3500    1.3520   -0.7420 C   0  0  2  0  0  0  0  0  0  0  0  0
    1.5260    0.4340   -1.1320 C   0  0  2  0  0  0  0  0  0  0  0  0
    1.1760   -1.0670   -1.3350 C   0  0  2  0  0  0  0  0  0  0  0  0
   -0.2880   -1.4880   -1.4900 C   0  0  0  0  0  0  0  0  0  0  0  0
   -1.2200   -1.3660   -0.3270 C   0  0  0  0  0  0  0  0  0  0  0  0
   -0.9060   -1.7660    0.9010 C   0  0  0  0  0  0  0  0  0  0  0  0
   -2.6190   -0.9340   -0.7060 C   0  0  2  0  0  0  0  0  0  0  0  0
   -2.7060    0.5430   -1.1310 C   0  0  0  0  0  0  0  0  0  0  0  0
   -2.5640    1.5280    0.0260 C   0  0  0  0  0  0  0  0  0  0  0  0
   -3.4640   -1.1750    0.3840 O   0  0  0  0  0  0  0  0  0  0  0  0
    1.7650   -1.7960   -0.2710 O   0  0  0  0  0  0  0  0  0  0  0  0
    2.5800   -0.9850    0.4680 C   0  0  0  0  0  0  0  0  0  0  0  0
    3.1680   -1.4700    1.4090 O   0  0  0  0  0  0  0  0  0  0  0  0
    2.5820    0.3850   -0.0780 C   0  0  0  0  0  0  0  0  0  0  0  0
    3.4350    1.3280    0.2900 C   0  0  0  0  0  0  0  0  0  0  0  0
    0.7660    2.6830   -0.8410 O   0  0  0  0  0  0  0  0  0  0  0  0
  1  2  1  0
  2 12  1  0
  2  3  2  0
  3  4  1  0
  4  5  1  0
  4 19  1  1
  5  6  1  0
  5 17  1  1
  6  7  1  1
  6 14  1  0
  7  8  1  0
  8 10  1  0
  8  9  2  0
 10 11  1  0
 10 13  1  1
 11 12  1  0
 14 15  1  0
 15 17  1  0
 15 16  2  0
 17 18  2  0
M  END
>  <id>  (165) 
994

>  <scaffolds>  (165) 
['C=C1CCCC=CCC2C(=C)C(=O)OC2C1', 'O=C1CCCO1']

>  <name>  (165) 
Tanachin

>  <formula>  (165) 
C15H20O4

>  <SMILES>  (165) 
C/C/1=C\[C@H](C2[C@H](CC(=C)[C@H](CC1)O)OC(=O)C2=C)O

>  <ChEMBL_id>  (165) 


>  <ZINC_id>  (165) 


>  <PubChem_id>  (165) 
9992972

>  <DrugBank_id>  (165) 


>  <CAS_no>  (165) 
60362-95-0

>  <references>  (165) 
[{'journal': {'name': 'Journal of Ethnopharmacology', 'id': 7}, 'title': 'Isolation and identification of antiplasmodial sesquiterpene lactones from Oncosiphon piluliferum', 'year': 2007, 'start_page': None, 'volume': None, 'issue': None, 'doi': '10.1016/j.jep.2007.02.002', 'isbn': '', 'despositor': {'code': 'BND', 'first_name': "Bakary N'tji", 'last_name': 'Diallo', 'id': 26}, 'refauthors_set': [{'author': {'first_name': 'Pillay', 'initials': 'PP', 'last_name': 'Pamisha', 'id': 1035}, 'first_author': True, 'id': 1616}], 'id': 517}]

>  <classifications>  (165) 
[{'classification': 'Phenol lipids (Classyfire)', 'id': 951}]

>  <molecular_mass>  (165) 
264.32

>  <warheads>  (165) 
ab_unsat_carbonyl:1;exo_methylene_carbonyl:1

>  <n_warheads>  (165) 
2

>  <max_tier>  (165) 
1

>  <pains_flag>  (165) 


>  <MW>  (165) 
264.3

>  <cLogP>  (165) 
1.49

>  <HBD>  (165) 
2

>  <HBA>  (165) 
4

>  <TPSA>  (165) 
66.8

>  <ArRings>  (165) 
0

$$$$
SANC00995_minRM1.pdb
     RDKit          3D

 23 25  0  0  1  0  0  0  0  0999 V2000
   -0.4300   -3.1300    1.5040 C   0  0  0  0  0  0  0  0  0  0  0  0
    0.2530   -1.7910    1.2310 C   0  0  2  0  0  0  0  0  0  0  0  0
   -0.3500   -0.6680    2.0870 C   0  0  0  0  0  0  0  0  0  0  0  0
   -1.0220    0.4520    1.3010 C   0  0  0  0  0  0  0  0  0  0  0  0
   -1.8820   -0.1380    0.1910 C   0  0  2  0  0  0  0  0  0  0  0  0
   -0.9380   -0.7720   -0.8530 C   0  0  1  0  0  0  0  0  0  0  0  0
    0.3370   -1.4390   -0.2670 C   0  0  2  0  0  0  0  0  0  0  0  0
    0.7340   -2.6790   -1.0680 C   0  0  0  0  0  0  0  0  0  0  0  0
    1.4810   -0.3960   -0.4290 C   0  0  0  0  0  0  0  0  0  0  0  0
    2.8690   -0.9240   -0.0680 C   0  0  0  0  0  0  0  0  0  0  0  0
    3.8150    0.2000    0.0670 C   0  0  0  0  0  0  0  0  0  0  0  0
    4.5950    0.5180    1.1500 C   0  0  0  0  0  0  0  0  0  0  0  0
    5.3480    1.6320    0.8840 O   0  0  0  0  0  0  0  0  0  0  0  0
    5.0360    2.0260   -0.3920 C   0  0  0  0  0  0  0  0  0  0  0  0
    4.1030    1.1850   -0.9420 C   0  0  0  0  0  0  0  0  0  0  0  0
   -1.8000   -1.5880   -1.8140 C   0  0  0  0  0  0  0  0  0  0  0  0
   -2.8940   -0.7110   -2.4490 C   0  0  0  0  0  0  0  0  0  0  0  0
   -3.1440    0.5990   -1.7830 C   0  0  0  0  0  0  0  0  0  0  0  0
   -2.6650    0.8910   -0.5740 C   0  0  0  0  0  0  0  0  0  0  0  0
   -2.8960    2.2120    0.0380 C   0  0  0  0  0  0  0  0  0  0  0  0
   -2.0800    3.1040    0.1590 O   0  0  0  0  0  0  0  0  0  0  0  0
   -4.1380    2.4870    0.5100 O   0  0  0  0  0  0  0  0  0  0  0  0
   -2.9500   -1.0580    0.7910 C   0  0  0  0  0  0  0  0  0  0  0  0
  2  1  1  6
  2  7  1  0
  2  3  1  0
  3  4  1  0
  4  5  1  0
  5  6  1  0
  5 19  1  0
  5 23  1  1
  6 16  1  1
  6  7  1  0
  7  8  1  6
  7  9  1  0
  9 10  1  0
 10 11  1  0
 11 15  1  0
 11 12  2  0
 12 13  1  0
 13 14  1  0
 14 15  2  0
 16 17  1  0
 17 18  1  0
 18 19  2  0
 19 20  1  0
 20 21  2  0
 20 22  1  0
M  END
>  <id>  (166) 
995

>  <scaffolds>  (166) 
['C1=CC2CCCCC2CC1', 'C1=CCCCC1', 'c1ccoc1', 'C1CCCCC1', 'C1=CC2CCCC(CCc3ccoc3)C2CC1']

>  <name>  (166) 
Hardwickiic acid

>  <formula>  (166) 
C20H28O3

>  <SMILES>  (166) 
C[C@@H]1CC[C@@]2([C@@H]([C@@]1(C)CCC3=COC=C3)CCC=C2C(=O)O)C

>  <ChEMBL_id>  (166) 
CHEMBL461615

>  <ZINC_id>  (166) 
ZINC28536305

>  <PubChem_id>  (166) 
15559629

>  <DrugBank_id>  (166) 


>  <CAS_no>  (166) 
1782-65-6

>  <references>  (166) 
[{'journal': {'name': 'Heliyon', 'id': 79}, 'title': 'Volatiles from African species of Croton (Euphorbiaceae), including new diterpenes in essential oil from Croton gratissimus', 'year': 2019, 'start_page': None, 'volume': None, 'issue': None, 'doi': '10.1016/j.heliyon.2019.e02677', 'isbn': '', 'despositor': {'code': 'BND', 'first_name': "Bakary N'tji", 'last_name': 'Diallo', 'id': 26}, 'refauthors_set': [], 'id': 582}]

>  <classifications>  (166) 
[{'classification': 'Diterpene', 'id': 771}, {'classification': 'Phenol lipids (Classyfire)', 'id': 951}]

>  <molecular_mass>  (166) 
316.4

>  <warheads>  (166) 
ab_unsat_carbonyl:1

>  <n_warheads>  (166) 
1

>  <max_tier>  (166) 
1

>  <pains_flag>  (166) 


>  <MW>  (166) 
316.4

>  <cLogP>  (166) 
5.08

>  <HBD>  (166) 
1

>  <HBA>  (166) 
2

>  <TPSA>  (166) 
50.4

>  <ArRings>  (166) 
1

$$$$
SANC00999_minRM1.pdb
     RDKit          3D

 25 27  0  0  1  0  0  0  0  0999 V2000
    1.5090   -2.5970    2.7350 C   0  0  0  0  0  0  0  0  0  0  0  0
    0.9540   -2.5900    1.3600 C   0  0  0  0  0  0  0  0  0  0  0  0
    1.4840   -1.8860    0.3550 C   0  0  0  0  0  0  0  0  0  0  0  0
    2.6930   -1.0180    0.4910 C   0  0  0  0  0  0  0  0  0  0  0  0
    2.2930    0.4010    0.9370 C   0  0  2  0  0  0  0  0  0  0  0  0
    2.0610    1.3460   -0.2740 C   0  0  1  0  0  0  0  0  0  0  0  0
    1.0080    2.4130    0.0680 C   0  0  0  0  0  0  0  0  0  0  0  0
    1.1140    3.6210    0.0280 O   0  0  0  0  0  0  0  0  0  0  0  0
   -0.1570    1.8250    0.4190 O   0  0  0  0  0  0  0  0  0  0  0  0
   -1.3710    2.5610    0.3630 C   0  0  0  0  0  0  0  0  0  0  0  0
   -2.3820    1.4920    0.5850 C   0  0  0  0  0  0  0  0  0  0  0  0
   -2.8770    1.1170    1.7680 C   0  0  0  0  0  0  0  0  0  0  0  0
   -3.7250   -0.1140    1.6100 C   0  0  0  0  0  0  0  0  0  0  0  0
   -3.5140   -0.5950    0.1990 N   0  0  0  0  0  0  0  0  0  0  0  0
   -2.8820    0.5890   -0.5170 C   0  0  2  0  0  0  0  0  0  0  0  0
   -1.7240    0.0250   -1.3680 C   0  0  1  0  0  0  0  0  0  0  0  0
   -1.2010   -1.0870   -0.4170 C   0  0  1  0  0  0  0  0  0  0  0  0
   -2.5210   -1.7140    0.0950 C   0  0  0  0  0  0  0  0  0  0  0  0
   -0.4690   -2.0370   -1.1460 O   0  0  0  0  0  0  0  0  0  0  0  0
    0.8960   -2.0090   -0.9940 C   0  0  0  0  0  0  0  0  0  0  0  0
    1.5230   -2.1850   -2.0200 O   0  0  0  0  0  0  0  0  0  0  0  0
   -2.3060   -0.4940   -2.5230 O   0  0  0  0  0  0  0  0  0  0  0  0
    3.3290    2.0450   -0.7670 C   0  0  0  0  0  0  0  0  0  0  0  0
    1.4330    0.6420   -1.3050 O   0  0  0  0  0  0  0  0  0  0  0  0
    3.3360    0.9760    1.8870 C   0  0  0  0  0  0  0  0  0  0  0  0
  1  2  1  0
  2  3  2  0
  3 20  1  0
  3  4  1  0
  4  5  1  0
  5  6  1  0
  5 25  1  1
  6 24  1  0
  6 23  1  6
  6  7  1  0
  7  8  2  0
  7  9  1  0
  9 10  1  0
 10 11  1  0
 11 15  1  0
 11 12  2  0
 12 13  1  0
 14 13  1  0
 15 14  1  1
 14 18  1  0
 15 16  1  0
 16 22  1  6
 16 17  1  0
 17 19  1  0
 17 18  1  6
 19 20  1  0
 20 21  2  0
M  END
>  <id>  (167) 
999

>  <scaffolds>  (167) 
['C1CCNC1']

>  <name>  (167) 
Madurensine

>  <formula>  (167) 
C18H25NO6

>  <SMILES>  (167) 
C/C=C/1\C[C@H]([C@@](C(=O)OCC2=CCN3C2[C@@H]([C@@H](C3)OC1=O)O)(C)O)C

>  <ChEMBL_id>  (167) 


>  <ZINC_id>  (167) 


>  <PubChem_id>  (167) 
5459074

>  <DrugBank_id>  (167) 


>  <CAS_no>  (167) 
26126-78-3

>  <references>  (167) 
[{'journal': {'name': 'Journal of Ethnopharmacology', 'id': 7}, 'title': 'In vitro chemo-preventative activity of Crotalaria agatiflora subspecies agatiflora Schweinf', 'year': 2011, 'start_page': None, 'volume': None, 'issue': None, 'doi': '10.1016/j.jep.2011.10.011', 'isbn': '', 'despositor': {'code': 'BND', 'first_name': "Bakary N'tji", 'last_name': 'Diallo', 'id': 26}, 'refauthors_set': [{'author': {'first_name': 'Karlien', 'initials': 'KLR', 'last_name': 'Le Roux', 'id': 1038}, 'first_author': True, 'id': 1619}], 'id': 521}]

>  <classifications>  (167) 
[{'classification': 'Macrolides and analogues', 'id': 926}, {'classification': 'Macrolides and analogues (Classyfire)', 'id': 945}]

>  <molecular_mass>  (167) 
351.4

>  <warheads>  (167) 
ab_unsat_carbonyl:1

>  <n_warheads>  (167) 
1

>  <max_tier>  (167) 
1

>  <pains_flag>  (167) 


>  <MW>  (167) 
351.4

>  <cLogP>  (167) 
0.16

>  <HBD>  (167) 
2

>  <HBA>  (167) 
7

>  <TPSA>  (167) 
96.3

>  <ArRings>  (167) 
0

$$$$
SANC01001_minRM1.pdb
     RDKit          3D

 35 38  0  0  1  0  0  0  0  0999 V2000
   -0.3650    0.2240   -1.6980 C   0  0  0  0  0  0  0  0  0  0  0  0
    0.6340   -0.6740   -0.9820 C   0  0  2  0  0  0  0  0  0  0  0  0
    0.8810   -2.0060   -1.7240 C   0  0  0  0  0  0  0  0  0  0  0  0
    0.6870   -3.1260   -0.6910 C   0  0  2  0  0  0  0  0  0  0  0  0
    0.8890   -2.4260    0.6850 C   0  0  1  0  0  0  0  0  0  0  0  0
    0.2330   -1.0460    0.4760 C   0  0  2  0  0  0  0  0  0  0  0  0
   -1.2870   -1.1910    0.6710 C   0  0  1  0  0  0  0  0  0  0  0  0
   -1.6320   -1.7830    1.9150 O   0  0  0  0  0  0  0  0  0  0  0  0
   -0.8890   -2.8330    2.3360 C   0  0  0  0  0  0  0  0  0  0  0  0
    0.2720   -3.2070    1.7940 C   0  0  0  0  0  0  0  0  0  0  0  0
   -1.7810    0.1130    0.8200 O   0  0  0  0  0  0  0  0  0  0  0  0
   -3.1750    0.2580    0.8560 C   0  0  1  0  0  0  0  0  0  0  0  0
   -3.3980    1.7640    1.1760 C   0  0  1  0  0  0  0  0  0  0  0  0
   -4.8960    2.0840    0.9580 C   0  0  2  0  0  0  0  0  0  0  0  0
   -5.2730    1.6740   -0.4890 C   0  0  1  0  0  0  0  0  0  0  0  0
   -4.9520    0.1690   -0.6750 C   0  0  2  0  0  0  0  0  0  0  0  0
   -3.5750   -0.0200   -0.4650 O   0  0  0  0  0  0  0  0  0  0  0  0
   -5.1930   -0.2910   -2.1360 C   0  0  0  0  0  0  0  0  0  0  0  0
   -6.4870   -0.7720   -2.2890 O   0  0  0  0  0  0  0  0  0  0  0  0
   -6.6490    1.7870   -0.6780 O   0  0  0  0  0  0  0  0  0  0  0  0
   -5.1110    3.4600    1.0140 O   0  0  0  0  0  0  0  0  0  0  0  0
   -3.1640    1.9990    2.5290 O   0  0  0  0  0  0  0  0  0  0  0  0
    2.2300   -2.1660    0.9540 O   0  0  0  0  0  0  0  0  0  0  0  0
    1.6620   -4.0980   -0.9080 O   0  0  0  0  0  0  0  0  0  0  0  0
    1.8400    0.0390   -0.7710 O   0  0  0  0  0  0  0  0  0  0  0  0
    2.6400    0.4060   -1.8000 C   0  0  0  0  0  0  0  0  0  0  0  0
    2.3140    0.2440   -2.9630 O   0  0  0  0  0  0  0  0  0  0  0  0
    3.8920    1.0190   -1.3290 C   0  0  0  0  0  0  0  0  0  0  0  0
    4.4990    0.6230   -0.2080 C   0  0  0  0  0  0  0  0  0  0  0  0
    5.7620    1.2110    0.2250 C   0  0  0  0  0  0  0  0  0  0  0  0
    6.7800    1.4610   -0.6920 C   0  0  0  0  0  0  0  0  0  0  0  0
    7.9780    2.0180   -0.2580 C   0  0  0  0  0  0  0  0  0  0  0  0
    8.1580    2.3270    1.0840 C   0  0  0  0  0  0  0  0  0  0  0  0
    7.1420    2.0730    1.9990 C   0  0  0  0  0  0  0  0  0  0  0  0
    5.9470    1.5100    1.5740 C   0  0  0  0  0  0  0  0  0  0  0  0
  2  1  1  6
  2  3  1  0
  2 25  1  0
  2  6  1  0
  3  4  1  0
  4 24  1  6
  4  5  1  0
  5  6  1  0
  5 23  1  1
  5 10  1  0
  6  7  1  6
  7 11  1  1
  7  8  1  0
  8  9  1  0
  9 10  2  0
 12 11  1  6
 12 17  1  0
 12 13  1  0
 13 14  1  0
 13 22  1  1
 14 15  1  0
 14 21  1  6
 15 20  1  1
 15 16  1  0
 16 18  1  6
 16 17  1  0
 18 19  1  0
 25 26  1  0
 26 27  2  0
 26 28  1  0
 28 29  2  0
 29 30  1  0
 30 31  2  0
 30 35  1  0
 31 32  1  0
 32 33  2  0
 33 34  1  0
 34 35  2  0
M  END
>  <id>  (168) 
1001

>  <scaffolds>  (168) 
['c1ccccc1', 'C1CCOCC1', 'C1=CC2CCCC2C(OC2CCCCO2)O1', 'O=C(C=Cc1ccccc1)OC1CCC2C=COC(OC3CCCCO3)C21']

>  <name>  (168) 
Harpagoside

>  <formula>  (168) 
C24H30O11

>  <SMILES>  (168) 
C[C@@]1(C[C@H]([C@]2([C@@H]1[C@@H](OC=C2)O[C@H]3[C@@H]([C@H]([C@@H]([C@H](O3)CO)O)O)O)O)O)OC(=O)/C=C/C4=CC=CC=C4

>  <ChEMBL_id>  (168) 
CHEMBL516702

>  <ZINC_id>  (168) 
ZINC8214398

>  <PubChem_id>  (168) 
5281542

>  <DrugBank_id>  (168) 


>  <CAS_no>  (168) 
19210-12-9

>  <references>  (168) 
[{'journal': {'name': 'Journal of Ethnopharmacology', 'id': 7}, 'title': "Devil's Claw - A review of the ethnobotany, phytochemistry and biological activity of Harpagophytum procumbens", 'year': 2012, 'start_page': None, 'volume': None, 'issue': None, 'doi': '10.1016/j.jep.2012.08.013', 'isbn': '', 'despositor': {'code': 'BND', 'first_name': "Bakary N'tji", 'last_name': 'Diallo', 'id': 26}, 'refauthors_set': [{'author': {'first_name': 'Mncwangi', 'initials': 'MN', 'last_name': 'Nontobeko', 'id': 1039}, 'first_author': True, 'id': 1620}], 'id': 522}]

>  <classifications>  (168) 
[{'classification': 'Glycoside', 'id': 781}, {'classification': 'Phenol lipids (Classyfire)', 'id': 951}]

>  <molecular_mass>  (168) 
494.5

>  <warheads>  (168) 
ab_unsat_carbonyl:1

>  <n_warheads>  (168) 
1

>  <max_tier>  (168) 
1

>  <pains_flag>  (168) 


>  <MW>  (168) 
494.5

>  <cLogP>  (168) 
-1.2

>  <HBD>  (168) 
6

>  <HBA>  (168) 
11

>  <TPSA>  (168) 
175.4

>  <ArRings>  (168) 
1

$$$$
SANC01010_minRM1.pdb
     RDKit          3D

 14 14  0  0  0  0  0  0  0  0999 V2000
   -0.3450   -2.6540    0.4470 C   0  0  0  0  0  0  0  0  0  0  0  0
   -1.1460   -1.4190    0.2230 C   0  0  0  0  0  0  0  0  0  0  0  0
   -0.5820   -0.2090    0.2840 C   0  0  0  0  0  0  0  0  0  0  0  0
   -1.3220    1.0770    0.0720 C   0  0  0  0  0  0  0  0  0  0  0  0
   -2.8380    0.8480    0.1250 C   0  0  0  0  0  0  0  0  0  0  0  0
   -3.2350   -0.3850   -0.6710 C   0  0  0  0  0  0  0  0  0  0  0  0
   -2.5950   -1.6210   -0.0530 C   0  0  0  0  0  0  0  0  0  0  0  0
   -0.9480    2.0840    1.1640 C   0  0  0  0  0  0  0  0  0  0  0  0
   -0.9160    1.6480   -1.2880 C   0  0  0  0  0  0  0  0  0  0  0  0
    0.8490   -0.0740    0.5650 C   0  0  0  0  0  0  0  0  0  0  0  0
    1.7620   -0.2130   -0.3940 C   0  0  0  0  0  0  0  0  0  0  0  0
    3.2090   -0.0950   -0.1330 C   0  0  0  0  0  0  0  0  0  0  0  0
    4.0200   -0.7510   -0.7650 O   0  0  0  0  0  0  0  0  0  0  0  0
    3.6410    0.8720    0.9300 C   0  0  0  0  0  0  0  0  0  0  0  0
  1  2  1  0
  2  7  1  0
  2  3  2  0
  3  4  1  0
  3 10  1  0
  4  9  1  0
  4  5  1  0
  4  8  1  0
  5  6  1  0
  6  7  1  0
 10 11  2  0
 11 12  1  0
 12 13  2  0
 12 14  1  0
M  END
>  <id>  (169) 
1010

>  <scaffolds>  (169) 
['C1=CCCCC1']

>  <name>  (169) 
[beta]-ionone

>  <formula>  (169) 
C13H20O

>  <SMILES>  (169) 
CC1=C(C(CCC1)(C)C)/C=C/C(=O)C

>  <ChEMBL_id>  (169) 
CHEMBL559945

>  <ZINC_id>  (169) 
ZINC3881456

>  <PubChem_id>  (169) 
638014

>  <DrugBank_id>  (169) 


>  <CAS_no>  (169) 
79-77-6

>  <references>  (169) 
[{'journal': {'name': 'Journal of Ethnopharmacology', 'id': 7}, 'title': 'Lawsonia inermis L. (henna): Ethnobotanical, phytochemical and pharmacological aspects', 'year': 2014, 'start_page': None, 'volume': None, 'issue': None, 'doi': '10.1016/j.jep.2014.05.042', 'isbn': '', 'despositor': {'code': 'BND', 'first_name': "Bakary N'tji", 'last_name': 'Diallo', 'id': 26}, 'refauthors_set': [{'author': {'first_name': 'Ruchi Badoni ', 'initials': 'RBS', 'last_name': 'Semwal', 'id': 1042}, 'first_author': True, 'id': 1623}], 'id': 525}]

>  <classifications>  (169) 
[{'classification': 'Norisoprenoids', 'id': 917}, {'classification': 'Phenol lipids (Classyfire)', 'id': 951}]

>  <molecular_mass>  (169) 
192.3

>  <warheads>  (169) 
ab_unsat_carbonyl:1

>  <n_warheads>  (169) 
1

>  <max_tier>  (169) 
1

>  <pains_flag>  (169) 


>  <MW>  (169) 
192.3

>  <cLogP>  (169) 
3.66

>  <HBD>  (169) 
0

>  <HBA>  (169) 
1

>  <TPSA>  (169) 
17.1

>  <ArRings>  (169) 
0

$$$$
SANC01026_minRM1.pdb
     RDKit          3D

 14 14  0  0  0  0  0  0  0  0999 V2000
    2.5940   -1.4400    1.2920 C   0  0  0  0  0  0  0  0  0  0  0  0
    1.9790   -0.4590    0.3660 C   0  0  0  0  0  0  0  0  0  0  0  0
    2.3870    0.8070    0.2630 C   0  0  0  0  0  0  0  0  0  0  0  0
    1.7280    1.7410   -0.6710 C   0  0  0  0  0  0  0  0  0  0  0  0
    2.2360    2.8050   -0.9770 O   0  0  0  0  0  0  0  0  0  0  0  0
    0.4100    1.3330   -1.1980 C   0  0  0  0  0  0  0  0  0  0  0  0
   -0.0060    0.0690   -1.0970 C   0  0  0  0  0  0  0  0  0  0  0  0
    0.8700   -0.9610   -0.4850 C   0  0  0  0  0  0  0  0  0  0  0  0
    0.7060   -2.1490   -0.6870 O   0  0  0  0  0  0  0  0  0  0  0  0
   -1.3350   -0.4000   -1.5860 C   0  0  0  0  0  0  0  0  0  0  0  0
   -2.0760   -1.0090   -0.4430 C   0  0  0  0  0  0  0  0  0  0  0  0
   -2.8270   -0.3000    0.4030 C   0  0  0  0  0  0  0  0  0  0  0  0
   -3.0030    1.1720    0.2870 C   0  0  0  0  0  0  0  0  0  0  0  0
   -3.5560   -0.9490    1.5260 C   0  0  0  0  0  0  0  0  0  0  0  0
  1  2  1  0
  2  8  1  0
  2  3  2  0
  3  4  1  0
  4  6  1  0
  4  5  2  0
  6  7  2  0
  7 10  1  0
  7  8  1  0
  8  9  2  0
 10 11  1  0
 11 12  2  3
 12 13  1  0
 12 14  1  0
M  END
>  <id>  (170) 
1026

>  <scaffolds>  (170) 
[]

>  <name>  (170) 
2-methyl-6-(3-methyl-2-butenyl)benzo-1,4-quinone

>  <formula>  (170) 
C12H14O2

>  <SMILES>  (170) 
CC1=CC(=O)C=C(C1=O)CC=C(C)C

>  <ChEMBL_id>  (170) 


>  <ZINC_id>  (170) 


>  <PubChem_id>  (170) 
6480938

>  <DrugBank_id>  (170) 


>  <CAS_no>  (170) 
131221-81-3

>  <references>  (170) 
[{'journal': {'name': 'Phytochemistry', 'id': 10}, 'title': 'Simple 1,4-benzoquinones with antibacterial activity from stems and leaves of Gunnera perpensa', 'year': 2005, 'start_page': None, 'volume': None, 'issue': None, 'doi': '10.1016/j.phytochem.2005.05.024', 'isbn': '', 'despositor': {'code': 'BND', 'first_name': "Bakary N'tji", 'last_name': 'Diallo', 'id': 26}, 'refauthors_set': [{'author': {'first_name': 'Drewes', 'initials': 'DS', 'last_name': 'Siegfried', 'id': 1047}, 'first_author': True, 'id': 1628}], 'id': 530}]

>  <classifications>  (170) 
[{'classification': 'Phenol lipids', 'id': 899}, {'classification': 'Phenol lipids (Classyfire)', 'id': 951}]

>  <molecular_mass>  (170) 
190.24

>  <warheads>  (170) 
ab_unsat_carbonyl:4;para_quinone:1

>  <n_warheads>  (170) 
5

>  <max_tier>  (170) 
2

>  <pains_flag>  (170) 
quinone_A(370)

>  <MW>  (170) 
190.2

>  <cLogP>  (170) 
2.37

>  <HBD>  (170) 
0

>  <HBA>  (170) 
2

>  <TPSA>  (170) 
34.1

>  <ArRings>  (170) 
0

$$$$
SANC01036_minRM1.pdb
     RDKit          3D

 21 23  0  0  1  0  0  0  0  0999 V2000
   -4.3790   -0.6390   -0.5500 C   0  0  0  0  0  0  0  0  0  0  0  0
   -3.1820   -0.6750   -1.4210 N   0  0  0  0  0  0  0  0  0  0  0  0
   -2.5740   -2.0400   -1.4640 C   0  0  0  0  0  0  0  0  0  0  0  0
   -1.2320   -2.0130   -0.7120 C   0  0  0  0  0  0  0  0  0  0  0  0
   -1.0760   -0.5850   -0.1450 C   0  0  1  0  0  0  0  0  0  0  0  0
   -2.0600    0.2280   -1.0240 C   0  0  2  0  0  0  0  0  0  0  0  0
   -2.4930    1.5380   -0.3790 C   0  0  0  0  0  0  0  0  0  0  0  0
   -2.9610    1.3640    1.0380 C   0  0  0  0  0  0  0  0  0  0  0  0
   -3.8350    2.0700    1.5100 O   0  0  0  0  0  0  0  0  0  0  0  0
   -2.2840    0.3340    1.8410 C   0  0  0  0  0  0  0  0  0  0  0  0
   -1.4450   -0.5490    1.3050 C   0  0  0  0  0  0  0  0  0  0  0  0
    0.3550   -0.1280   -0.2070 C   0  0  0  0  0  0  0  0  0  0  0  0
    1.3430   -1.0120    0.2510 C   0  0  0  0  0  0  0  0  0  0  0  0
    2.6720   -0.6320    0.2160 C   0  0  0  0  0  0  0  0  0  0  0  0
    3.0380    0.6470   -0.2700 C   0  0  0  0  0  0  0  0  0  0  0  0
    2.0580    1.5220   -0.7000 C   0  0  0  0  0  0  0  0  0  0  0  0
    0.7170    1.1290   -0.6570 C   0  0  0  0  0  0  0  0  0  0  0  0
    4.3780    0.8850   -0.2360 O   0  0  0  0  0  0  0  0  0  0  0  0
    4.8250    2.0660   -0.8530 C   0  0  0  0  0  0  0  0  0  0  0  0
    3.7360   -1.3990    0.5880 O   0  0  0  0  0  0  0  0  0  0  0  0
    3.4530   -2.5390    1.3600 C   0  0  0  0  0  0  0  0  0  0  0  0
  1  2  1  0
  2  3  1  0
  2  6  1  0
  3  4  1  0
  4  5  1  0
  5  6  1  0
  5 12  1  1
  5 11  1  0
  6  7  1  1
  7  8  1  0
  8  9  2  0
  8 10  1  0
 10 11  2  0
 12 17  1  0
 12 13  2  0
 13 14  1  0
 14 15  2  0
 14 20  1  0
 15 16  1  0
 15 18  1  0
 16 17  2  0
 18 19  1  0
 20 21  1  0
M  END
>  <id>  (171) 
1036

>  <scaffolds>  (171) 
['c1ccccc1', 'C1=CCCCC1', 'O=C1C=CCCC1', 'O=C1C=CC2(c3ccccc3)CCNC2C1', 'C1CCNC1']

>  <name>  (171) 
Mesembrenone

>  <formula>  (171) 
C17H21NO3

>  <SMILES>  (171) 
CN1CC[C@]2([C@@H]1CC(=O)C=C2)C3=CC(=C(C=C3)OC)OC

>  <ChEMBL_id>  (171) 
SCHEMBL226088

>  <ZINC_id>  (171) 
ZINC56871300

>  <PubChem_id>  (171) 
216272

>  <DrugBank_id>  (171) 


>  <CAS_no>  (171) 
468-54-2

>  <references>  (171) 
[{'journal': {'name': 'Phytochemistry Letters', 'id': 39}, 'title': 'Isolation of Sceletium alkaloids by high-speed countercurrent chromatography', 'year': 2011, 'start_page': None, 'volume': None, 'issue': None, 'doi': '10.1016/j.phytol.2011.03.003', 'isbn': '', 'despositor': {'code': 'BND', 'first_name': "Bakary N'tji", 'last_name': 'Diallo', 'id': 26}, 'refauthors_set': [{'author': {'first_name': 'Shikanga', 'initials': 'SE', 'last_name': 'Emmanuel', 'id': 1050}, 'first_author': True, 'id': 1631}], 'id': 533}]

>  <classifications>  (171) 
[{'classification': 'Pyrrolidines (Classyfire)', 'id': 1012}]

>  <molecular_mass>  (171) 
287.35

>  <warheads>  (171) 
ab_unsat_carbonyl:1

>  <n_warheads>  (171) 
1

>  <max_tier>  (171) 
1

>  <pains_flag>  (171) 


>  <MW>  (171) 
287.4

>  <cLogP>  (171) 
2.17

>  <HBD>  (171) 
0

>  <HBA>  (171) 
4

>  <TPSA>  (171) 
38.8

>  <ArRings>  (171) 
1

$$$$
SANC01040_minRM1.pdb
     RDKit          3D

 12 12  0  0  0  0  0  0  0  0999 V2000
    4.2910    1.0000    0.0610 C   0  0  0  0  0  0  0  0  0  0  0  0
    2.9020    0.7970   -0.0590 O   0  0  0  0  0  0  0  0  0  0  0  0
    2.4550   -0.4870   -0.0140 C   0  0  0  0  0  0  0  0  0  0  0  0
    3.2470   -1.4040    0.1180 O   0  0  0  0  0  0  0  0  0  0  0  0
    0.9980   -0.6010   -0.1550 C   0  0  0  0  0  0  0  0  0  0  0  0
    0.1570    0.3450    0.2690 C   0  0  0  0  0  0  0  0  0  0  0  0
   -1.2890    0.1960    0.1440 C   0  0  0  0  0  0  0  0  0  0  0  0
   -2.0540    1.2940   -0.2480 C   0  0  0  0  0  0  0  0  0  0  0  0
   -3.4300    1.1650   -0.3770 C   0  0  0  0  0  0  0  0  0  0  0  0
   -4.0460   -0.0520   -0.1050 C   0  0  0  0  0  0  0  0  0  0  0  0
   -3.2840   -1.1410    0.2970 C   0  0  0  0  0  0  0  0  0  0  0  0
   -1.9050   -1.0210    0.4220 C   0  0  0  0  0  0  0  0  0  0  0  0
  1  2  1  0
  2  3  1  0
  3  5  1  0
  3  4  2  0
  5  6  2  0
  6  7  1  0
  7  8  2  0
  7 12  1  0
  8  9  1  0
  9 10  2  0
 10 11  1  0
 11 12  2  0
M  END
>  <id>  (172) 
1040

>  <scaffolds>  (172) 
['c1ccccc1']

>  <name>  (172) 
Methyl cinnamate

>  <formula>  (172) 
C10H10O2

>  <SMILES>  (172) 
COC(=O)/C=C/C1=CC=CC=C1

>  <ChEMBL_id>  (172) 
SCHEMBL101530

>  <ZINC_id>  (172) 
ZINC896129

>  <PubChem_id>  (172) 
637520

>  <DrugBank_id>  (172) 


>  <CAS_no>  (172) 
103-26-4

>  <references>  (172) 
[{'journal': {'name': 'Phytochemistry Letters', 'id': 39}, 'title': 'Antibacterial activity of an epoxidised prenylated cinnamaldehdye derivative from Vepris glomerata', 'year': 2012, 'start_page': None, 'volume': None, 'issue': None, 'doi': '10.1016/j.phytol.2012.03.017', 'isbn': '', 'despositor': {'code': 'BND', 'first_name': "Bakary N'tji", 'last_name': 'Diallo', 'id': 26}, 'refauthors_set': [{'author': {'first_name': 'Kiplimo', 'initials': 'KJ', 'last_name': 'Joyce', 'id': 1052}, 'first_author': True, 'id': 1633}], 'id': 535}]

>  <classifications>  (172) 
[{'classification': 'Cinnamic acids and derivatives (Classyfire)', 'id': 975}]

>  <molecular_mass>  (172) 
162.18

>  <warheads>  (172) 
ab_unsat_carbonyl:1

>  <n_warheads>  (172) 
1

>  <max_tier>  (172) 
1

>  <pains_flag>  (172) 


>  <MW>  (172) 
162.2

>  <cLogP>  (172) 
1.87

>  <HBD>  (172) 
0

>  <HBA>  (172) 
2

>  <TPSA>  (172) 
26.3

>  <ArRings>  (172) 
1

$$$$
SANC01049_minRM1.pdb
     RDKit          3D

 50 54  0  0  1  0  0  0  0  0999 V2000
    4.6340   -3.6210    0.1200 C   0  0  0  0  0  0  0  0  0  0  0  0
    3.6820   -2.4830    0.0370 C   0  0  0  0  0  0  0  0  0  0  0  0
    2.3260   -2.7570    0.1610 C   0  0  0  0  0  0  0  0  0  0  0  0
    1.3960   -1.7220    0.0750 C   0  0  0  0  0  0  0  0  0  0  0  0
    1.7810   -0.3950   -0.1680 C   0  0  0  0  0  0  0  0  0  0  0  0
    3.1570   -0.1500   -0.2480 C   0  0  0  0  0  0  0  0  0  0  0  0
    4.1200   -1.1680   -0.1590 C   0  0  0  0  0  0  0  0  0  0  0  0
    5.5370   -0.8190   -0.2840 C   0  0  0  0  0  0  0  0  0  0  0  0
    6.4560   -1.6220   -0.2150 O   0  0  0  0  0  0  0  0  0  0  0  0
    5.8070    0.6020   -0.4950 C   0  0  0  0  0  0  0  0  0  0  0  0
    4.8030    1.4870   -0.5320 C   0  0  0  0  0  0  0  0  0  0  0  0
    3.4870    1.1620   -0.4190 O   0  0  0  0  0  0  0  0  0  0  0  0
    4.9660    2.9570   -0.7200 C   0  0  0  0  0  0  0  0  0  0  0  0
    6.1310    3.4700    0.0970 C   0  0  0  0  0  0  0  0  0  0  0  0
    6.9570    4.2160   -0.3910 O   0  0  0  0  0  0  0  0  0  0  0  0
    6.1830    3.0380    1.5300 C   0  0  0  0  0  0  0  0  0  0  0  0
    0.7160    0.6500   -0.3480 C   0  0  1  0  0  0  0  0  0  0  0  0
    0.1380    1.0510    1.0390 C   0  0  1  0  0  0  0  0  0  0  0  0
    0.8150    2.3230    1.5970 C   0  0  2  0  0  0  0  0  0  0  0  0
    0.8110    3.4750    0.5480 C   0  0  1  0  0  0  0  0  0  0  0  0
    0.5740    2.9310   -0.8840 C   0  0  2  0  0  0  0  0  0  0  0  0
    1.2870    1.7350   -1.0390 O   0  0  0  0  0  0  0  0  0  0  0  0
    1.1670    3.8880   -1.9460 C   0  0  0  0  0  0  0  0  0  0  0  0
    1.0190    3.4020   -3.2390 O   0  0  0  0  0  0  0  0  0  0  0  0
   -0.2460    4.3050    0.9300 O   0  0  0  0  0  0  0  0  0  0  0  0
    2.1350    1.9440    1.8520 O   0  0  0  0  0  0  0  0  0  0  0  0
   -1.2190    1.3520    0.7790 O   0  0  0  0  0  0  0  0  0  0  0  0
   -2.0910    1.4280    1.8190 C   0  0  0  0  0  0  0  0  0  0  0  0
   -1.7210    1.1940    2.9560 O   0  0  0  0  0  0  0  0  0  0  0  0
   -3.4520    1.8090    1.4170 C   0  0  0  0  0  0  0  0  0  0  0  0
   -3.8530    1.9030    0.1460 C   0  0  0  0  0  0  0  0  0  0  0  0
   -5.2140    2.2950   -0.2000 C   0  0  0  0  0  0  0  0  0  0  0  0
   -5.4160    3.1610   -1.2790 C   0  0  0  0  0  0  0  0  0  0  0  0
   -6.6920    3.5640   -1.6270 C   0  0  0  0  0  0  0  0  0  0  0  0
   -7.7760    3.0760   -0.8870 C   0  0  0  0  0  0  0  0  0  0  0  0
   -7.5930    2.1990    0.1830 C   0  0  0  0  0  0  0  0  0  0  0  0
   -6.3020    1.8140    0.5210 C   0  0  0  0  0  0  0  0  0  0  0  0
   -8.9920    3.5140   -1.2900 O   0  0  0  0  0  0  0  0  0  0  0  0
    0.0510   -1.8900    0.2160 O   0  0  0  0  0  0  0  0  0  0  0  0
   -0.4410   -3.1550    0.5760 C   0  0  1  0  0  0  0  0  0  0  0  0
   -1.9290   -2.9000    0.9520 C   0  0  1  0  0  0  0  0  0  0  0  0
   -2.6350   -4.2760    1.0540 C   0  0  2  0  0  0  0  0  0  0  0  0
   -2.4390   -5.0380   -0.2810 C   0  0  1  0  0  0  0  0  0  0  0  0
   -0.9230   -5.1580   -0.5660 C   0  0  2  0  0  0  0  0  0  0  0  0
   -0.3540   -3.8750   -0.6300 O   0  0  0  0  0  0  0  0  0  0  0  0
   -0.6540   -5.7490   -1.9720 C   0  0  0  0  0  0  0  0  0  0  0  0
   -1.1790   -7.0350   -2.0640 O   0  0  0  0  0  0  0  0  0  0  0  0
   -2.9780   -6.3010   -0.0460 O   0  0  0  0  0  0  0  0  0  0  0  0
   -3.9820   -3.9720    1.2450 O   0  0  0  0  0  0  0  0  0  0  0  0
   -1.8720   -2.3080    2.2100 O   0  0  0  0  0  0  0  0  0  0  0  0
  1  2  1  0
  2  7  2  0
  2  3  1  0
  3  4  2  0
  4  5  1  0
  4 39  1  0
 17  5  1  1
  5  6  2  0
  6 12  1  0
  6  7  1  0
  7  8  1  0
  8 10  1  0
  8  9  2  0
 10 11  2  0
 11 13  1  0
 11 12  1  0
 13 14  1  0
 14 15  2  0
 14 16  1  0
 17 22  1  0
 17 18  1  0
 18 27  1  6
 18 19  1  0
 19 20  1  0
 19 26  1  6
 20 21  1  0
 20 25  1  1
 21 23  1  6
 21 22  1  0
 23 24  1  0
 27 28  1  0
 28 30  1  0
 28 29  2  0
 30 31  2  0
 31 32  1  0
 32 33  1  0
 32 37  2  0
 33 34  2  0
 34 35  1  0
 35 38  1  0
 35 36  2  0
 36 37  1  0
 40 39  1  6
 40 45  1  0
 40 41  1  0
 41 42  1  0
 41 50  1  1
 42 43  1  0
 42 49  1  6
 43 44  1  0
 43 48  1  1
 44 46  1  6
 44 45  1  0
 46 47  1  0
M  END
>  <id>  (173) 
1049

>  <scaffolds>  (173) 
['c1ccccc1', 'C1CCOCC1', 'c1ccc(OC2CCCCO2)cc1', 'O=C(C=Cc1ccccc1)OC1CCCOC1c1cccc2c(=O)ccoc12', 'O=C(C=Cc1ccccc1)OC1CCCOC1c1c(OC2CCCCO2)ccc2c(=O)ccoc12', 'O=c1ccoc2ccccc12', 'O=C(C=Cc1ccccc1)OCCc1ccccc1', 'O=c1ccoc2c(C3CCCCO3)cccc12']

>  <name>  (173) 
Aloeresin C	

>  <formula>  (173) 
C34H38O16

>  <SMILES>  (173) 
CC1=CC(=C(C2=C1C(=O)C=C(O2)CC(=O)C)[C@H]3[C@@H]([C@H]([C@@H]([C@H](O3)CO)O)O)OC(=O)/C=C/C4=CC=C(C=C4)O)O[C@H]5[C@@H]([C@H]([C@@H]([C@H](O5)CO)O)O)O

>  <ChEMBL_id>  (173) 


>  <ZINC_id>  (173) 


>  <PubChem_id>  (173) 
11972360

>  <DrugBank_id>  (173) 


>  <CAS_no>  (173) 
98449-41-3

>  <references>  (173) 
[{'journal': {'name': 'Phytochemistry Letters', 'id': 39}, 'title': 'Preparative isolation of bio-markers from the leaf exudate of Aloe ferox ("aloe bitters") by high performance counter-current chromatography', 'year': 2015, 'start_page': None, 'volume': None, 'issue': None, 'doi': '10.1016/j.phytol.2014.07.001', 'isbn': '', 'despositor': {'code': 'BND', 'first_name': "Bakary N'tji", 'last_name': 'Diallo', 'id': 26}, 'refauthors_set': [{'author': {'first_name': 'Adhami', 'initials': 'AH', 'last_name': 'Hamid', 'id': 1054}, 'first_author': True, 'id': 1635}], 'id': 537}]

>  <classifications>  (173) 
[{'classification': 'Organooxygen compounds (Classyfire)', 'id': 954}]

>  <molecular_mass>  (173) 
702.7

>  <warheads>  (173) 
ab_unsat_carbonyl:1

>  <n_warheads>  (173) 
1

>  <max_tier>  (173) 
1

>  <pains_flag>  (173) 


>  <MW>  (173) 
702.7

>  <cLogP>  (173) 
-1.1

>  <HBD>  (173) 
8

>  <HBA>  (173) 
16

>  <TPSA>  (173) 
263.1

>  <ArRings>  (173) 
3

$$$$
SANC01055_minRM1.pdb
     RDKit          3D

 11 11  0  0  1  0  0  0  0  0999 V2000
    3.3300    0.7500   -0.2280 C   0  0  0  0  0  0  0  0  0  0  0  0
    1.8670    0.5600   -0.0560 C   0  0  0  0  0  0  0  0  0  0  0  0
    1.0480    1.5570    0.2870 C   0  0  0  0  0  0  0  0  0  0  0  0
   -0.4180    1.3750    0.4700 C   0  0  0  0  0  0  0  0  0  0  0  0
   -0.9240    0.1590   -0.3080 C   0  0  1  0  0  0  0  0  0  0  0  0
   -0.0850   -1.0620    0.0600 C   0  0  0  0  0  0  0  0  0  0  0  0
    1.3590   -0.8080   -0.2890 C   0  0  0  0  0  0  0  0  0  0  0  0
    2.0690   -1.6980   -0.7250 O   0  0  0  0  0  0  0  0  0  0  0  0
   -2.3730   -0.0870   -0.0100 C   0  0  0  0  0  0  0  0  0  0  0  0
   -2.8040   -0.3950    1.2090 C   0  0  0  0  0  0  0  0  0  0  0  0
   -3.3020    0.0340   -1.1650 C   0  0  0  0  0  0  0  0  0  0  0  0
  1  2  1  0
  2  7  1  0
  2  3  2  0
  3  4  1  0
  4  5  1  0
  5  9  1  1
  5  6  1  0
  6  7  1  0
  7  8  2  0
  9 11  1  0
  9 10  2  0
M  END
>  <id>  (174) 
1055

>  <scaffolds>  (174) 
['C1=CCCCC1', 'O=C1C=CCCC1']

>  <name>  (174) 
(S)-(+)-Carvone 

>  <formula>  (174) 
C10H14O

>  <SMILES>  (174) 
CC1=CC[C@@H](CC1=O)C(=C)C

>  <ChEMBL_id>  (174) 
CHEMBL501949

>  <ZINC_id>  (174) 
ZINC968102

>  <PubChem_id>  (174) 
16724

>  <DrugBank_id>  (174) 


>  <CAS_no>  (174) 
2244-16-8

>  <references>  (174) 
[{'journal': {'name': 'Postharvest Biology and Technology', 'id': 69}, 'title': 'Fungitoxicity of Lippia scaberrima essential oil and selected terpenoid components on two mango postharvest spoilage pathogens', 'year': 2008, 'start_page': None, 'volume': None, 'issue': None, 'doi': '10.1016/j.postharvbio.2007.10.011', 'isbn': '', 'despositor': {'code': 'BND', 'first_name': "Bakary N'tji", 'last_name': 'Diallo', 'id': 26}, 'refauthors_set': [{'author': {'first_name': 'Regnier', 'initials': 'RT', 'last_name': 'Thierry', 'id': 1058}, 'first_author': True, 'id': 1639}], 'id': 541}]

>  <classifications>  (174) 
[{'classification': 'Phenol lipids', 'id': 899}, {'classification': 'Phenol lipids (Classyfire)', 'id': 951}]

>  <molecular_mass>  (174) 
150.22

>  <warheads>  (174) 
ab_unsat_carbonyl:1

>  <n_warheads>  (174) 
1

>  <max_tier>  (174) 
1

>  <pains_flag>  (174) 


>  <MW>  (174) 
150.2

>  <cLogP>  (174) 
2.49

>  <HBD>  (174) 
0

>  <HBA>  (174) 
1

>  <TPSA>  (174) 
17.1

>  <ArRings>  (174) 
0

$$$$
SANC01056_minRM1.pdb
     RDKit          3D

 11 11  0  0  1  0  0  0  0  0999 V2000
    3.3300   -0.7500   -0.2290 C   0  0  0  0  0  0  0  0  0  0  0  0
    1.8670   -0.5590   -0.0590 C   0  0  0  0  0  0  0  0  0  0  0  0
    1.0480   -1.5550    0.2850 C   0  0  0  0  0  0  0  0  0  0  0  0
   -0.4170   -1.3730    0.4710 C   0  0  0  0  0  0  0  0  0  0  0  0
   -0.9240   -0.1580   -0.3080 C   0  0  2  0  0  0  0  0  0  0  0  0
   -0.0850    1.0640    0.0570 C   0  0  0  0  0  0  0  0  0  0  0  0
    1.3600    0.8090   -0.2900 C   0  0  0  0  0  0  0  0  0  0  0  0
    2.0700    1.7000   -0.7220 O   0  0  0  0  0  0  0  0  0  0  0  0
   -2.3730    0.0880   -0.0090 C   0  0  0  0  0  0  0  0  0  0  0  0
   -2.8030    0.4010    1.2080 C   0  0  0  0  0  0  0  0  0  0  0  0
   -3.3040   -0.0430   -1.1620 C   0  0  0  0  0  0  0  0  0  0  0  0
  1  2  1  0
  2  7  1  0
  2  3  2  0
  3  4  1  0
  4  5  1  0
  5  9  1  1
  5  6  1  0
  6  7  1  0
  7  8  2  0
  9 11  1  0
  9 10  2  0
M  END
>  <id>  (175) 
1056

>  <scaffolds>  (175) 
['C1=CCCCC1', 'O=C1C=CCCC1']

>  <name>  (175) 
(R)-Carvone 

>  <formula>  (175) 
C10H14O

>  <SMILES>  (175) 
CC1=CC[C@H](CC1=O)C(=C)C

>  <ChEMBL_id>  (175) 
CHEMBL2229268

>  <ZINC_id>  (175) 
ZINC14588455

>  <PubChem_id>  (175) 
439570

>  <DrugBank_id>  (175) 


>  <CAS_no>  (175) 
6485-40-1

>  <references>  (175) 
[{'journal': {'name': 'Postharvest Biology and Technology', 'id': 69}, 'title': 'Fungitoxicity of Lippia scaberrima essential oil and selected terpenoid components on two mango postharvest spoilage pathogens', 'year': 2008, 'start_page': None, 'volume': None, 'issue': None, 'doi': '10.1016/j.postharvbio.2007.10.011', 'isbn': '', 'despositor': {'code': 'BND', 'first_name': "Bakary N'tji", 'last_name': 'Diallo', 'id': 26}, 'refauthors_set': [{'author': {'first_name': 'Regnier', 'initials': 'RT', 'last_name': 'Thierry', 'id': 1058}, 'first_author': True, 'id': 1639}], 'id': 541}]

>  <classifications>  (175) 
[{'classification': 'Phenol lipids', 'id': 899}, {'classification': 'Phenol lipids (Classyfire)', 'id': 951}]

>  <molecular_mass>  (175) 
150.22

>  <warheads>  (175) 
ab_unsat_carbonyl:1

>  <n_warheads>  (175) 
1

>  <max_tier>  (175) 
1

>  <pains_flag>  (175) 


>  <MW>  (175) 
150.2

>  <cLogP>  (175) 
2.49

>  <HBD>  (175) 
0

>  <HBA>  (175) 
1

>  <TPSA>  (175) 
17.1

>  <ArRings>  (175) 
0

$$$$
SANC01067_minRM1.pdb
     RDKit          3D

 46 49  0  0  1  0  0  0  0  0999 V2000
   -0.3440   -4.7830   -2.6220 C   0  0  0  0  0  0  0  0  0  0  0  0
   -1.6940   -4.5540   -1.9480 C   0  0  1  0  0  0  0  0  0  0  0  0
   -2.1400   -5.8080   -1.1460 C   0  0  1  0  0  0  0  0  0  0  0  0
   -3.0160   -5.3360    0.0390 C   0  0  2  0  0  0  0  0  0  0  0  0
   -2.1270   -4.4900    0.9930 C   0  0  2  0  0  0  0  0  0  0  0  0
   -1.1210   -3.6410    0.1430 C   0  0  1  0  0  0  0  0  0  0  0  0
   -1.6560   -3.4120   -1.1370 O   0  0  0  0  0  0  0  0  0  0  0  0
   -1.1110   -2.3810    0.7520 O   0  0  0  0  0  0  0  0  0  0  0  0
   -0.2990   -1.3850    0.1850 C   0  0  2  0  0  0  0  0  0  0  0  0
    1.2050   -1.7410    0.2900 C   0  0  2  0  0  0  0  0  0  0  0  0
    2.0510   -0.4610    0.0120 C   0  0  1  0  0  0  0  0  0  0  0  0
    1.7070    0.5650    0.9100 O   0  0  0  0  0  0  0  0  0  0  0  0
    0.3810    0.9960    0.7490 C   0  0  1  0  0  0  0  0  0  0  0  0
   -0.5700   -0.1690    1.1150 C   0  0  1  0  0  0  0  0  0  0  0  0
   -1.8560    0.3160    0.8100 O   0  0  0  0  0  0  0  0  0  0  0  0
   -2.8810    0.1380    1.6900 C   0  0  0  0  0  0  0  0  0  0  0  0
   -2.7430   -0.5310    2.6950 O   0  0  0  0  0  0  0  0  0  0  0  0
   -4.0970    0.8560    1.2760 C   0  0  0  0  0  0  0  0  0  0  0  0
   -4.0510    2.0120    0.6110 C   0  0  0  0  0  0  0  0  0  0  0  0
   -5.2620    2.7570    0.2830 C   0  0  0  0  0  0  0  0  0  0  0  0
   -5.4040    3.2830   -1.0010 C   0  0  0  0  0  0  0  0  0  0  0  0
   -6.5430    4.0150   -1.3050 C   0  0  0  0  0  0  0  0  0  0  0  0
   -7.5320    4.2340   -0.3290 C   0  0  0  0  0  0  0  0  0  0  0  0
   -7.3800    3.6970    0.9500 C   0  0  0  0  0  0  0  0  0  0  0  0
   -6.2450    2.9560    1.2480 C   0  0  0  0  0  0  0  0  0  0  0  0
   -8.6750    4.9260   -0.5390 O   0  0  0  0  0  0  0  0  0  0  0  0
   -6.8320    4.5230   -2.5430 O   0  0  0  0  0  0  0  0  0  0  0  0
   -5.7240    4.8770   -3.3360 C   0  0  0  0  0  0  0  0  0  0  0  0
    0.2260    2.1610    1.7550 C   0  0  0  0  0  0  0  0  0  0  0  0
    0.9740    3.2580    1.3400 O   0  0  0  0  0  0  0  0  0  0  0  0
    3.3540   -0.8120    0.3680 O   0  0  0  0  0  0  0  0  0  0  0  0
    4.3340    0.1710    0.1020 C   0  0  0  0  0  0  0  0  0  0  0  0
    5.6740   -0.5440    0.3200 C   0  0  0  0  0  0  0  0  0  0  0  0
    6.7680    0.4550    0.1420 C   0  0  0  0  0  0  0  0  0  0  0  0
    7.1220    0.8480   -1.1510 C   0  0  0  0  0  0  0  0  0  0  0  0
    8.1230    1.7930   -1.3200 C   0  0  0  0  0  0  0  0  0  0  0  0
    8.7800    2.3500   -0.2000 C   0  0  0  0  0  0  0  0  0  0  0  0
    8.4210    1.9500    1.0770 C   0  0  0  0  0  0  0  0  0  0  0  0
    7.4100    1.0020    1.2400 C   0  0  0  0  0  0  0  0  0  0  0  0
    9.7480    3.2520   -0.5250 O   0  0  0  0  0  0  0  0  0  0  0  0
   10.3490    3.9430    0.5410 C   0  0  0  0  0  0  0  0  0  0  0  0
    8.5390    2.2520   -2.5250 O   0  0  0  0  0  0  0  0  0  0  0  0
    1.4770   -2.6450   -0.7370 O   0  0  0  0  0  0  0  0  0  0  0  0
   -1.3040   -5.3200    1.7520 O   0  0  0  0  0  0  0  0  0  0  0  0
   -3.4550   -6.4130    0.8050 O   0  0  0  0  0  0  0  0  0  0  0  0
   -2.9700   -6.6050   -1.9360 O   0  0  0  0  0  0  0  0  0  0  0  0
  2  1  1  1
  2  3  1  0
  2  7  1  0
  3 46  1  6
  3  4  1  0
  4 45  1  1
  4  5  1  0
  5  6  1  0
  5 44  1  1
  6  7  1  0
  6  8  1  1
  9  8  1  1
  9 10  1  0
  9 14  1  0
 10 43  1  6
 10 11  1  0
 11 31  1  1
 11 12  1  0
 12 13  1  0
 13 14  1  0
 13 29  1  1
 14 15  1  6
 15 16  1  0
 16 18  1  0
 16 17  2  0
 18 19  2  0
 19 20  1  0
 20 21  2  0
 20 25  1  0
 21 22  1  0
 22 27  1  0
 22 23  2  0
 23 26  1  0
 23 24  1  0
 24 25  2  0
 27 28  1  0
 29 30  1  0
 31 32  1  0
 32 33  1  0
 33 34  1  0
 34 35  2  0
 34 39  1  0
 35 36  1  0
 36 42  1  0
 36 37  2  0
 37 40  1  0
 37 38  1  0
 38 39  2  0
 40 41  1  0
M  END
>  <id>  (176) 
1067

>  <scaffolds>  (176) 
['c1ccccc1', 'C1CCOCC1', 'O=C(C=Cc1ccccc1)OC1COC(OCCc2ccccc2)CC1OC1CCCCO1']

>  <name>  (176) 
Martynoside

>  <formula>  (176) 
C31H40O15

>  <SMILES>  (176) 
C[C@H]1[C@@H]([C@H]([C@H]([C@@H](O1)O[C@@H]2[C@H]([C@@H](O[C@@H]([C@H]2OC(=O)/C=C/C3=CC(=C(C=C3)O)OC)CO)OCCC4=CC(=C(C=C4)OC)O)O)O)O)O

>  <ChEMBL_id>  (176) 
SCHEMBL2158040

>  <ZINC_id>  (176) 
ZINC49889542

>  <PubChem_id>  (176) 
5319292

>  <DrugBank_id>  (176) 


>  <CAS_no>  (176) 
67884-12-2

>  <references>  (176) 
[{'journal': {'name': 'South African Journal of Botany', 'id': 1}, 'title': 'In vitro antimicrobial activity of extracts and an isolated compound from Boscia albitrunca leaves', 'year': 2015, 'start_page': None, 'volume': None, 'issue': None, 'doi': '10.1016/j.sajb.2014.11.005', 'isbn': '', 'despositor': {'code': 'TMM', 'first_name': 'Thommas', 'last_name': 'Musyoka', 'id': 22}, 'refauthors_set': [{'author': {'first_name': 'Pendota', 'initials': 'PS', 'last_name': 'S.', 'id': 1066}, 'first_author': True, 'id': 1647}], 'id': 553}]

>  <classifications>  (176) 
[{'classification': 'Glycoside', 'id': 781}, {'classification': 'Cinnamic acids and derivatives (Classyfire)', 'id': 975}]

>  <molecular_mass>  (176) 
652.6

>  <warheads>  (176) 
ab_unsat_carbonyl:1

>  <n_warheads>  (176) 
1

>  <max_tier>  (176) 
1

>  <pains_flag>  (176) 


>  <MW>  (176) 
652.6

>  <cLogP>  (176) 
-0.41

>  <HBD>  (176) 
7

>  <HBA>  (176) 
15

>  <TPSA>  (176) 
223.3

>  <ArRings>  (176) 
2

$$$$
SANC01074_minRM1.pdb
     RDKit          3D

 42 42  0  0  0  0  0  0  0  0999 V2000
   17.0890    1.4180    0.5070 C   0  0  0  0  0  0  0  0  0  0  0  0
   16.6790    1.9100   -0.8700 C   0  0  0  0  0  0  0  0  0  0  0  0
   15.6360    3.0210   -0.8010 C   0  0  0  0  0  0  0  0  0  0  0  0
   14.3440    2.6140   -0.0980 C   0  0  0  0  0  0  0  0  0  0  0  0
   13.6050    1.5050   -0.8420 C   0  0  0  0  0  0  0  0  0  0  0  0
   12.2390    1.2150   -0.2180 C   0  0  0  0  0  0  0  0  0  0  0  0
   12.3540    0.2840    0.9870 C   0  0  0  0  0  0  0  0  0  0  0  0
   11.1320    0.3630    1.8970 C   0  0  0  0  0  0  0  0  0  0  0  0
    9.8230   -0.0230    1.2130 C   0  0  0  0  0  0  0  0  0  0  0  0
    9.7940   -1.4950    0.8120 C   0  0  0  0  0  0  0  0  0  0  0  0
    8.3860   -1.9590    0.4400 C   0  0  0  0  0  0  0  0  0  0  0  0
    7.9440   -1.4170   -0.9150 C   0  0  0  0  0  0  0  0  0  0  0  0
    6.5220   -1.8530   -1.2650 C   0  0  0  0  0  0  0  0  0  0  0  0
    5.4680   -1.0550   -0.4990 C   0  0  0  0  0  0  0  0  0  0  0  0
    5.4610    0.4060   -0.9360 C   0  0  0  0  0  0  0  0  0  0  0  0
    4.6510    1.2980    0.0030 C   0  0  0  0  0  0  0  0  0  0  0  0
    3.1470    1.0260   -0.0370 C   0  0  0  0  0  0  0  0  0  0  0  0
    2.6780    0.1050    1.0890 C   0  0  0  0  0  0  0  0  0  0  0  0
    1.1500    0.0140    1.1270 C   0  0  0  0  0  0  0  0  0  0  0  0
    0.6810   -1.3780    1.5500 C   0  0  0  0  0  0  0  0  0  0  0  0
    0.8190   -2.3970    0.4160 C   0  0  0  0  0  0  0  0  0  0  0  0
   -0.5270   -2.8220   -0.1700 C   0  0  0  0  0  0  0  0  0  0  0  0
   -1.2730   -1.6560   -0.8110 C   0  0  0  0  0  0  0  0  0  0  0  0
   -2.4080   -2.1190   -1.7230 C   0  0  0  0  0  0  0  0  0  0  0  0
   -3.3900   -3.0840   -1.0690 C   0  0  0  0  0  0  0  0  0  0  0  0
   -4.1070   -2.5120    0.1490 C   0  0  0  0  0  0  0  0  0  0  0  0
   -5.0930   -1.3960   -0.1840 C   0  0  0  0  0  0  0  0  0  0  0  0
   -6.1860   -1.8930   -1.1320 C   0  0  0  0  0  0  0  0  0  0  0  0
   -7.3090   -1.0360   -1.0990 O   0  0  0  0  0  0  0  0  0  0  0  0
   -8.1840   -1.1680   -0.0680 C   0  0  0  0  0  0  0  0  0  0  0  0
   -7.9470   -1.9360    0.8520 O   0  0  0  0  0  0  0  0  0  0  0  0
   -9.3750   -0.3270   -0.2380 C   0  0  0  0  0  0  0  0  0  0  0  0
  -10.3820   -0.4370    0.6350 C   0  0  0  0  0  0  0  0  0  0  0  0
  -11.6230    0.3180    0.5140 C   0  0  0  0  0  0  0  0  0  0  0  0
  -11.6260    1.6230    0.0210 C   0  0  0  0  0  0  0  0  0  0  0  0
  -12.8320    2.3020   -0.0860 C   0  0  0  0  0  0  0  0  0  0  0  0
  -14.0360    1.6840    0.3040 C   0  0  0  0  0  0  0  0  0  0  0  0
  -14.0210    0.3800    0.8010 C   0  0  0  0  0  0  0  0  0  0  0  0
  -12.8130   -0.2930    0.9070 C   0  0  0  0  0  0  0  0  0  0  0  0
  -15.2570    2.2610    0.2310 O   0  0  0  0  0  0  0  0  0  0  0  0
  -12.9930    3.5650   -0.5870 O   0  0  0  0  0  0  0  0  0  0  0  0
  -11.8320    4.3370   -0.7580 C   0  0  0  0  0  0  0  0  0  0  0  0
  1  2  1  0
  2  3  1  0
  3  4  1  0
  4  5  1  0
  5  6  1  0
  6  7  1  0
  7  8  1  0
  8  9  1  0
  9 10  1  0
 10 11  1  0
 11 12  1  0
 12 13  1  0
 13 14  1  0
 14 15  1  0
 15 16  1  0
 16 17  1  0
 17 18  1  0
 18 19  1  0
 19 20  1  0
 20 21  1  0
 21 22  1  0
 22 23  1  0
 23 24  1  0
 24 25  1  0
 25 26  1  0
 26 27  1  0
 27 28  1  0
 28 29  1  0
 29 30  1  0
 30 32  1  0
 30 31  2  0
 32 33  2  0
 33 34  1  0
 34 35  2  0
 34 39  1  0
 35 36  1  0
 36 41  1  0
 36 37  2  0
 37 40  1  0
 37 38  1  0
 38 39  2  0
 41 42  1  0
M  END
>  <id>  (177) 
1074

>  <scaffolds>  (177) 
['c1ccccc1']

>  <name>  (177) 
erythrinasinate B

>  <formula>  (177) 
C38H66O4

>  <SMILES>  (177) 
CCCCCCCCCCCCCCCCCCCCCCCCCCCCOC(=O)/C=C/C1=CC(=C(C=C1)O)OC

>  <ChEMBL_id>  (177) 


>  <ZINC_id>  (177) 
ZINC95485926

>  <PubChem_id>  (177) 
5743442

>  <DrugBank_id>  (177) 


>  <CAS_no>  (177) 
101959-37-9

>  <references>  (177) 
[{'journal': {'name': 'South African Journal of Botany', 'id': 1}, 'title': 'Antiplasmodial activity of compounds isolated from Erythrina caffra', 'year': 2016, 'start_page': None, 'volume': None, 'issue': None, 'doi': '10.1016/j.sajb.2016.05.019', 'isbn': '', 'despositor': {'code': 'TMM', 'first_name': 'Thommas', 'last_name': 'Musyoka', 'id': 22}, 'refauthors_set': [{'author': {'first_name': 'Jude', 'initials': 'J', 'last_name': 'Chukwujekwu', 'id': 487}, 'first_author': True, 'id': 1651}], 'id': 557}]

>  <classifications>  (177) 
[{'classification': 'Cinnamic acids and derivatives', 'id': 934}, {'classification': 'Cinnamic acids and derivatives (Classyfire)', 'id': 975}]

>  <molecular_mass>  (177) 
586.9

>  <warheads>  (177) 
ab_unsat_carbonyl:1

>  <n_warheads>  (177) 
1

>  <max_tier>  (177) 
1

>  <pains_flag>  (177) 


>  <MW>  (177) 
586.9

>  <cLogP>  (177) 
12.12

>  <HBD>  (177) 
1

>  <HBA>  (177) 
4

>  <TPSA>  (177) 
55.8

>  <ArRings>  (177) 
1

$$$$
SANC01075_minRM1.pdb
     RDKit          3D

 27 29  0  0  1  0  0  0  0  0999 V2000
   -4.3800   -0.1140   -2.6380 C   0  0  0  0  0  0  0  0  0  0  0  0
   -4.8770   -0.4030   -1.2730 C   0  0  0  0  0  0  0  0  0  0  0  0
   -4.0940   -0.4920   -0.1930 C   0  0  0  0  0  0  0  0  0  0  0  0
   -4.6260   -0.7850    1.1630 C   0  0  0  0  0  0  0  0  0  0  0  0
   -2.6350   -0.3130   -0.2990 C   0  0  0  0  0  0  0  0  0  0  0  0
   -1.9270   -0.6330   -1.2350 O   0  0  0  0  0  0  0  0  0  0  0  0
   -2.1270    0.3190    0.7900 O   0  0  0  0  0  0  0  0  0  0  0  0
   -0.7530    0.3780    1.0890 C   0  0  1  0  0  0  0  0  0  0  0  0
   -0.2660   -0.9700    1.6630 C   0  0  0  0  0  0  0  0  0  0  0  0
    0.3480   -2.0610    0.7750 C   0  0  2  0  0  0  0  0  0  0  0  0
    1.5620   -2.6790    1.5200 C   0  0  0  0  0  0  0  0  0  0  0  0
    1.5020   -3.4600    2.4370 O   0  0  0  0  0  0  0  0  0  0  0  0
    2.7320   -2.0570    0.8870 C   0  0  0  0  0  0  0  0  0  0  0  0
    2.2680   -1.3110   -0.1370 C   0  0  0  0  0  0  0  0  0  0  0  0
    0.9240   -1.4570   -0.3720 O   0  0  0  0  0  0  0  0  0  0  0  0
    2.8650   -0.2560   -0.9410 C   0  0  0  0  0  0  0  0  0  0  0  0
    2.4980    1.0040   -0.6920 C   0  0  0  0  0  0  0  0  0  0  0  0
    1.5410    1.3270    0.4250 C   0  0  2  0  0  0  0  0  0  0  0  0
    0.0590    1.0960   -0.0050 C   0  0  2  0  0  0  0  0  0  0  0  0
   -0.4490    2.4960   -0.1590 C   0  0  0  0  0  0  0  0  0  0  0  0
   -1.5940    2.9080   -0.6820 C   0  0  0  0  0  0  0  0  0  0  0  0
    0.5870    3.4040    0.3600 C   0  0  0  0  0  0  0  0  0  0  0  0
    0.6010    4.6050    0.5030 O   0  0  0  0  0  0  0  0  0  0  0  0
    1.6960    2.6980    0.7460 O   0  0  0  0  0  0  0  0  0  0  0  0
    3.8290   -0.6790   -2.0080 C   0  0  0  0  0  0  0  0  0  0  0  0
    4.6470    0.3650   -2.4290 O   0  0  0  0  0  0  0  0  0  0  0  0
   -0.6050   -3.1570    0.3400 C   0  0  0  0  0  0  0  0  0  0  0  0
  1  2  1  0
  2  3  2  0
  3  5  1  0
  3  4  1  0
  5  6  2  0
  5  7  1  0
  8  7  1  6
  8 19  1  0
  8  9  1  0
  9 10  1  0
 10 15  1  0
 10 27  1  6
 10 11  1  0
 11 13  1  0
 11 12  2  0
 13 14  2  0
 14 16  1  0
 14 15  1  0
 16 25  1  0
 16 17  2  0
 17 18  1  0
 18 19  1  0
 18 24  1  6
 19 20  1  1
 20 21  2  0
 20 22  1  0
 22 23  2  0
 22 24  1  0
 25 26  1  0
M  END
>  <id>  (178) 
1075

>  <scaffolds>  (178) 
['O=C1CCCO1']

>  <name>  (178) 
Centratherin

>  <formula>  (178) 
C20H22O7

>  <SMILES>  (178) 
C/C=C(/C)\C(=O)O[C@H]1C[C@@]2(C(=O)C=C(O2)/C(=C\[C@@H]3[C@@H]1C(=C)C(=O)O3)/CO)C

>  <ChEMBL_id>  (178) 
CHEMBL382151

>  <ZINC_id>  (178) 


>  <PubChem_id>  (178) 
44409502

>  <DrugBank_id>  (178) 


>  <CAS_no>  (178) 
71939-83-8

>  <references>  (178) 
[{'journal': {'name': 'South African Journal of Botany', 'id': 1}, 'title': 'Synergistic properties of sesquiterpene lactones isolated from Centratherum punctatum Cass. in combination with ampicillin against beta-lactam-resistant Gram-negative bacteria', 'year': 2018, 'start_page': None, 'volume': None, 'issue': None, 'doi': '10.1016/j.sajb.2018.04.003', 'isbn': '', 'despositor': {'code': 'TMM', 'first_name': 'Thommas', 'last_name': 'Musyoka', 'id': 22}, 'refauthors_set': [{'author': {'first_name': 'Jude', 'initials': 'J', 'last_name': 'Chukwujekwu', 'id': 487}, 'first_author': True, 'id': 1652}], 'id': 558}]

>  <classifications>  (178) 
[{'classification': 'Lactone', 'id': 919}, {'classification': 'Phenol lipids (Classyfire)', 'id': 951}]

>  <molecular_mass>  (178) 
374.4

>  <warheads>  (178) 
ab_unsat_carbonyl:3;exo_methylene_carbonyl:1

>  <n_warheads>  (178) 
4

>  <max_tier>  (178) 
1

>  <pains_flag>  (178) 


>  <MW>  (178) 
374.4

>  <cLogP>  (178) 
1.53

>  <HBD>  (178) 
1

>  <HBA>  (178) 
7

>  <TPSA>  (178) 
99.1

>  <ArRings>  (178) 
0

$$$$
SANC01076_minRM1.pdb
     RDKit          3D

 27 29  0  0  1  0  0  0  0  0999 V2000
    5.0790   -0.7120   -1.7920 C   0  0  0  0  0  0  0  0  0  0  0  0
    5.1250    0.0220   -0.5060 C   0  0  0  0  0  0  0  0  0  0  0  0
    4.0980    0.0930    0.3470 C   0  0  0  0  0  0  0  0  0  0  0  0
    4.1630    0.8330    1.6330 C   0  0  0  0  0  0  0  0  0  0  0  0
    2.8290   -0.5860    0.0440 C   0  0  0  0  0  0  0  0  0  0  0  0
    2.6780   -1.6720   -0.4860 O   0  0  0  0  0  0  0  0  0  0  0  0
    1.7490    0.1480    0.4290 O   0  0  0  0  0  0  0  0  0  0  0  0
    0.4500   -0.3650    0.1980 C   0  0  1  0  0  0  0  0  0  0  0  0
    0.1470   -1.3550    1.3390 C   0  0  0  0  0  0  0  0  0  0  0  0
   -1.1050   -2.2000    1.0930 C   0  0  2  0  0  0  0  0  0  0  0  0
   -1.0380   -2.9310   -0.2630 C   0  0  0  0  0  0  0  0  0  0  0  0
   -0.3890   -3.9180   -0.5030 O   0  0  0  0  0  0  0  0  0  0  0  0
   -1.9320   -2.1560   -1.1350 C   0  0  0  0  0  0  0  0  0  0  0  0
   -2.5240   -1.2210   -0.3620 C   0  0  0  0  0  0  0  0  0  0  0  0
   -2.2140   -1.3140    0.9690 O   0  0  0  0  0  0  0  0  0  0  0  0
   -3.3850   -0.0930   -0.6790 C   0  0  0  0  0  0  0  0  0  0  0  0
   -4.7020   -0.1560   -0.5120 C   0  0  0  0  0  0  0  0  0  0  0  0
   -2.7050    1.1580   -1.1730 C   0  0  2  0  0  0  0  0  0  0  0  0
   -1.1560    1.0370   -1.2190 C   0  0  2  0  0  0  0  0  0  0  0  0
   -0.4820    0.8780    0.1760 C   0  0  2  0  0  0  0  0  0  0  0  0
    0.2360    2.1790    0.3460 C   0  0  0  0  0  0  0  0  0  0  0  0
    0.8680    2.6300    1.4190 C   0  0  0  0  0  0  0  0  0  0  0  0
    0.0840    2.9370   -0.9040 C   0  0  0  0  0  0  0  0  0  0  0  0
    0.5110    4.0140   -1.2520 O   0  0  0  0  0  0  0  0  0  0  0  0
   -0.6980    2.2470   -1.7950 O   0  0  0  0  0  0  0  0  0  0  0  0
   -3.0810    2.1630   -0.2780 O   0  0  0  0  0  0  0  0  0  0  0  0
   -1.3930   -3.1590    2.2340 C   0  0  0  0  0  0  0  0  0  0  0  0
  1  2  1  0
  2  3  2  0
  3  5  1  0
  3  4  1  0
  5  6  2  0
  5  7  1  0
  8  7  1  1
  8 20  1  0
  8  9  1  0
  9 10  1  0
 10 11  1  0
 10 15  1  0
 10 27  1  1
 11 13  1  0
 11 12  2  0
 13 14  2  0
 14 16  1  0
 14 15  1  0
 16 18  1  0
 16 17  2  0
 18 19  1  0
 18 26  1  1
 19 25  1  1
 19 20  1  0
 20 21  1  6
 21 23  1  0
 21 22  2  0
 23 25  1  0
 23 24  2  0
M  END
>  <id>  (179) 
1076

>  <scaffolds>  (179) 
['C=C1CC2OC(=O)C(=C)C2CCC2OC1=CC2=O', 'O=C1CCCO1']

>  <name>  (179) 
Isocentratherin

>  <formula>  (179) 
C20H22O7

>  <SMILES>  (179) 
C/C=C(/C)\C(=O)O[C@H]1C[C@@]2(C(=O)C=C(O2)C(=C)[C@H]([C@@H]3[C@@H]1C(=C)C(=O)O3)O)C

>  <ChEMBL_id>  (179) 
CHEMBL2205110

>  <ZINC_id>  (179) 


>  <PubChem_id>  (179) 
21634989

>  <DrugBank_id>  (179) 


>  <CAS_no>  (179) 
80377-52-2

>  <references>  (179) 
[{'journal': {'name': 'South African Journal of Botany', 'id': 1}, 'title': 'Synergistic properties of sesquiterpene lactones isolated from Centratherum punctatum Cass. in combination with ampicillin against beta-lactam-resistant Gram-negative bacteria', 'year': 2018, 'start_page': None, 'volume': None, 'issue': None, 'doi': '10.1016/j.sajb.2018.04.003', 'isbn': '', 'despositor': {'code': 'TMM', 'first_name': 'Thommas', 'last_name': 'Musyoka', 'id': 22}, 'refauthors_set': [{'author': {'first_name': 'Jude', 'initials': 'J', 'last_name': 'Chukwujekwu', 'id': 487}, 'first_author': True, 'id': 1652}], 'id': 558}]

>  <classifications>  (179) 
[{'classification': 'Lactone', 'id': 919}, {'classification': 'Fatty Acyls (Classyfire)', 'id': 957}]

>  <molecular_mass>  (179) 
374.4

>  <warheads>  (179) 
ab_unsat_carbonyl:3;exo_methylene_carbonyl:1

>  <n_warheads>  (179) 
4

>  <max_tier>  (179) 
1

>  <pains_flag>  (179) 


>  <MW>  (179) 
374.4

>  <cLogP>  (179) 
1.52

>  <HBD>  (179) 
1

>  <HBA>  (179) 
7

>  <TPSA>  (179) 
99.1

>  <ArRings>  (179) 
0

$$$$
SANC01082_minRM1.pdb
     RDKit          3D

 16 15  0  0  0  0  0  0  0  0999 V2000
    7.0610   -1.6230   -0.4280 C   0  0  0  0  0  0  0  0  0  0  0  0
    7.0150   -0.3320    0.3710 C   0  0  0  0  0  0  0  0  0  0  0  0
    5.9270    0.6180   -0.1240 C   0  0  0  0  0  0  0  0  0  0  0  0
    4.5290    0.0480    0.0960 C   0  0  0  0  0  0  0  0  0  0  0  0
    3.4630    1.0880   -0.2550 C   0  0  0  0  0  0  0  0  0  0  0  0
    2.1020    0.5070   -0.0750 C   0  0  0  0  0  0  0  0  0  0  0  0
    1.1810    1.0620    0.7140 C   0  0  0  0  0  0  0  0  0  0  0  0
   -0.1470    0.4880    0.8780 C   0  0  0  0  0  0  0  0  0  0  0  0
   -0.8420    0.0000   -0.1500 C   0  0  0  0  0  0  0  0  0  0  0  0
   -2.1770   -0.6160    0.0380 C   0  0  0  0  0  0  0  0  0  0  0  0
   -2.4330   -1.7610   -0.3240 O   0  0  0  0  0  0  0  0  0  0  0  0
   -3.1200    0.1860    0.6640 N   0  0  0  0  0  0  0  0  0  0  0  0
   -4.4950   -0.2660    0.8700 C   0  0  0  0  0  0  0  0  0  0  0  0
   -5.3740   -0.0130   -0.3720 C   0  0  0  0  0  0  0  0  0  0  0  0
   -6.7600   -0.6000   -0.1270 C   0  0  0  0  0  0  0  0  0  0  0  0
   -5.4870    1.4780   -0.6590 C   0  0  0  0  0  0  0  0  0  0  0  0
  1  2  1  0
  2  3  1  0
  3  4  1  0
  4  5  1  0
  5  6  1  0
  6  7  2  0
  7  8  1  0
  8  9  2  0
  9 10  1  0
 10 11  2  0
 10 12  1  0
 12 13  1  0
 13 14  1  0
 14 16  1  0
 14 15  1  0
M  END
>  <id>  (180) 
1082

>  <scaffolds>  (180) 
[]

>  <name>  (180) 
Pellitorine

>  <formula>  (180) 
C14H25NO

>  <SMILES>  (180) 
CCCCC/C=C/C=C/C(=O)NCC(C)C

>  <ChEMBL_id>  (180) 
CHEMBL271242

>  <ZINC_id>  (180) 
ZINC13838505

>  <PubChem_id>  (180) 
5318516

>  <DrugBank_id>  (180) 


>  <CAS_no>  (180) 
18836-52-7

>  <references>  (180) 
[{'journal': {'name': 'South African Journal of Botany', 'id': 1}, 'title': 'Biological activities of extract from Coleonema album in vitro', 'year': 2019, 'start_page': None, 'volume': None, 'issue': None, 'doi': '10.1016/j.sajb.2019.06.015', 'isbn': '', 'despositor': {'code': 'TMM', 'first_name': 'Thommas', 'last_name': 'Musyoka', 'id': 22}, 'refauthors_set': [{'author': {'first_name': 'Rárová', 'initials': 'RL', 'last_name': 'L.', 'id': 1071}, 'first_author': True, 'id': 1654}], 'id': 560}]

>  <classifications>  (180) 
[{'classification': 'alkamide', 'id': 939}, {'classification': 'Fatty Acyls (Classyfire)', 'id': 957}]

>  <molecular_mass>  (180) 
223.35

>  <warheads>  (180) 
ab_unsat_carbonyl:1

>  <n_warheads>  (180) 
1

>  <max_tier>  (180) 
1

>  <pains_flag>  (180) 


>  <MW>  (180) 
223.4

>  <cLogP>  (180) 
3.45

>  <HBD>  (180) 
1

>  <HBA>  (180) 
1

>  <TPSA>  (180) 
29.1

>  <ArRings>  (180) 
0

$$$$
SANC01090_minRM1.pdb
     RDKit          3D

 25 26  0  0  1  0  0  0  0  0999 V2000
    4.7100    0.4600    0.7200 C   0  0  0  0  0  0  0  0  0  0  0  0
    3.9340    1.7850    0.7780 C   0  0  2  0  0  0  0  0  0  0  0  0
    2.4350    1.4800    1.0360 C   0  0  2  0  0  0  0  0  0  0  0  0
    1.9100    0.6070   -0.1250 C   0  0  1  0  0  0  0  0  0  0  0  0
    2.6550   -0.7260   -0.1600 C   0  0  0  0  0  0  0  0  0  0  0  0
    4.1510   -0.4550   -0.3770 C   0  0  2  0  0  0  0  0  0  0  0  0
    4.8770   -1.8020   -0.3350 C   0  0  0  0  0  0  0  0  0  0  0  0
    5.5980   -2.2500    0.5360 O   0  0  0  0  0  0  0  0  0  0  0  0
    4.6300   -2.5310   -1.4420 O   0  0  0  0  0  0  0  0  0  0  0  0
    4.4440    0.1640   -1.5850 O   0  0  0  0  0  0  0  0  0  0  0  0
    0.5130    0.4450   -0.0880 O   0  0  0  0  0  0  0  0  0  0  0  0
   -0.1150   -0.1700    0.9470 C   0  0  0  0  0  0  0  0  0  0  0  0
    0.5140   -0.6410    1.8780 O   0  0  0  0  0  0  0  0  0  0  0  0
   -1.5780   -0.1650    0.8190 C   0  0  0  0  0  0  0  0  0  0  0  0
   -2.2180    0.0450   -0.3350 C   0  0  0  0  0  0  0  0  0  0  0  0
   -3.6760    0.0510   -0.4070 C   0  0  0  0  0  0  0  0  0  0  0  0
   -4.4190   -0.9100    0.2810 C   0  0  0  0  0  0  0  0  0  0  0  0
   -5.8050   -0.8740    0.2060 C   0  0  0  0  0  0  0  0  0  0  0  0
   -6.4490    0.1250   -0.5540 C   0  0  0  0  0  0  0  0  0  0  0  0
   -5.6980    1.0710   -1.2420 C   0  0  0  0  0  0  0  0  0  0  0  0
   -4.3090    1.0240   -1.1710 C   0  0  0  0  0  0  0  0  0  0  0  0
   -7.8010    0.0760   -0.5540 O   0  0  0  0  0  0  0  0  0  0  0  0
   -6.6280   -1.7540    0.8240 O   0  0  0  0  0  0  0  0  0  0  0  0
    1.8070    2.7240    1.0590 O   0  0  0  0  0  0  0  0  0  0  0  0
    3.9790    2.4920   -0.4220 O   0  0  0  0  0  0  0  0  0  0  0  0
  1  6  1  0
  1  2  1  0
  2 25  1  6
  2  3  1  0
  3  4  1  0
  3 24  1  6
  4  5  1  0
  4 11  1  1
  5  6  1  0
  6 10  1  6
  6  7  1  0
  7  9  1  0
  7  8  2  0
 11 12  1  0
 12 14  1  0
 12 13  2  0
 14 15  2  0
 15 16  1  0
 16 21  1  0
 16 17  2  0
 17 18  1  0
 18 19  2  0
 18 23  1  0
 19 20  1  0
 19 22  1  0
 20 21  2  0
M  END
>  <id>  (181) 
1090

>  <scaffolds>  (181) 
['c1ccccc1', 'C1CCCCC1', 'O=C(C=Cc1ccccc1)OC1CCCCC1']

>  <name>  (181) 
Chlorogenic acid

>  <formula>  (181) 
C16H18O9

>  <SMILES>  (181) 
C1[C@H]([C@H]([C@@H](C[C@@]1(C(=O)O)O)OC(=O)/C=C/C2=CC(=C(C=C2)O)O)O)O

>  <ChEMBL_id>  (181) 


>  <ZINC_id>  (181) 
ZINC2138728

>  <PubChem_id>  (181) 
1794427

>  <DrugBank_id>  (181) 


>  <CAS_no>  (181) 
327-97-9

>  <references>  (181) 
[{'journal': {'name': 'Planta Medica', 'id': 54}, 'title': 'Identification, Isolation and Determination of Biomarkers for Quality Control of Bush Tea (Athrixia phyllicoides)', 'year': 2018, 'start_page': None, 'volume': None, 'issue': None, 'doi': '10.1055/a-0594-9527', 'isbn': '', 'despositor': {'code': 'TMM', 'first_name': 'Thommas', 'last_name': 'Musyoka', 'id': 22}, 'refauthors_set': [], 'id': 563}]

>  <classifications>  (181) 
[{'classification': 'Flavanoid', 'id': 774}, {'classification': 'Organooxygen compounds (Classyfire)', 'id': 954}]

>  <molecular_mass>  (181) 
354.31

>  <warheads>  (181) 
ab_unsat_carbonyl:1

>  <n_warheads>  (181) 
1

>  <max_tier>  (181) 
1

>  <pains_flag>  (181) 
catechol_A(92)

>  <MW>  (181) 
354.3

>  <cLogP>  (181) 
-0.65

>  <HBD>  (181) 
6

>  <HBA>  (181) 
8

>  <TPSA>  (181) 
164.8

>  <ArRings>  (181) 
1

$$$$
SANC01112_minRM1.pdb
     RDKit          3D

 24 26  0  0  0  0  0  0  0  0999 V2000
    5.5100   -0.7240    0.0620 C   0  0  0  0  0  0  0  0  0  0  0  0
    6.8370   -0.3990   -0.1650 C   0  0  0  0  0  0  0  0  0  0  0  0
    7.1780    0.9440   -0.3530 C   0  0  0  0  0  0  0  0  0  0  0  0
    6.2120    1.9520   -0.3170 C   0  0  0  0  0  0  0  0  0  0  0  0
    4.8900    1.6010   -0.0890 C   0  0  0  0  0  0  0  0  0  0  0  0
    4.5270    0.2670    0.1020 C   0  0  0  0  0  0  0  0  0  0  0  0
    3.1280   -0.0580    0.3400 C   0  0  0  0  0  0  0  0  0  0  0  0
    2.7000   -1.2760    0.6760 C   0  0  0  0  0  0  0  0  0  0  0  0
    1.2670   -1.5410    0.9450 C   0  0  0  0  0  0  0  0  0  0  0  0
    0.8690   -2.0280    2.0000 O   0  0  0  0  0  0  0  0  0  0  0  0
    0.3940   -1.2050   -0.0770 N   0  0  0  0  0  0  0  0  0  0  0  0
   -1.0500   -1.4150    0.0700 C   0  0  0  0  0  0  0  0  0  0  0  0
   -1.8180   -0.6800   -1.0410 C   0  0  0  0  0  0  0  0  0  0  0  0
   -3.2640   -0.8590   -0.8200 C   0  0  0  0  0  0  0  0  0  0  0  0
   -3.9710   -2.0340   -1.0130 C   0  0  0  0  0  0  0  0  0  0  0  0
   -5.3150   -1.8200   -0.7020 N   0  0  0  0  0  0  0  0  0  0  0  0
   -5.4650   -0.4910   -0.3000 C   0  0  0  0  0  0  0  0  0  0  0  0
   -4.1910    0.1320   -0.3650 C   0  0  0  0  0  0  0  0  0  0  0  0
   -4.0570    1.4760   -0.0090 C   0  0  0  0  0  0  0  0  0  0  0  0
   -5.2010    2.1390    0.3940 C   0  0  0  0  0  0  0  0  0  0  0  0
   -6.4750    1.5190    0.4570 C   0  0  0  0  0  0  0  0  0  0  0  0
   -6.6150    0.1970    0.1110 C   0  0  0  0  0  0  0  0  0  0  0  0
   -5.2110    3.4480    0.7630 O   0  0  0  0  0  0  0  0  0  0  0  0
    8.4940    1.1830   -0.5710 O   0  0  0  0  0  0  0  0  0  0  0  0
  1  2  2  0
  1  6  1  0
  2  3  1  0
  3 24  1  0
  3  4  2  0
  4  5  1  0
  5  6  2  0
  6  7  1  0
  7  8  2  0
  8  9  1  0
  9 11  1  0
  9 10  2  0
 11 12  1  0
 12 13  1  0
 13 14  1  0
 14 15  2  0
 14 18  1  0
 15 16  1  0
 16 17  1  0
 17 18  2  0
 17 22  1  0
 18 19  1  0
 19 20  2  0
 20 21  1  0
 20 23  1  0
 21 22  2  0
M  END
>  <id>  (182) 
1112

>  <scaffolds>  (182) 
['c1ccccc1', 'c1ccc2[nH]ccc2c1', 'O=C(C=Cc1ccccc1)NCCc1c[nH]c2ccccc12']

>  <name>  (182) 
N-coumaroyl serotonin

>  <formula>  (182) 
C19H18N2O3

>  <SMILES>  (182) 
C1=CC(=CC=C1/C=C/C(=O)NCCC2=CNC3=C2C=C(C=C3)O)O

>  <ChEMBL_id>  (182) 
SCHEMBL471921

>  <ZINC_id>  (182) 
ZINC1587152

>  <PubChem_id>  (182) 
5458879

>  <DrugBank_id>  (182) 


>  <CAS_no>  (182) 
201301-83-9

>  <references>  (182) 
[{'journal': {'name': 'Molecules', 'id': 25}, 'title': 'Antimicrobial and selected in vitro enzyme inhibitory effects of leaf extracts, flavonols and indole alkaloids isolated from Croton menyharthii', 'year': 2013, 'start_page': None, 'volume': None, 'issue': None, 'doi': '10.3390/molecules181012633', 'isbn': '', 'despositor': {'code': 'TMM', 'first_name': 'Thommas', 'last_name': 'Musyoka', 'id': 22}, 'refauthors_set': [{'author': {'first_name': '', 'initials': 'MA', 'last_name': 'Aderogba', 'id': 442}, 'first_author': True, 'id': 1668}], 'id': 577}]

>  <classifications>  (182) 
[{'classification': 'Alkaloid', 'id': 738}, {'classification': 'Indoles and derivatives (Classyfire)', 'id': 947}]

>  <molecular_mass>  (182) 
322.4

>  <warheads>  (182) 
ab_unsat_carbonyl:1

>  <n_warheads>  (182) 
1

>  <max_tier>  (182) 
1

>  <pains_flag>  (182) 


>  <MW>  (182) 
322.4

>  <cLogP>  (182) 
2.95

>  <HBD>  (182) 
4

>  <HBA>  (182) 
3

>  <TPSA>  (182) 
85.4

>  <ArRings>  (182) 
3

$$$$
SANC01123_minRM1.pdb
     RDKit          3D

 48 48  0  0  0  0  0  0  0  0999 V2000
  -18.2100   -2.8330   -1.7330 C   0  0  0  0  0  0  0  0  0  0  0  0
  -18.6950   -1.4850   -1.2250 C   0  0  0  0  0  0  0  0  0  0  0  0
  -17.5390   -0.6820   -0.6320 C   0  0  0  0  0  0  0  0  0  0  0  0
  -18.0370    0.6420   -0.0580 C   0  0  0  0  0  0  0  0  0  0  0  0
  -16.9000    1.4680    0.5420 C   0  0  0  0  0  0  0  0  0  0  0  0
  -16.1090    2.2150   -0.5290 C   0  0  0  0  0  0  0  0  0  0  0  0
  -14.9080    2.9510    0.0670 C   0  0  0  0  0  0  0  0  0  0  0  0
  -13.7020    2.0280    0.2280 C   0  0  0  0  0  0  0  0  0  0  0  0
  -12.5780    2.7340    0.9840 C   0  0  0  0  0  0  0  0  0  0  0  0
  -11.3140    1.8750    1.0490 C   0  0  0  0  0  0  0  0  0  0  0  0
  -10.4190    2.0930   -0.1690 C   0  0  0  0  0  0  0  0  0  0  0  0
   -9.2290    1.1310   -0.1730 C   0  0  0  0  0  0  0  0  0  0  0  0
   -9.5630   -0.1790   -0.8830 C   0  0  0  0  0  0  0  0  0  0  0  0
   -8.4270   -1.1940   -0.7480 C   0  0  0  0  0  0  0  0  0  0  0  0
   -8.5790   -2.0510    0.5080 C   0  0  0  0  0  0  0  0  0  0  0  0
   -7.3430   -2.9220    0.7550 C   0  0  0  0  0  0  0  0  0  0  0  0
   -6.5410   -2.4880    1.9790 C   0  0  0  0  0  0  0  0  0  0  0  0
   -5.9660   -1.0780    1.8780 C   0  0  0  0  0  0  0  0  0  0  0  0
   -4.7940   -0.9880    0.9040 C   0  0  0  0  0  0  0  0  0  0  0  0
   -4.2760    0.4480    0.8280 C   0  0  0  0  0  0  0  0  0  0  0  0
   -2.9530    0.5470    0.0650 C   0  0  0  0  0  0  0  0  0  0  0  0
   -1.7700    0.2080    0.9670 C   0  0  0  0  0  0  0  0  0  0  0  0
   -0.4400    0.1950    0.2160 C   0  0  0  0  0  0  0  0  0  0  0  0
   -0.0460    1.5710   -0.3120 C   0  0  0  0  0  0  0  0  0  0  0  0
    1.4670    1.7210   -0.4910 C   0  0  0  0  0  0  0  0  0  0  0  0
    2.0540    0.8700   -1.6180 C   0  0  0  0  0  0  0  0  0  0  0  0
    2.6200   -0.4750   -1.1630 C   0  0  0  0  0  0  0  0  0  0  0  0
    3.8920   -0.3420   -0.3250 C   0  0  0  0  0  0  0  0  0  0  0  0
    5.1740   -0.4320   -1.1490 C   0  0  0  0  0  0  0  0  0  0  0  0
    5.5430   -1.8420   -1.6030 C   0  0  0  0  0  0  0  0  0  0  0  0
    5.7390   -2.8630   -0.4860 C   0  0  0  0  0  0  0  0  0  0  0  0
    6.6120   -2.4020    0.6770 C   0  0  0  0  0  0  0  0  0  0  0  0
    8.0300   -2.0040    0.2860 C   0  0  0  0  0  0  0  0  0  0  0  0
    8.9190   -3.2220    0.0290 C   0  0  0  0  0  0  0  0  0  0  0  0
   10.2020   -2.7820   -0.3680 O   0  0  0  0  0  0  0  0  0  0  0  0
   11.0130   -2.2420    0.5800 C   0  0  0  0  0  0  0  0  0  0  0  0
   10.7550   -2.3700    1.7660 O   0  0  0  0  0  0  0  0  0  0  0  0
   12.1580   -1.5300   -0.0050 C   0  0  0  0  0  0  0  0  0  0  0  0
   12.8040   -0.6250    0.7380 C   0  0  0  0  0  0  0  0  0  0  0  0
   13.8980    0.1830    0.2130 C   0  0  0  0  0  0  0  0  0  0  0  0
   14.8560   -0.3630   -0.6270 C   0  0  0  0  0  0  0  0  0  0  0  0
   15.8890    0.4310   -1.1250 C   0  0  0  0  0  0  0  0  0  0  0  0
   15.9440    1.7730   -0.7790 C   0  0  0  0  0  0  0  0  0  0  0  0
   16.8930    2.6360   -1.2100 O   0  0  0  0  0  0  0  0  0  0  0  0
   14.9680    2.3310    0.0810 C   0  0  0  0  0  0  0  0  0  0  0  0
   15.1570    3.6570    0.3320 O   0  0  0  0  0  0  0  0  0  0  0  0
   14.1930    4.2950    1.1290 C   0  0  0  0  0  0  0  0  0  0  0  0
   13.9550    1.5340    0.5830 C   0  0  0  0  0  0  0  0  0  0  0  0
  1  2  1  0
  2  3  1  0
  3  4  1  0
  4  5  1  0
  5  6  1  0
  6  7  1  0
  7  8  1  0
  8  9  1  0
  9 10  1  0
 10 11  1  0
 11 12  1  0
 12 13  1  0
 13 14  1  0
 14 15  1  0
 15 16  1  0
 16 17  1  0
 17 18  1  0
 18 19  1  0
 19 20  1  0
 20 21  1  0
 21 22  1  0
 22 23  1  0
 23 24  1  0
 24 25  1  0
 25 26  1  0
 26 27  1  0
 27 28  1  0
 28 29  1  0
 29 30  1  0
 30 31  1  0
 31 32  1  0
 32 33  1  0
 33 34  1  0
 34 35  1  0
 35 36  1  0
 36 38  1  0
 36 37  2  0
 38 39  2  0
 39 40  1  0
 40 41  1  0
 40 48  2  0
 41 42  2  0
 42 43  1  0
 43 44  1  0
 43 45  2  0
 45 46  1  0
 45 48  1  0
 46 47  1  0
M  END
>  <id>  (183) 
1123

>  <scaffolds>  (183) 
['c1ccccc1']

>  <name>  (183) 
(E)-tetratriacontyl-3-(4-hydroxy-3-methoxyphenyl)-2-propenate

>  <formula>  (183) 
C44H78O4

>  <SMILES>  (183) 
CCCCCCCCCCCCCCCCCCCCCCCCCCCCCCCCCCOC(=O)\C=C\C1=CC=C(O)C(OC)=C1

>  <ChEMBL_id>  (183) 


>  <ZINC_id>  (183) 


>  <PubChem_id>  (183) 


>  <DrugBank_id>  (183) 


>  <CAS_no>  (183) 
239471-53-5

>  <references>  (183) 
[{'journal': {'name': 'Tropical Journal of Pharmaceutical Research', 'id': 81}, 'title': 'Ethnomedicinal uses and pharmacological activities of Croton megalobotrys Müll Arg: A systematic review', 'year': 2017, 'start_page': None, 'volume': None, 'issue': None, 'doi': '10.4314/tjpr.v16i10.30', 'isbn': '', 'despositor': {'code': 'BND', 'first_name': "Bakary N'tji", 'last_name': 'Diallo', 'id': 26}, 'refauthors_set': [{'author': {'first_name': 'Alfred', 'initials': 'MA', 'last_name': 'Maroyi', 'id': 1093}, 'first_author': True, 'id': 1675}], 'id': 586}]

>  <classifications>  (183) 
[{'classification': 'Cinnamic acids and derivatives (Classyfire)', 'id': 975}]

>  <molecular_mass>  (183) 
671.088

>  <warheads>  (183) 
ab_unsat_carbonyl:1

>  <n_warheads>  (183) 
1

>  <max_tier>  (183) 
1

>  <pains_flag>  (183) 


>  <MW>  (183) 
671.1

>  <cLogP>  (183) 
14.46

>  <HBD>  (183) 
1

>  <HBA>  (183) 
4

>  <TPSA>  (183) 
55.8

>  <ArRings>  (183) 
1

$$$$
SANC01126_minRM1.pdb
     RDKit          3D

 21 23  0  0  1  0  0  0  0  0999 V2000
    4.3920   -1.5910   -1.5310 C   0  0  0  0  0  0  0  0  0  0  0  0
    3.1850   -0.8860   -0.9970 C   0  0  0  0  0  0  0  0  0  0  0  0
    2.0710   -0.8720   -1.4820 O   0  0  0  0  0  0  0  0  0  0  0  0
    3.4810   -0.2140    0.1440 O   0  0  0  0  0  0  0  0  0  0  0  0
    2.4810    0.4350    0.8850 C   0  0  1  0  0  0  0  0  0  0  0  0
    1.8420    1.6400    0.1830 C   0  0  0  0  0  0  0  0  0  0  0  0
    0.4920    1.7780    0.9030 C   0  0  2  0  0  0  0  0  0  0  0  0
    0.0440    0.3260    1.2020 C   0  0  2  0  0  0  0  0  0  0  0  0
    1.3320   -0.4400    1.2920 C   0  0  0  0  0  0  0  0  0  0  0  0
    1.4650   -1.6870    1.7150 C   0  0  0  0  0  0  0  0  0  0  0  0
   -0.8450   -0.2830    0.1130 C   0  0  2  0  0  0  0  0  0  0  0  0
   -2.1580    0.5140   -0.1130 C   0  0  1  0  0  0  0  0  0  0  0  0
   -2.0580    1.4140   -1.3350 C   0  0  0  0  0  0  0  0  0  0  0  0
   -0.7660    2.2320   -1.2840 C   0  0  0  0  0  0  0  0  0  0  0  0
   -0.4670    2.6220    0.1280 C   0  0  0  0  0  0  0  0  0  0  0  0
   -1.0410    3.6950    0.6660 C   0  0  0  0  0  0  0  0  0  0  0  0
   -3.1830   -0.5640   -0.2410 C   0  0  0  0  0  0  0  0  0  0  0  0
   -4.4160   -0.4810   -0.7100 C   0  0  0  0  0  0  0  0  0  0  0  0
   -2.5560   -1.7920    0.2820 C   0  0  0  0  0  0  0  0  0  0  0  0
   -3.0170   -2.8890    0.5080 O   0  0  0  0  0  0  0  0  0  0  0  0
   -1.2320   -1.5820    0.5490 O   0  0  0  0  0  0  0  0  0  0  0  0
  1  2  1  0
  2  3  2  0
  2  4  1  0
  5  4  1  6
  5  6  1  0
  5  9  1  0
  7  6  1  6
  7 15  1  0
  7  8  1  0
  8 11  1  0
  8  9  1  6
  9 10  2  0
 11 12  1  0
 11 21  1  1
 12 13  1  6
 12 17  1  0
 13 14  1  0
 14 15  1  0
 15 16  2  0
 17 18  2  0
 17 19  1  0
 19 20  2  0
 19 21  1  0
M  END
>  <id>  (184) 
1126

>  <scaffolds>  (184) 
['C=C1C(=O)OC2C1CCC(=C)C1CCC(=C)C12', 'O=C1CCCO1', 'C1CCC2CCCC2CC1']

>  <name>  (184) 
Zaluzanin d

>  <formula>  (184) 
C17H20O4

>  <SMILES>  (184) 
CC(=O)O[C@H]1C[C@@H]2[C@H](C1=C)[C@@H]3[C@@H](CCC2=C)C(=C)C(=O)O3

>  <ChEMBL_id>  (184) 
CHEMBL371402

>  <ZINC_id>  (184) 


>  <PubChem_id>  (184) 
12445012

>  <DrugBank_id>  (184) 


>  <CAS_no>  (184) 
16838-85-0

>  <references>  (184) 
[{'journal': {'name': 'Natural Product Research', 'id': 18}, 'title': 'A novel daucosterol derivative and antibacterial activity of compounds from Arctotis arctotoides', 'year': 2007, 'start_page': None, 'volume': None, 'issue': None, 'doi': '10.1080/14786410601129606', 'isbn': '', 'despositor': {'code': 'BND', 'first_name': "Bakary N'tji", 'last_name': 'Diallo', 'id': 26}, 'refauthors_set': [{'author': {'first_name': 'Nasim', 'initials': 'SN', 'last_name': 'Sultana', 'id': 1094}, 'first_author': True, 'id': 1677}], 'id': 588}]

>  <classifications>  (184) 
[{'classification': 'Terpenoid', 'id': 839}, {'classification': 'Phenol lipids (Classyfire)', 'id': 951}]

>  <molecular_mass>  (184) 
288.34

>  <warheads>  (184) 
ab_unsat_carbonyl:1;exo_methylene_carbonyl:1

>  <n_warheads>  (184) 
2

>  <max_tier>  (184) 
1

>  <pains_flag>  (184) 


>  <MW>  (184) 
288.3

>  <cLogP>  (184) 
2.56

>  <HBD>  (184) 
0

>  <HBA>  (184) 
4

>  <TPSA>  (184) 
52.6

>  <ArRings>  (184) 
0

$$$$
SANC01130_minRM1.pdb
     RDKit          3D

 17 19  0  0  1  0  0  0  0  0999 V2000
    2.7960    1.8230    0.2000 C   0  0  0  0  0  0  0  0  0  0  0  0
    2.9780    0.3470    0.5610 C   0  0  0  0  0  0  0  0  0  0  0  0
    2.0460   -0.4040   -0.4010 C   0  0  1  0  0  0  0  0  0  0  0  0
    1.6860   -1.7880    0.0220 C   0  0  0  0  0  0  0  0  0  0  0  0
    2.2250   -2.4090    1.0670 C   0  0  0  0  0  0  0  0  0  0  0  0
    0.7290   -2.5090   -0.8740 C   0  0  0  0  0  0  0  0  0  0  0  0
   -0.6170   -1.8010   -1.0080 C   0  0  0  0  0  0  0  0  0  0  0  0
   -1.0020   -1.0810    0.2800 C   0  0  1  0  0  0  0  0  0  0  0  0
   -0.2280    0.2530    0.5020 C   0  0  2  0  0  0  0  0  0  0  0  0
   -1.1760    1.3100    0.4630 O   0  0  0  0  0  0  0  0  0  0  0  0
   -2.4400    0.8240    0.2990 C   0  0  0  0  0  0  0  0  0  0  0  0
   -3.3540    1.6180    0.2400 O   0  0  0  0  0  0  0  0  0  0  0  0
   -2.4300   -0.6450    0.2280 C   0  0  0  0  0  0  0  0  0  0  0  0
   -3.5150   -1.4000    0.1480 C   0  0  0  0  0  0  0  0  0  0  0  0
    0.8380    0.5440   -0.5630 C   0  0  1  0  0  0  0  0  0  0  0  0
    1.4220    1.9140   -0.3770 C   0  0  0  0  0  0  0  0  0  0  0  0
    0.8220    3.0480   -0.7090 C   0  0  0  0  0  0  0  0  0  0  0  0
  1 16  1  0
  1  2  1  0
  3  2  1  1
  3 15  1  0
  3  4  1  0
  4  6  1  0
  4  5  2  0
  6  7  1  0
  8  7  1  6
  8 13  1  0
  8  9  1  0
  9 15  1  0
  9 10  1  6
 10 11  1  0
 11 13  1  0
 11 12  2  0
 13 14  2  0
 15 16  1  1
 16 17  2  0
M  END
>  <id>  (185) 
1130

>  <scaffolds>  (185) 
['C=C1C(=O)OC2C1CCC(=C)C1CCC(=C)C12', 'O=C1CCCO1', 'C1CCC2CCCC2CC1']

>  <name>  (185) 
dehydrocostus lactone

>  <formula>  (185) 
C15H18O2

>  <SMILES>  (185) 
[H]C1([H])C[C@@]2([H])C(=C)CCC3[C@H](OC(=O)C3=C)[C@@]2([H])C1=C

>  <ChEMBL_id>  (185) 


>  <ZINC_id>  (185) 


>  <PubChem_id>  (185) 


>  <DrugBank_id>  (185) 


>  <CAS_no>  (185) 
477-43-0

>  <references>  (185) 
[{'journal': {'name': 'Natural Product Research', 'id': 18}, 'title': 'A novel daucosterol derivative and antibacterial activity of compounds from Arctotis arctotoides', 'year': 2007, 'start_page': None, 'volume': None, 'issue': None, 'doi': '10.1080/14786410601129606', 'isbn': '', 'despositor': {'code': 'BND', 'first_name': "Bakary N'tji", 'last_name': 'Diallo', 'id': 26}, 'refauthors_set': [{'author': {'first_name': 'Nasim', 'initials': 'SN', 'last_name': 'Sultana', 'id': 1094}, 'first_author': True, 'id': 1677}], 'id': 588}]

>  <classifications>  (185) 
[{'classification': 'Phenol lipids (Classyfire)', 'id': 951}]

>  <molecular_mass>  (185) 
230.302

>  <warheads>  (185) 
ab_unsat_carbonyl:1;exo_methylene_carbonyl:1

>  <n_warheads>  (185) 
2

>  <max_tier>  (185) 
1

>  <pains_flag>  (185) 


>  <MW>  (185) 
230.3

>  <cLogP>  (185) 
3.02

>  <HBD>  (185) 
0

>  <HBA>  (185) 
2

>  <TPSA>  (185) 
26.3

>  <ArRings>  (185) 
0

$$$$
