SANC00101_minRM1.pdb
     RDKit          3D

 35 37  0  0  1  0  0  0  0  0999 V2000
   -2.1020   -0.7700   -0.8180 C   0  0  0  0  0  0  0  0  0  0  0  0
   -3.4220   -1.1480   -1.0270 C   0  0  0  0  0  0  0  0  0  0  0  0
   -4.4120   -0.6900   -0.1630 C   0  0  0  0  0  0  0  0  0  0  0  0
   -4.0840    0.1580    0.9060 C   0  0  0  0  0  0  0  0  0  0  0  0
   -2.7560    0.5300    1.1160 C   0  0  0  0  0  0  0  0  0  0  0  0
   -1.7730    0.0550    0.2530 C   0  0  0  0  0  0  0  0  0  0  0  0
   -0.3490    0.4600    0.5050 C   0  0  2  0  0  0  0  0  0  0  0  0
   -0.2070    0.7920    1.5710 H   0  0  0  0  0  0  0  0  0  0  0  0
    0.0970    1.5960   -0.4430 C   0  0  1  0  0  0  0  0  0  0  0  0
   -0.5980    2.4730   -0.3460 H   0  0  0  0  0  0  0  0  0  0  0  0
    1.5300    1.9910   -0.0460 C   0  0  0  0  0  0  0  0  0  0  0  0
    2.3670    0.7760    0.1250 C   0  0  0  0  0  0  0  0  0  0  0  0
    3.7640    0.8370    0.1590 C   0  0  0  0  0  0  0  0  0  0  0  0
    4.5610   -0.3040    0.2380 C   0  0  0  0  0  0  0  0  0  0  0  0
    3.9200   -1.5440    0.2850 C   0  0  0  0  0  0  0  0  0  0  0  0
    2.5320   -1.6640    0.2970 C   0  0  0  0  0  0  0  0  0  0  0  0
    1.7810   -0.4890    0.2310 C   0  0  0  0  0  0  0  0  0  0  0  0
    0.4380   -0.6940    0.2850 O   0  0  0  0  0  0  0  0  0  0  0  0
    4.6040   -2.7130    0.3180 O   0  0  0  0  0  0  0  0  0  0  0  0
    4.4580    1.9990    0.0750 O   0  0  0  0  0  0  0  0  0  0  0  0
    0.0520    1.0480   -1.7220 O   0  0  0  0  0  0  0  0  0  0  0  0
   -4.9790    0.6600    1.7920 O   0  0  0  0  0  0  0  0  0  0  0  0
   -5.7340   -0.9730   -0.3270 O   0  0  0  0  0  0  0  0  0  0  0  0
   -1.3240   -1.1250   -1.5040 H   0  0  0  0  0  0  0  0  0  0  0  0
   -3.6770   -1.8000   -1.8670 H   0  0  0  0  0  0  0  0  0  0  0  0
   -2.5120    1.1860    1.9580 H   0  0  0  0  0  0  0  0  0  0  0  0
    1.9580    2.6750   -0.8110 H   0  0  0  0  0  0  0  0  0  0  0  0
    1.5090    2.5870    0.8930 H   0  0  0  0  0  0  0  0  0  0  0  0
    5.6500   -0.2160    0.2440 H   0  0  0  0  0  0  0  0  0  0  0  0
    2.0480   -2.6430    0.3580 H   0  0  0  0  0  0  0  0  0  0  0  0
    5.5240   -2.5370    0.5530 H   0  0  0  0  0  0  0  0  0  0  0  0
    3.9170    2.7220    0.4120 H   0  0  0  0  0  0  0  0  0  0  0  0
    0.3990    1.7030   -2.3370 H   0  0  0  0  0  0  0  0  0  0  0  0
   -5.8720    0.3960    1.5360 H   0  0  0  0  0  0  0  0  0  0  0  0
   -5.7980   -1.8430   -0.7300 H   0  0  0  0  0  0  0  0  0  0  0  0
  1 24  1  0
  1  2  2  0
  1  6  1  0
  2 25  1  0
  2  3  1  0
  3 23  1  0
  3  4  2  0
  4  5  1  0
  4 22  1  0
  5  6  2  0
  5 26  1  0
  6  7  1  0
  7  9  1  0
  7 18  1  0
  7  8  1  1
  9 21  1  0
  9 10  1  6
  9 11  1  0
 11 27  1  0
 11 12  1  0
 11 28  1  0
 12 13  2  0
 12 17  1  0
 13 20  1  0
 13 14  1  0
 14 29  1  0
 14 15  2  0
 15 16  1  0
 15 19  1  0
 16 17  2  0
 16 30  1  0
 17 18  1  0
 19 31  1  0
 20 32  1  0
 21 33  1  0
 22 34  1  0
 23 35  1  0
M  END
>  <id>  (1) 
101

>  <scaffolds>  (1) 
['c1ccccc1', 'c1ccc(C2CCc3ccccc3O2)cc1']

>  <name>  (1) 
Epicatechin

>  <formula>  (1) 
C15H14O6

>  <SMILES>  (1) 
c1cc(c(cc1[C@@H]2[C@@H](Cc3c(cc(cc3O2)O)O)O)O)O

>  <ChEMBL_id>  (1) 
CHEMBL583912

>  <ZINC_id>  (1) 
ZINC00119988

>  <PubChem_id>  (1) 
 72276

>  <DrugBank_id>  (1) 


>  <CAS_no>  (1) 
490-46-0

>  <references>  (1) 
[{'journal': {'name': 'South African Journal of Botany', 'id': 1}, 'title': 'Activity of South African medicinal plants against Listeria monocytogenes biofilms, and isolation  of active compounds from Acacia karroo', 'year': 2012, 'start_page': 220, 'volume': 78, 'issue': None, 'doi': 'doi:10.1016/j.sajb.2011.09.001', 'isbn': '', 'despositor': {'code': 'rah', 'first_name': 'Rowan', 'last_name': 'Hatherley', 'id': 20}, 'refauthors_set': [{'author': {'first_name': '', 'initials': 'MA', 'last_name': 'Nyila', 'id': 438}, 'first_author': True, 'id': 596}, {'author': {'first_name': '', 'initials': 'CM', 'last_name': 'Leonard', 'id': 439}, 'first_author': None, 'id': 597}, {'author': {'first_name': 'Ahmed', 'initials': 'AA', 'last_name': 'Hussein', 'id': 440}, 'first_author': None, 'id': 598}, {'author': {'first_name': 'Namrita', 'initials': 'N', 'last_name': 'Lall', 'id': 441}, 'first_author': None, 'id': 599}], 'id': 223}]

>  <classifications>  (1) 
[{'classification': 'Flavonoids', 'id': 776}, {'classification': 'Flavonoids (Classyfire)', 'id': 941}]

>  <molecular_mass>  (1) 
290.27

$$$$
SANC00102_minRM1.pdb
     RDKit          3D

 80 83  0  0  1  0  0  0  0  0999 V2000
    7.9360   -0.8440   -2.0820 C   0  0  0  0  0  0  0  0  0  0  0  0
    6.7640    0.0070   -1.6190 C   0  0  0  0  0  0  0  0  0  0  0  0
    6.4890   -0.1860   -0.1220 C   0  0  2  0  0  0  0  0  0  0  0  0
    6.3960   -1.2870    0.0730 H   0  0  0  0  0  0  0  0  0  0  0  0
    5.1690    0.4910    0.2590 C   0  0  0  0  0  0  0  0  0  0  0  0
    3.9650   -0.3200   -0.2250 C   0  0  0  0  0  0  0  0  0  0  0  0
    2.6470    0.4100    0.0860 C   0  0  1  0  0  0  0  0  0  0  0  0
    2.6360    0.6690    1.1750 H   0  0  0  0  0  0  0  0  0  0  0  0
    2.5990    1.6980   -0.7310 C   0  0  0  0  0  0  0  0  0  0  0  0
    1.4520   -0.4870   -0.2540 C   0  0  1  0  0  0  0  0  0  0  0  0
    1.5050   -0.7190   -1.3490 H   0  0  0  0  0  0  0  0  0  0  0  0
    1.4620   -1.8120    0.5430 C   0  0  0  0  0  0  0  0  0  0  0  0
   -0.0040   -2.1970    0.8090 C   0  0  0  0  0  0  0  0  0  0  0  0
   -0.8060   -1.1930   -0.0110 C   0  0  2  0  0  0  0  0  0  0  0  0
   -0.8350   -1.5600   -1.0720 H   0  0  0  0  0  0  0  0  0  0  0  0
    0.0510    0.0870    0.0590 C   0  0  2  0  0  0  0  0  0  0  0  0
   -0.5270    1.0530   -0.9680 C   0  0  0  0  0  0  0  0  0  0  0  0
   -1.9900    1.3610   -0.6510 C   0  0  0  0  0  0  0  0  0  0  0  0
   -2.8630    0.1100   -0.5020 C   0  0  1  0  0  0  0  0  0  0  0  0
   -2.9550   -0.3660   -1.5150 H   0  0  0  0  0  0  0  0  0  0  0  0
   -2.2340   -0.9240    0.4400 C   0  0  1  0  0  0  0  0  0  0  0  0
   -2.2290   -0.5340    1.4920 H   0  0  0  0  0  0  0  0  0  0  0  0
   -3.0450   -2.2170    0.3810 C   0  0  0  0  0  0  0  0  0  0  0  0
   -4.5060   -1.9660    0.4670 C   0  0  0  0  0  0  0  0  0  0  0  0
   -5.0720   -0.7740    0.2780 C   0  0  0  0  0  0  0  0  0  0  0  0
   -4.2880    0.4730   -0.0070 C   0  0  2  0  0  0  0  0  0  0  0  0
   -4.9720    1.3060   -1.1040 C   0  0  0  0  0  0  0  0  0  0  0  0
   -6.4630    1.5050   -0.8790 C   0  0  0  0  0  0  0  0  0  0  0  0
   -7.1390    0.1370   -0.7590 C   0  0  1  0  0  0  0  0  0  0  0  0
   -6.9860   -0.4580   -1.7010 H   0  0  0  0  0  0  0  0  0  0  0  0
   -6.5470   -0.6180    0.4390 C   0  0  0  0  0  0  0  0  0  0  0  0
   -8.4980    0.4060   -0.5500 O   0  0  0  0  0  0  0  0  0  0  0  0
   -4.2280    1.2750    1.2950 C   0  0  0  0  0  0  0  0  0  0  0  0
    0.0250    0.7120    1.4500 C   0  0  0  0  0  0  0  0  0  0  0  0
    7.6710    0.3390    0.7130 C   0  0  1  0  0  0  0  0  0  0  0  0
    7.7130    1.8600    0.7860 C   0  0  0  0  0  0  0  0  0  0  0  0
    7.6420   -0.2370    2.1260 C   0  0  0  0  0  0  0  0  0  0  0  0
    8.8420   -0.6600   -1.4830 H   0  0  0  0  0  0  0  0  0  0  0  0
    7.7240   -1.9200   -2.0130 H   0  0  0  0  0  0  0  0  0  0  0  0
    8.2010   -0.6420   -3.1300 H   0  0  0  0  0  0  0  0  0  0  0  0
    6.9490    1.0750   -1.8540 H   0  0  0  0  0  0  0  0  0  0  0  0
    5.8600   -0.2500   -2.2130 H   0  0  0  0  0  0  0  0  0  0  0  0
    5.1020    0.6260    1.3590 H   0  0  0  0  0  0  0  0  0  0  0  0
    5.1240    1.5240   -0.1510 H   0  0  0  0  0  0  0  0  0  0  0  0
    4.0410   -0.5280   -1.3130 H   0  0  0  0  0  0  0  0  0  0  0  0
    3.9900   -1.3230    0.2490 H   0  0  0  0  0  0  0  0  0  0  0  0
    1.7020    2.3010   -0.5210 H   0  0  0  0  0  0  0  0  0  0  0  0
    3.4660    2.3460   -0.5230 H   0  0  0  0  0  0  0  0  0  0  0  0
    2.6030    1.5100   -1.8150 H   0  0  0  0  0  0  0  0  0  0  0  0
    1.9900   -2.6100   -0.0140 H   0  0  0  0  0  0  0  0  0  0  0  0
    2.0190   -1.7220    1.4960 H   0  0  0  0  0  0  0  0  0  0  0  0
   -0.2230   -3.2440    0.5240 H   0  0  0  0  0  0  0  0  0  0  0  0
   -0.2550   -2.1490    1.8870 H   0  0  0  0  0  0  0  0  0  0  0  0
    0.0600    1.9990   -0.9990 H   0  0  0  0  0  0  0  0  0  0  0  0
   -0.4330    0.6430   -1.9960 H   0  0  0  0  0  0  0  0  0  0  0  0
   -2.0580    2.0010    0.2570 H   0  0  0  0  0  0  0  0  0  0  0  0
   -2.3940    2.0090   -1.4600 H   0  0  0  0  0  0  0  0  0  0  0  0
   -2.8420   -2.7820   -0.5570 H   0  0  0  0  0  0  0  0  0  0  0  0
   -2.7260   -2.9050    1.1930 H   0  0  0  0  0  0  0  0  0  0  0  0
   -5.1080   -2.8550    0.6880 H   0  0  0  0  0  0  0  0  0  0  0  0
   -4.4860    2.3020   -1.1860 H   0  0  0  0  0  0  0  0  0  0  0  0
   -4.8160    0.8330   -2.0980 H   0  0  0  0  0  0  0  0  0  0  0  0
   -6.6700    2.1300    0.0150 H   0  0  0  0  0  0  0  0  0  0  0  0
   -6.9070    2.0830   -1.7170 H   0  0  0  0  0  0  0  0  0  0  0  0
   -7.0580   -1.5980    0.5590 H   0  0  0  0  0  0  0  0  0  0  0  0
   -6.7700   -0.0860    1.3890 H   0  0  0  0  0  0  0  0  0  0  0  0
   -8.9590   -0.4370   -0.5170 H   0  0  0  0  0  0  0  0  0  0  0  0
   -3.8660    0.6740    2.1420 H   0  0  0  0  0  0  0  0  0  0  0  0
   -3.5540    2.1450    1.2180 H   0  0  0  0  0  0  0  0  0  0  0  0
   -5.2060    1.6700    1.6010 H   0  0  0  0  0  0  0  0  0  0  0  0
    0.6150    0.1540    2.1910 H   0  0  0  0  0  0  0  0  0  0  0  0
    0.4110    1.7420    1.4540 H   0  0  0  0  0  0  0  0  0  0  0  0
   -0.9910    0.7620    1.8760 H   0  0  0  0  0  0  0  0  0  0  0  0
    8.6200   -0.0130    0.2190 H   0  0  0  0  0  0  0  0  0  0  0  0
    6.9090    2.2870    1.4020 H   0  0  0  0  0  0  0  0  0  0  0  0
    8.6550    2.2160    1.2300 H   0  0  0  0  0  0  0  0  0  0  0  0
    7.6390    2.3340   -0.2030 H   0  0  0  0  0  0  0  0  0  0  0  0
    7.6690   -1.3360    2.1280 H   0  0  0  0  0  0  0  0  0  0  0  0
    8.5080    0.0960    2.7170 H   0  0  0  0  0  0  0  0  0  0  0  0
    6.7480    0.0570    2.6930 H   0  0  0  0  0  0  0  0  0  0  0  0
  1 40  1  0
  1 39  1  0
  1  2  1  0
  1 38  1  0
  2 42  1  0
  2 41  1  0
  2  3  1  0
  3  4  1  6
  3  5  1  0
  3 35  1  0
  5  6  1  0
  5 44  1  0
  5 43  1  0
  6 45  1  0
  6  7  1  0
  6 46  1  0
  7  9  1  0
  7 10  1  0
  7  8  1  1
  9 49  1  0
  9 48  1  0
  9 47  1  0
 10 11  1  6
 10 16  1  0
 10 12  1  0
 12 50  1  0
 12 13  1  0
 12 51  1  0
 13 14  1  0
 13 52  1  0
 13 53  1  0
 14 15  1  6
 14 16  1  0
 14 21  1  0
 16 17  1  0
 16 34  1  1
 17 55  1  0
 17 54  1  0
 17 18  1  0
 18 57  1  0
 18 19  1  0
 18 56  1  0
 19 20  1  6
 19 26  1  0
 19 21  1  0
 21 23  1  0
 21 22  1  1
 23 58  1  0
 23 24  1  0
 23 59  1  0
 24 25  2  0
 24 60  1  0
 25 26  1  0
 25 31  1  0
 26 27  1  0
 26 33  1  1
 27 62  1  0
 27 61  1  0
 27 28  1  0
 28 64  1  0
 28 29  1  0
 28 63  1  0
 29 30  1  6
 29 32  1  0
 29 31  1  0
 31 65  1  0
 31 66  1  0
 32 67  1  0
 33 69  1  0
 33 70  1  0
 33 68  1  0
 34 72  1  0
 34 73  1  0
 34 71  1  0
 35 74  1  6
 35 36  1  0
 35 37  1  0
 36 77  1  0
 36 76  1  0
 36 75  1  0
 37 78  1  0
 37 80  1  0
 37 79  1  0
M  END
>  <id>  (2) 
102

>  <scaffolds>  (2) 
['C1=C2CCCCC2C2CCC3CCCC3C2C1', 'C1=CCCCC1', 'C1=CCC2CCCCC2C1', 'C1CCCCC1', 'C1=C2CCCCC2CCC1']

>  <name>  (2) 
Beta-Sitosterol

>  <formula>  (2) 
C29H50O

>  <SMILES>  (2) 
CC[C@H](CC[C@@H](C)[C@H]1CC[C@@H]2[C@@]1(CC[C@H]3[C@H]2CC=C4[C@@]3(CC[C@@H](C4)O)C)C)C(C)C

>  <ChEMBL_id>  (2) 
CHEMBL221542

>  <ZINC_id>  (2) 
ZINC04095717

>  <PubChem_id>  (2) 
 222284

>  <DrugBank_id>  (2) 


>  <CAS_no>  (2) 
83-46-5

>  <references>  (2) 
[{'journal': {'name': 'South African Journal of Botany', 'id': 1}, 'title': 'Activity of South African medicinal plants against Listeria monocytogenes biofilms, and isolation  of active compounds from Acacia karroo', 'year': 2012, 'start_page': 220, 'volume': 78, 'issue': None, 'doi': 'doi:10.1016/j.sajb.2011.09.001', 'isbn': '', 'despositor': {'code': 'rah', 'first_name': 'Rowan', 'last_name': 'Hatherley', 'id': 20}, 'refauthors_set': [{'author': {'first_name': '', 'initials': 'MA', 'last_name': 'Nyila', 'id': 438}, 'first_author': True, 'id': 596}, {'author': {'first_name': '', 'initials': 'CM', 'last_name': 'Leonard', 'id': 439}, 'first_author': None, 'id': 597}, {'author': {'first_name': 'Ahmed', 'initials': 'AA', 'last_name': 'Hussein', 'id': 440}, 'first_author': None, 'id': 598}, {'author': {'first_name': 'Namrita', 'initials': 'N', 'last_name': 'Lall', 'id': 441}, 'first_author': None, 'id': 599}], 'id': 223}]

>  <classifications>  (2) 
[{'classification': 'Phytosterol', 'id': 808}, {'classification': 'Sterol', 'id': 836}, {'classification': 'Triterpene', 'id': 842}, {'classification': 'Steroids and steroid derivatives (Classyfire)', 'id': 942}]

>  <molecular_mass>  (2) 
414.7

$$$$
SANC00103_minRM1.pdb
     RDKit          3D

 36 38  0  0  1  0  0  0  0  0999 V2000
   -4.7090    1.3860    1.8350 O   0  0  0  0  0  0  0  0  0  0  0  0
   -3.8750    0.6470    1.0660 C   0  0  0  0  0  0  0  0  0  0  0  0
   -2.5240    0.9800    1.1660 C   0  0  0  0  0  0  0  0  0  0  0  0
   -1.5890    0.2650    0.4240 C   0  0  0  0  0  0  0  0  0  0  0  0
   -1.9760   -0.7660   -0.4220 C   0  0  0  0  0  0  0  0  0  0  0  0
   -3.3290   -1.1050   -0.4980 C   0  0  0  0  0  0  0  0  0  0  0  0
   -3.7940   -2.1150   -1.2800 O   0  0  0  0  0  0  0  0  0  0  0  0
   -4.2920   -0.4080    0.2410 C   0  0  0  0  0  0  0  0  0  0  0  0
   -5.6220   -0.6860    0.2460 O   0  0  0  0  0  0  0  0  0  0  0  0
   -0.1440    0.6600    0.5540 C   0  0  1  0  0  0  0  0  0  0  0  0
    0.0470    1.2030    1.5210 H   0  0  0  0  0  0  0  0  0  0  0  0
    0.6110   -0.5340    0.5560 O   0  0  0  0  0  0  0  0  0  0  0  0
    1.9460   -0.3970    0.3390 C   0  0  0  0  0  0  0  0  0  0  0  0
    2.6790   -1.5600    0.5810 C   0  0  0  0  0  0  0  0  0  0  0  0
    4.0570   -1.5110    0.3730 C   0  0  0  0  0  0  0  0  0  0  0  0
    4.7210   -2.6640    0.6370 O   0  0  0  0  0  0  0  0  0  0  0  0
    4.7100   -0.3500   -0.0470 C   0  0  0  0  0  0  0  0  0  0  0  0
    3.9290    0.7840   -0.2790 C   0  0  0  0  0  0  0  0  0  0  0  0
    4.4970    1.9680   -0.6270 O   0  0  0  0  0  0  0  0  0  0  0  0
    2.5430    0.7860   -0.1090 C   0  0  0  0  0  0  0  0  0  0  0  0
    1.7270    1.9890   -0.4060 C   0  0  0  0  0  0  0  0  0  0  0  0
    0.2630    1.5770   -0.6220 C   0  0  1  0  0  0  0  0  0  0  0  0
   -0.4040    2.4800   -0.6570 H   0  0  0  0  0  0  0  0  0  0  0  0
    0.1230    0.8000   -1.7720 O   0  0  0  0  0  0  0  0  0  0  0  0
   -5.6140    1.0760    1.6900 H   0  0  0  0  0  0  0  0  0  0  0  0
   -2.2290    1.7930    1.8360 H   0  0  0  0  0  0  0  0  0  0  0  0
   -1.2250   -1.3110   -0.9990 H   0  0  0  0  0  0  0  0  0  0  0  0
   -3.0450   -2.6550   -1.5410 H   0  0  0  0  0  0  0  0  0  0  0  0
   -5.7830   -1.4310   -0.3370 H   0  0  0  0  0  0  0  0  0  0  0  0
    2.1920   -2.4770    0.9260 H   0  0  0  0  0  0  0  0  0  0  0  0
    5.6130   -2.5950    0.2700 H   0  0  0  0  0  0  0  0  0  0  0  0
    5.7930   -0.3180   -0.1740 H   0  0  0  0  0  0  0  0  0  0  0  0
    5.2380    1.7810   -1.2230 H   0  0  0  0  0  0  0  0  0  0  0  0
    1.8070    2.7240    0.4240 H   0  0  0  0  0  0  0  0  0  0  0  0
    2.1190    2.5360   -1.2910 H   0  0  0  0  0  0  0  0  0  0  0  0
    0.4180    1.3240   -2.5210 H   0  0  0  0  0  0  0  0  0  0  0  0
  1  2  1  0
  1 25  1  0
  2  8  2  0
  2  3  1  0
  3  4  2  0
  3 26  1  0
  4  5  1  0
  4 10  1  0
  5 27  1  0
  5  6  2  0
  6  7  1  0
  6  8  1  0
  7 28  1  0
  8  9  1  0
  9 29  1  0
 10 22  1  0
 10 12  1  0
 10 11  1  1
 12 13  1  0
 13 20  2  0
 13 14  1  0
 14 15  2  0
 14 30  1  0
 15 17  1  0
 15 16  1  0
 16 31  1  0
 17 18  2  0
 17 32  1  0
 18 19  1  0
 18 20  1  0
 19 33  1  0
 20 21  1  0
 21 35  1  0
 21 22  1  0
 21 34  1  0
 22 24  1  0
 22 23  1  6
 24 36  1  0
M  END
>  <id>  (3) 
103

>  <scaffolds>  (3) 
['c1ccccc1', 'c1ccc(C2CCc3ccccc3O2)cc1']

>  <name>  (3) 
Epigallocatechin

>  <formula>  (3) 
C15H14O7

>  <SMILES>  (3) 
Oc1cc(cc(O)c1O)[C@H]3Oc2cc(O)cc(O)c2C[C@H]3O

>  <ChEMBL_id>  (3) 
CHEMBL130415 

>  <ZINC_id>  (3) 
ZINC03870339

>  <PubChem_id>  (3) 
 10425234

>  <DrugBank_id>  (3) 
DB03823 

>  <CAS_no>  (3) 
970-74-1

>  <references>  (3) 
[{'journal': {'name': 'South African Journal of Botany', 'id': 1}, 'title': 'Activity of South African medicinal plants against Listeria monocytogenes biofilms, and isolation  of active compounds from Acacia karroo', 'year': 2012, 'start_page': 220, 'volume': 78, 'issue': None, 'doi': 'doi:10.1016/j.sajb.2011.09.001', 'isbn': '', 'despositor': {'code': 'rah', 'first_name': 'Rowan', 'last_name': 'Hatherley', 'id': 20}, 'refauthors_set': [{'author': {'first_name': '', 'initials': 'MA', 'last_name': 'Nyila', 'id': 438}, 'first_author': True, 'id': 596}, {'author': {'first_name': '', 'initials': 'CM', 'last_name': 'Leonard', 'id': 439}, 'first_author': None, 'id': 597}, {'author': {'first_name': 'Ahmed', 'initials': 'AA', 'last_name': 'Hussein', 'id': 440}, 'first_author': None, 'id': 598}, {'author': {'first_name': 'Namrita', 'initials': 'N', 'last_name': 'Lall', 'id': 441}, 'first_author': None, 'id': 599}], 'id': 223}]

>  <classifications>  (3) 
[{'classification': 'Flavonoids', 'id': 776}, {'classification': 'Flavonoids (Classyfire)', 'id': 941}]

>  <molecular_mass>  (3) 
306.27

$$$$
SANC00104_minRM1.pdb
     RDKit          3D

 34 35  0  0  0  0  0  0  0  0999 V2000
    0.2920    0.2330   -2.3880 O   0  0  0  0  0  0  0  0  0  0  0  0
    0.2940    0.0470   -1.1820 C   0  0  0  0  0  0  0  0  0  0  0  0
    1.5750   -0.1730   -0.4660 C   0  0  0  0  0  0  0  0  0  0  0  0
    2.0450   -1.4690   -0.2740 C   0  0  0  0  0  0  0  0  0  0  0  0
    1.2720   -2.5290   -0.6430 O   0  0  0  0  0  0  0  0  0  0  0  0
    3.2630   -1.7330    0.3500 C   0  0  0  0  0  0  0  0  0  0  0  0
    4.0160   -0.6440    0.7740 C   0  0  0  0  0  0  0  0  0  0  0  0
    5.1800   -0.9040    1.4370 O   0  0  0  0  0  0  0  0  0  0  0  0
    3.5860    0.6740    0.6160 C   0  0  0  0  0  0  0  0  0  0  0  0
    2.3560    0.8950   -0.0030 C   0  0  0  0  0  0  0  0  0  0  0  0
    1.8130    2.1230   -0.2060 O   0  0  0  0  0  0  0  0  0  0  0  0
    2.5710    3.2380    0.2010 C   0  0  0  0  0  0  0  0  0  0  0  0
   -0.9290   -0.0150   -0.3710 C   0  0  0  0  0  0  0  0  0  0  0  0
   -2.1430    0.0660   -0.9320 C   0  0  0  0  0  0  0  0  0  0  0  0
   -3.3800    0.0110   -0.1620 C   0  0  0  0  0  0  0  0  0  0  0  0
   -3.3600   -0.1130    1.2270 C   0  0  0  0  0  0  0  0  0  0  0  0
   -4.5480   -0.1530    1.9450 C   0  0  0  0  0  0  0  0  0  0  0  0
   -5.7660   -0.0800    1.2810 C   0  0  0  0  0  0  0  0  0  0  0  0
   -5.7930    0.0360   -0.1040 C   0  0  0  0  0  0  0  0  0  0  0  0
   -4.6070    0.0820   -0.8250 C   0  0  0  0  0  0  0  0  0  0  0  0
    1.4760   -2.6940   -1.5720 H   0  0  0  0  0  0  0  0  0  0  0  0
    3.6090   -2.7560    0.5170 H   0  0  0  0  0  0  0  0  0  0  0  0
    5.8940   -0.6190    0.8480 H   0  0  0  0  0  0  0  0  0  0  0  0
    4.2160    1.4820    0.9940 H   0  0  0  0  0  0  0  0  0  0  0  0
    2.7320    3.2730    1.2920 H   0  0  0  0  0  0  0  0  0  0  0  0
    3.5440    3.3140   -0.3120 H   0  0  0  0  0  0  0  0  0  0  0  0
    1.9510    4.0970   -0.0920 H   0  0  0  0  0  0  0  0  0  0  0  0
   -0.7890   -0.1380    0.7090 H   0  0  0  0  0  0  0  0  0  0  0  0
   -2.2490    0.1870   -2.0190 H   0  0  0  0  0  0  0  0  0  0  0  0
   -2.4030   -0.1760    1.7580 H   0  0  0  0  0  0  0  0  0  0  0  0
   -4.5230   -0.2430    3.0340 H   0  0  0  0  0  0  0  0  0  0  0  0
   -6.7010   -0.1060    1.8470 H   0  0  0  0  0  0  0  0  0  0  0  0
   -6.7530    0.0840   -0.6270 H   0  0  0  0  0  0  0  0  0  0  0  0
   -4.6460    0.1750   -1.9150 H   0  0  0  0  0  0  0  0  0  0  0  0
  1  2  2  0
  2  3  1  0
  2 13  1  0
  3  4  2  0
  3 10  1  0
  4  5  1  0
  4  6  1  0
  5 21  1  0
  6 22  1  0
  6  7  2  0
  7  9  1  0
  7  8  1  0
  8 23  1  0
  9 10  2  0
  9 24  1  0
 10 11  1  0
 11 12  1  0
 12 26  1  0
 12 27  1  0
 12 25  1  0
 13 14  2  0
 13 28  1  0
 14 29  1  0
 14 15  1  0
 15 20  2  0
 15 16  1  0
 16 30  1  0
 16 17  2  0
 17 18  1  0
 17 31  1  0
 18 19  2  0
 18 32  1  0
 19 20  1  0
 19 33  1  0
 20 34  1  0
M  END
>  <id>  (4) 
104

>  <scaffolds>  (4) 
['c1ccccc1', 'O=C(C=Cc1ccccc1)c1ccccc1', 'C(=Cc1ccccc1)Cc1ccccc1']

>  <name>  (4) 
Cardamonin

>  <formula>  (4) 
C16H14O4

>  <SMILES>  (4) 
O=C(c1c(O)cc(O)cc1OC)\C=C\c2ccccc2

>  <ChEMBL_id>  (4) 
CHEMBL378104

>  <ZINC_id>  (4) 
ZINC04716487

>  <PubChem_id>  (4) 
 641785

>  <DrugBank_id>  (4) 


>  <CAS_no>  (4) 
19309-14-9

>  <references>  (4) 
[{'journal': {'name': 'South African Journal of Botany', 'id': 1}, 'title': 'Isolation of antioxidant constituents from Combretum apiculatum subsp. apiculatum', 'year': 2012, 'start_page': 125, 'volume': 79, 'issue': None, 'doi': '10.1016/j.sajb.2011.10.004', 'isbn': '', 'despositor': {'code': 'rah', 'first_name': 'Rowan', 'last_name': 'Hatherley', 'id': 20}, 'refauthors_set': [{'author': {'first_name': '', 'initials': 'MA', 'last_name': 'Aderogba', 'id': 442}, 'first_author': True, 'id': 600}, {'author': {'first_name': '', 'initials': 'DT', 'last_name': 'Kgatle', 'id': 443}, 'first_author': None, 'id': 601}, {'author': {'first_name': '', 'initials': 'LJ', 'last_name': 'McGaw', 'id': 444}, 'first_author': None, 'id': 602}, {'author': {'first_name': '', 'initials': 'JN', 'last_name': 'Eloff', 'id': 445}, 'first_author': None, 'id': 603}], 'id': 224}]

>  <classifications>  (4) 
[{'classification': 'Chalcone', 'id': 760}, {'classification': 'Linear 1,3-diarylpropanoids (Classyfire)', 'id': 943}]

>  <molecular_mass>  (4) 
270.28

$$$$
SANC00105_minRM1.pdb
     RDKit          3D

 31 33  0  0  1  0  0  0  0  0999 V2000
    1.2890    2.8850    0.2520 O   0  0  0  0  0  0  0  0  0  0  0  0
    0.7770    1.7700    0.1800 C   0  0  0  0  0  0  0  0  0  0  0  0
    1.5850    0.5860   -0.0310 C   0  0  0  0  0  0  0  0  0  0  0  0
    0.9880   -0.6810   -0.1130 C   0  0  0  0  0  0  0  0  0  0  0  0
   -0.3600   -0.8370   -0.0700 O   0  0  0  0  0  0  0  0  0  0  0  0
   -1.1070    0.3040   -0.4670 C   0  0  1  0  0  0  0  0  0  0  0  0
   -2.5470   -0.0310   -0.2070 C   0  0  0  0  0  0  0  0  0  0  0  0
   -2.9260   -0.6850    0.9600 C   0  0  0  0  0  0  0  0  0  0  0  0
   -4.2660   -0.9870    1.1770 C   0  0  0  0  0  0  0  0  0  0  0  0
   -5.2250   -0.6230    0.2400 C   0  0  0  0  0  0  0  0  0  0  0  0
   -4.8450    0.0460   -0.9170 C   0  0  0  0  0  0  0  0  0  0  0  0
   -3.5070    0.3400   -1.1450 C   0  0  0  0  0  0  0  0  0  0  0  0
   -0.6950    1.5380    0.3430 C   0  0  0  0  0  0  0  0  0  0  0  0
    1.7340   -1.8470   -0.1940 C   0  0  0  0  0  0  0  0  0  0  0  0
    3.1300   -1.7130   -0.2380 C   0  0  0  0  0  0  0  0  0  0  0  0
    3.8030   -2.8790   -0.3140 O   0  0  0  0  0  0  0  0  0  0  0  0
    3.7760   -0.4780   -0.2040 C   0  0  0  0  0  0  0  0  0  0  0  0
    2.9870    0.6710   -0.0930 C   0  0  0  0  0  0  0  0  0  0  0  0
    3.6380    1.8370   -0.0540 O   0  0  0  0  0  0  0  0  0  0  0  0
   -0.9200    0.4850   -1.5620 H   0  0  0  0  0  0  0  0  0  0  0  0
   -2.1780   -0.9730    1.7050 H   0  0  0  0  0  0  0  0  0  0  0  0
   -4.5640   -1.5130    2.0890 H   0  0  0  0  0  0  0  0  0  0  0  0
   -6.2780   -0.8620    0.4120 H   0  0  0  0  0  0  0  0  0  0  0  0
   -5.6000    0.3400   -1.6520 H   0  0  0  0  0  0  0  0  0  0  0  0
   -3.2190    0.8600   -2.0640 H   0  0  0  0  0  0  0  0  0  0  0  0
   -0.9200    1.4040    1.4240 H   0  0  0  0  0  0  0  0  0  0  0  0
   -1.2920    2.4210    0.0350 H   0  0  0  0  0  0  0  0  0  0  0  0
    1.2590   -2.8320   -0.2120 H   0  0  0  0  0  0  0  0  0  0  0  0
    4.7430   -2.7070   -0.4400 H   0  0  0  0  0  0  0  0  0  0  0  0
    4.8620   -0.3870   -0.2480 H   0  0  0  0  0  0  0  0  0  0  0  0
    3.0160    2.5860    0.1000 H   0  0  0  0  0  0  0  0  0  0  0  0
  1  2  2  0
  2  3  1  0
  2 13  1  0
  3  4  2  0
  3 18  1  0
  4 14  1  0
  4  5  1  0
  5  6  1  0
  6 20  1  6
  6  7  1  0
  6 13  1  0
  7 12  2  0
  7  8  1  0
  8  9  2  0
  8 21  1  0
  9 10  1  0
  9 22  1  0
 10 11  2  0
 10 23  1  0
 11 24  1  0
 11 12  1  0
 12 25  1  0
 13 27  1  0
 13 26  1  0
 14 15  2  0
 14 28  1  0
 15 16  1  0
 15 17  1  0
 16 29  1  0
 17 30  1  0
 17 18  2  0
 18 19  1  0
 19 31  1  0
M  END
>  <id>  (5) 
105

>  <scaffolds>  (5) 
['c1ccccc1', 'O=C1CC(c2ccccc2)Oc2ccccc21', 'c1ccc(C2CCc3ccccc3O2)cc1', 'O=C(CCc1ccccc1)c1ccccc1']

>  <name>  (5) 
Pinocembrin

>  <formula>  (5) 
C15H12O4

>  <SMILES>  (5) 
O=C2c3c(OC(c1ccccc1)C2)cc(O)cc3O

>  <ChEMBL_id>  (5) 
CHEMBL399910

>  <ZINC_id>  (5) 
ZINC00073693

>  <PubChem_id>  (5) 
 238782

>  <DrugBank_id>  (5) 


>  <CAS_no>  (5) 
480-39-7

>  <references>  (5) 
[{'journal': {'name': 'South African Journal of Botany', 'id': 1}, 'title': 'Isolation of antioxidant constituents from Combretum apiculatum subsp. apiculatum', 'year': 2012, 'start_page': 125, 'volume': 79, 'issue': None, 'doi': '10.1016/j.sajb.2011.10.004', 'isbn': '', 'despositor': {'code': 'rah', 'first_name': 'Rowan', 'last_name': 'Hatherley', 'id': 20}, 'refauthors_set': [{'author': {'first_name': '', 'initials': 'MA', 'last_name': 'Aderogba', 'id': 442}, 'first_author': True, 'id': 600}, {'author': {'first_name': '', 'initials': 'DT', 'last_name': 'Kgatle', 'id': 443}, 'first_author': None, 'id': 601}, {'author': {'first_name': '', 'initials': 'LJ', 'last_name': 'McGaw', 'id': 444}, 'first_author': None, 'id': 602}, {'author': {'first_name': '', 'initials': 'JN', 'last_name': 'Eloff', 'id': 445}, 'first_author': None, 'id': 603}], 'id': 224}]

>  <classifications>  (5) 
[{'classification': 'Flavonoids', 'id': 776}, {'classification': 'Flavonoids (Classyfire)', 'id': 941}]

>  <molecular_mass>  (5) 
256.25

$$$$
SANC00106_minRM1.pdb
     RDKit          3D

 31 33  0  0  0  0  0  0  0  0999 V2000
    1.8070    2.8270    0.1090 O   0  0  0  0  0  0  0  0  0  0  0  0
    1.2790    1.7140    0.0380 C   0  0  0  0  0  0  0  0  0  0  0  0
    2.0590    0.5060   -0.0460 C   0  0  0  0  0  0  0  0  0  0  0  0
    1.4300   -0.7430   -0.0680 C   0  0  0  0  0  0  0  0  0  0  0  0
    0.0760   -0.8770   -0.0170 O   0  0  0  0  0  0  0  0  0  0  0  0
   -0.6930    0.2540    0.0220 C   0  0  0  0  0  0  0  0  0  0  0  0
   -0.1680    1.5030    0.0410 C   0  0  0  0  0  0  0  0  0  0  0  0
   -1.0200    2.5590    0.0140 O   0  0  0  0  0  0  0  0  0  0  0  0
   -2.1100   -0.0880    0.0130 C   0  0  0  0  0  0  0  0  0  0  0  0
   -2.9670    0.5710   -0.8660 C   0  0  0  0  0  0  0  0  0  0  0  0
   -4.3160    0.2420   -0.8920 C   0  0  0  0  0  0  0  0  0  0  0  0
   -4.7860   -0.7490   -0.0300 C   0  0  0  0  0  0  0  0  0  0  0  0
   -6.0950   -1.1070    0.0340 O   0  0  0  0  0  0  0  0  0  0  0  0
   -3.9370   -1.4080    0.8650 C   0  0  0  0  0  0  0  0  0  0  0  0
   -2.5930   -1.0730    0.8770 C   0  0  0  0  0  0  0  0  0  0  0  0
    2.1390   -1.9350   -0.1550 C   0  0  0  0  0  0  0  0  0  0  0  0
    3.5350   -1.8400   -0.2430 C   0  0  0  0  0  0  0  0  0  0  0  0
    4.1750   -3.0220   -0.3440 O   0  0  0  0  0  0  0  0  0  0  0  0
    4.2170   -0.6200   -0.2260 C   0  0  0  0  0  0  0  0  0  0  0  0
    3.4660    0.5520   -0.1220 C   0  0  0  0  0  0  0  0  0  0  0  0
    4.1460    1.7010   -0.1000 O   0  0  0  0  0  0  0  0  0  0  0  0
   -0.5890    3.2940    0.4690 H   0  0  0  0  0  0  0  0  0  0  0  0
   -2.5850    1.3420   -1.5430 H   0  0  0  0  0  0  0  0  0  0  0  0
   -4.9930    0.7670   -1.5710 H   0  0  0  0  0  0  0  0  0  0  0  0
   -6.4770   -1.0070   -0.8470 H   0  0  0  0  0  0  0  0  0  0  0  0
   -4.3340   -2.1660    1.5460 H   0  0  0  0  0  0  0  0  0  0  0  0
   -1.9120   -1.5920    1.5590 H   0  0  0  0  0  0  0  0  0  0  0  0
    1.6370   -2.9050   -0.1580 H   0  0  0  0  0  0  0  0  0  0  0  0
    5.1180   -2.8670   -0.4750 H   0  0  0  0  0  0  0  0  0  0  0  0
    5.3060   -0.5620   -0.2870 H   0  0  0  0  0  0  0  0  0  0  0  0
    3.5310    2.4660    0.0190 H   0  0  0  0  0  0  0  0  0  0  0  0
  1  2  2  0
  2  3  1  0
  2  7  1  0
  3 20  2  0
  3  4  1  0
  4 16  2  0
  4  5  1  0
  5  6  1  0
  6  9  1  0
  6  7  2  0
  7  8  1  0
  8 22  1  0
  9 10  2  0
  9 15  1  0
 10 23  1  0
 10 11  1  0
 11 24  1  0
 11 12  2  0
 12 13  1  0
 12 14  1  0
 13 25  1  0
 14 15  2  0
 14 26  1  0
 15 27  1  0
 16 17  1  0
 16 28  1  0
 17 18  1  0
 17 19  2  0
 18 29  1  0
 19 30  1  0
 19 20  1  0
 20 21  1  0
 21 31  1  0
M  END
>  <id>  (6) 
106

>  <scaffolds>  (6) 
['c1ccccc1', 'O=c1cc(-c2ccccc2)oc2ccccc12', 'O=c1ccoc2ccccc12']

>  <name>  (6) 
Kaempferol

>  <formula>  (6) 
C15H10O6

>  <SMILES>  (6) 
O=C1c3c(O/C(=C1/O)c2ccc(O)cc2)cc(O)cc3O

>  <ChEMBL_id>  (6) 
CHEMBL150

>  <ZINC_id>  (6) 
ZINC03869768

>  <PubChem_id>  (6) 
 5280863

>  <DrugBank_id>  (6) 
DB01852  

>  <CAS_no>  (6) 
520-18-3

>  <references>  (6) 
[{'journal': {'name': 'South African Journal of Botany', 'id': 1}, 'title': 'Isolation of antioxidant constituents from Combretum apiculatum subsp. apiculatum', 'year': 2012, 'start_page': 125, 'volume': 79, 'issue': None, 'doi': '10.1016/j.sajb.2011.10.004', 'isbn': '', 'despositor': {'code': 'rah', 'first_name': 'Rowan', 'last_name': 'Hatherley', 'id': 20}, 'refauthors_set': [{'author': {'first_name': '', 'initials': 'MA', 'last_name': 'Aderogba', 'id': 442}, 'first_author': True, 'id': 600}, {'author': {'first_name': '', 'initials': 'DT', 'last_name': 'Kgatle', 'id': 443}, 'first_author': None, 'id': 601}, {'author': {'first_name': '', 'initials': 'LJ', 'last_name': 'McGaw', 'id': 444}, 'first_author': None, 'id': 602}, {'author': {'first_name': '', 'initials': 'JN', 'last_name': 'Eloff', 'id': 445}, 'first_author': None, 'id': 603}], 'id': 224}]

>  <classifications>  (6) 
[{'classification': 'Flavonoids', 'id': 776}, {'classification': 'Flavonoids (Classyfire)', 'id': 941}]

>  <molecular_mass>  (6) 
286.24

$$$$
SANC00107_minRM1.pdb
     RDKit          3D

 52 55  0  0  1  0  0  0  0  0999 V2000
    2.0440    2.5570   -0.2970 O   0  0  0  0  0  0  0  0  0  0  0  0
    1.9890    1.3240   -0.3020 C   0  0  0  0  0  0  0  0  0  0  0  0
    0.7530    0.5510   -0.3960 C   0  0  0  0  0  0  0  0  0  0  0  0
   -0.4300    1.2000   -0.6130 O   0  0  0  0  0  0  0  0  0  0  0  0
   -0.8500    2.0070    0.4720 C   0  0  2  0  0  0  0  0  0  0  0  0
   -0.0370    2.6030    0.9670 H   0  0  0  0  0  0  0  0  0  0  0  0
   -1.2840    1.1740    1.4920 O   0  0  0  0  0  0  0  0  0  0  0  0
   -2.4460    0.4160    1.2490 C   0  0  2  0  0  0  0  0  0  0  0  0
   -2.2670   -0.3330    0.4300 H   0  0  0  0  0  0  0  0  0  0  0  0
   -3.6300    1.3250    0.8460 C   0  0  1  0  0  0  0  0  0  0  0  0
   -4.5350    0.6980    0.6320 H   0  0  0  0  0  0  0  0  0  0  0  0
   -3.8510    2.2900    1.8330 O   0  0  0  0  0  0  0  0  0  0  0  0
   -3.2220    2.0960   -0.4330 C   0  0  1  0  0  0  0  0  0  0  0  0
   -3.0170    1.3680   -1.2680 H   0  0  0  0  0  0  0  0  0  0  0  0
   -4.3040    2.9120   -0.7410 O   0  0  0  0  0  0  0  0  0  0  0  0
   -1.9510    2.9220   -0.1310 C   0  0  2  0  0  0  0  0  0  0  0  0
   -2.1790    3.7410    0.6080 H   0  0  0  0  0  0  0  0  0  0  0  0
   -1.5600    3.4610   -1.3510 O   0  0  0  0  0  0  0  0  0  0  0  0
   -2.7160   -0.3100    2.5640 C   0  0  0  0  0  0  0  0  0  0  0  0
    0.7730   -0.8010   -0.4010 C   0  0  0  0  0  0  0  0  0  0  0  0
    1.9150   -1.5400   -0.2800 O   0  0  0  0  0  0  0  0  0  0  0  0
    3.1040   -0.8780   -0.1750 C   0  0  0  0  0  0  0  0  0  0  0  0
    4.2190   -1.6930   -0.0370 C   0  0  0  0  0  0  0  0  0  0  0  0
    5.4610   -1.0530    0.0640 C   0  0  0  0  0  0  0  0  0  0  0  0
    6.5120   -1.8780    0.2120 O   0  0  0  0  0  0  0  0  0  0  0  0
    5.6060    0.3380    0.0370 C   0  0  0  0  0  0  0  0  0  0  0  0
    4.4520    1.1170   -0.0880 C   0  0  0  0  0  0  0  0  0  0  0  0
    4.6230    2.4450   -0.1130 O   0  0  0  0  0  0  0  0  0  0  0  0
    3.1840    0.5170   -0.1960 C   0  0  0  0  0  0  0  0  0  0  0  0
   -0.3820   -1.6740   -0.6020 C   0  0  0  0  0  0  0  0  0  0  0  0
   -1.2060   -1.4540   -1.7050 C   0  0  0  0  0  0  0  0  0  0  0  0
   -2.3270   -2.2490   -1.8970 C   0  0  0  0  0  0  0  0  0  0  0  0
   -2.6120   -3.2600   -0.9820 C   0  0  0  0  0  0  0  0  0  0  0  0
   -3.7080   -4.0610   -1.0680 O   0  0  0  0  0  0  0  0  0  0  0  0
   -1.7730   -3.4860    0.1220 C   0  0  0  0  0  0  0  0  0  0  0  0
   -2.0060   -4.4160    1.0780 O   0  0  0  0  0  0  0  0  0  0  0  0
   -0.6420   -2.6920    0.3100 C   0  0  0  0  0  0  0  0  0  0  0  0
   -4.4990    1.9130    2.4370 H   0  0  0  0  0  0  0  0  0  0  0  0
   -4.0580    3.4690   -1.4850 H   0  0  0  0  0  0  0  0  0  0  0  0
   -0.6510    3.7900   -1.2690 H   0  0  0  0  0  0  0  0  0  0  0  0
   -2.8050    0.3730    3.4190 H   0  0  0  0  0  0  0  0  0  0  0  0
   -3.6430   -0.8990    2.5110 H   0  0  0  0  0  0  0  0  0  0  0  0
   -1.9050   -1.0120    2.8100 H   0  0  0  0  0  0  0  0  0  0  0  0
    4.1380   -2.7820    0.0030 H   0  0  0  0  0  0  0  0  0  0  0  0
    7.3470   -1.3690    0.2600 H   0  0  0  0  0  0  0  0  0  0  0  0
    6.5830    0.8230    0.1150 H   0  0  0  0  0  0  0  0  0  0  0  0
    3.7550    2.9060   -0.0880 H   0  0  0  0  0  0  0  0  0  0  0  0
   -0.9910   -0.6350   -2.4010 H   0  0  0  0  0  0  0  0  0  0  0  0
   -2.9800   -2.0730   -2.7560 H   0  0  0  0  0  0  0  0  0  0  0  0
   -3.9510   -4.1300   -2.0080 H   0  0  0  0  0  0  0  0  0  0  0  0
   -2.6200   -5.0810    0.7300 H   0  0  0  0  0  0  0  0  0  0  0  0
    0.0160   -2.8660    1.1670 H   0  0  0  0  0  0  0  0  0  0  0  0
  1  2  2  0
  2  3  1  0
  2 29  1  0
  3  4  1  0
  3 20  2  0
  4  5  1  0
  5 16  1  0
  5  6  1  1
  5  7  1  0
  7  8  1  0
  8  9  1  6
  8 10  1  0
  8 19  1  0
 10 13  1  0
 10 11  1  6
 10 12  1  0
 12 38  1  0
 13 14  1  6
 13 15  1  0
 13 16  1  0
 15 39  1  0
 16 18  1  0
 16 17  1  1
 18 40  1  0
 19 42  1  0
 19 43  1  0
 19 41  1  0
 20 30  1  0
 20 21  1  0
 21 22  1  0
 22 29  2  0
 22 23  1  0
 23 44  1  0
 23 24  2  0
 24 26  1  0
 24 25  1  0
 25 45  1  0
 26 27  2  0
 26 46  1  0
 27 29  1  0
 27 28  1  0
 28 47  1  0
 30 31  2  0
 30 37  1  0
 31 48  1  0
 31 32  1  0
 32 49  1  0
 32 33  2  0
 33 34  1  0
 33 35  1  0
 34 50  1  0
 35 37  2  0
 35 36  1  0
 36 51  1  0
 37 52  1  0
M  END
>  <id>  (7) 
107

>  <scaffolds>  (7) 
['c1ccccc1', 'O=c1cc(-c2ccccc2)oc2ccccc12', 'O=c1c(OC2CCCCO2)c(-c2ccccc2)oc2ccccc12', 'C1CCOCC1', 'O=c1ccoc2ccccc12']

>  <name>  (7) 
Quercetrin-3-O-rhamnoside

>  <formula>  (7) 
C21H20O11

>  <SMILES>  (7) 
O=C2C(\O[C@@H]1O[C@H]([C@@H](O)[C@@H](O)[C@@H]1O)C)=C(/Oc3cc(O)cc(O)c23)c4ccc(O)c(O)c4

>  <ChEMBL_id>  (7) 


>  <ZINC_id>  (7) 


>  <PubChem_id>  (7) 
 5359430

>  <DrugBank_id>  (7) 


>  <CAS_no>  (7) 
522-12-3

>  <references>  (7) 
[{'journal': {'name': 'South African Journal of Botany', 'id': 1}, 'title': 'Isolation of antioxidant constituents from Combretum apiculatum subsp. apiculatum', 'year': 2012, 'start_page': 125, 'volume': 79, 'issue': None, 'doi': '10.1016/j.sajb.2011.10.004', 'isbn': '', 'despositor': {'code': 'rah', 'first_name': 'Rowan', 'last_name': 'Hatherley', 'id': 20}, 'refauthors_set': [{'author': {'first_name': '', 'initials': 'MA', 'last_name': 'Aderogba', 'id': 442}, 'first_author': True, 'id': 600}, {'author': {'first_name': '', 'initials': 'DT', 'last_name': 'Kgatle', 'id': 443}, 'first_author': None, 'id': 601}, {'author': {'first_name': '', 'initials': 'LJ', 'last_name': 'McGaw', 'id': 444}, 'first_author': None, 'id': 602}, {'author': {'first_name': '', 'initials': 'JN', 'last_name': 'Eloff', 'id': 445}, 'first_author': None, 'id': 603}], 'id': 224}]

>  <classifications>  (7) 
[{'classification': 'Flavonoids', 'id': 776}, {'classification': 'Flavonoids (Classyfire)', 'id': 941}]

>  <molecular_mass>  (7) 
448.38

$$$$
SANC00108_minRM1.pdb
     RDKit          3D

 38 39  0  0  1  0  0  0  0  0999 V2000
    1.1620   -0.2830   -1.4200 H   0  0  0  0  0  0  0  0  0  0  0  0
    1.4440    0.1130   -0.4090 C   0  0  2  0  0  0  0  0  0  0  0  0
    2.1720   -0.9590    0.4240 C   0  0  1  0  0  0  0  0  0  0  0  0
    1.9300   -0.8580    1.5120 H   0  0  0  0  0  0  0  0  0  0  0  0
    1.7900   -2.3710   -0.0340 C   0  0  0  0  0  0  0  0  0  0  0  0
    2.4850   -3.2390    0.8180 O   0  0  0  0  0  0  0  0  0  0  0  0
    3.6580   -0.6570    0.2060 C   0  0  0  0  0  0  0  0  0  0  0  0
    3.7120    0.8570   -0.0420 C   0  0  0  0  0  0  0  0  0  0  0  0
    2.4120    1.2260   -0.6740 N   0  0  0  0  0  0  0  0  0  0  0  0
    1.8170    2.4940   -0.1580 C   0  0  0  0  0  0  0  0  0  0  0  0
    0.3180    2.2370    0.0360 C   0  0  0  0  0  0  0  0  0  0  0  0
    0.2170    0.7300    0.3070 C   0  0  1  0  0  0  0  0  0  0  0  0
    0.2040    0.5130    1.4060 H   0  0  0  0  0  0  0  0  0  0  0  0
   -0.9170    0.1590   -0.3140 O   0  0  0  0  0  0  0  0  0  0  0  0
   -2.1420    0.5210    0.1510 C   0  0  0  0  0  0  0  0  0  0  0  0
   -2.2400    1.2810    1.0980 O   0  0  0  0  0  0  0  0  0  0  0  0
   -3.2370   -0.1050   -0.6080 C   0  0  0  0  0  0  0  0  0  0  0  0
   -3.0290   -0.2420   -2.0720 C   0  0  0  0  0  0  0  0  0  0  0  0
   -4.3520   -0.5090    0.0100 C   0  0  0  0  0  0  0  0  0  0  0  0
   -4.5810   -0.3810    1.4680 C   0  0  0  0  0  0  0  0  0  0  0  0
    0.6860   -2.5140    0.0330 H   0  0  0  0  0  0  0  0  0  0  0  0
    2.0530   -2.5440   -1.1040 H   0  0  0  0  0  0  0  0  0  0  0  0
    2.2480   -4.1360    0.5650 H   0  0  0  0  0  0  0  0  0  0  0  0
    4.2800   -0.9690    1.0670 H   0  0  0  0  0  0  0  0  0  0  0  0
    4.0730   -1.2200   -0.6540 H   0  0  0  0  0  0  0  0  0  0  0  0
    3.9520    1.4040    0.9000 H   0  0  0  0  0  0  0  0  0  0  0  0
    4.5190    1.1450   -0.7510 H   0  0  0  0  0  0  0  0  0  0  0  0
    2.2760    2.8810    0.7810 H   0  0  0  0  0  0  0  0  0  0  0  0
    2.0160    3.2820   -0.9160 H   0  0  0  0  0  0  0  0  0  0  0  0
   -0.1100    2.8440    0.8570 H   0  0  0  0  0  0  0  0  0  0  0  0
   -0.2620    2.5320   -0.8630 H   0  0  0  0  0  0  0  0  0  0  0  0
   -2.2620   -0.9990   -2.2970 H   0  0  0  0  0  0  0  0  0  0  0  0
   -3.9400   -0.5380   -2.6120 H   0  0  0  0  0  0  0  0  0  0  0  0
   -2.6870    0.7020   -2.5230 H   0  0  0  0  0  0  0  0  0  0  0  0
   -5.1670   -0.9620   -0.5680 H   0  0  0  0  0  0  0  0  0  0  0  0
   -3.7210   -0.7130    2.0690 H   0  0  0  0  0  0  0  0  0  0  0  0
   -4.7730    0.6670    1.7490 H   0  0  0  0  0  0  0  0  0  0  0  0
   -5.4480   -0.9660    1.8110 H   0  0  0  0  0  0  0  0  0  0  0  0
  2  1  1  6
  2  9  1  0
  2 12  1  0
  2  3  1  0
  3  5  1  0
  3  7  1  0
  3  4  1  1
  5 22  1  0
  5 21  1  0
  5  6  1  0
  6 23  1  0
  7 25  1  0
  7  8  1  0
  7 24  1  0
  8 27  1  0
  8 26  1  0
  9  8  1  0
  9 10  1  0
 10 29  1  0
 10 11  1  0
 10 28  1  0
 11 31  1  0
 11 12  1  0
 11 30  1  0
 12 14  1  0
 12 13  1  1
 14 15  1  0
 15 17  1  0
 15 16  2  0
 17 18  1  0
 17 19  2  0
 18 33  1  0
 18 34  1  0
 18 32  1  0
 19 35  1  0
 19 20  1  0
 20 37  1  0
 20 38  1  0
 20 36  1  0
M  END
>  <id>  (8) 
108

>  <scaffolds>  (8) 
['C1CC2CCCN2C1', 'C1CCNC1']

>  <name>  (8) 
7-angelylhastanecine

>  <formula>  (8) 
C13H21NO3

>  <SMILES>  (8) 
[H][C@@]12[C@@H](CO)CCN1CC[C@H]2OC(=O)/C(C)=C\C

>  <ChEMBL_id>  (8) 


>  <ZINC_id>  (8) 


>  <PubChem_id>  (8) 


>  <DrugBank_id>  (8) 


>  <CAS_no>  (8) 
136173-31-4

>  <references>  (8) 
[{'journal': {'name': 'Thesis, Rhodes University', 'id': 2}, 'title': 'The Pyrrolizidine Alkaloids of Senecio Chrysocoma and Senecio Paniculatus', 'year': 1995, 'start_page': None, 'volume': None, 'issue': None, 'doi': None, 'isbn': None, 'despositor': {'code': 'rah', 'first_name': 'Rowan', 'last_name': 'Hatherley', 'id': 20}, 'refauthors_set': [{'author': {'first_name': 'Catherine', 'initials': 'CG', 'last_name': 'Logie', 'id': 446}, 'first_author': True, 'id': 604}], 'id': 225}]

>  <classifications>  (8) 
[{'classification': 'Alkaloid', 'id': 738}, {'classification': 'Pyrrolizidine', 'id': 818}, {'classification': 'Pyrrolizidines (Classyfire)', 'id': 944}]

>  <molecular_mass>  (8) 
239.31

$$$$
SANC00109_minRM1.pdb
     RDKit          3D

 38 39  0  0  1  0  0  0  0  0999 V2000
    2.0890   -1.1250    1.0750 H   0  0  0  0  0  0  0  0  0  0  0  0
    2.2400   -0.3440    0.2840 C   0  0  1  0  0  0  0  0  0  0  0  0
    3.1340   -0.9040   -0.8540 C   0  0  2  0  0  0  0  0  0  0  0  0
    2.9130   -0.4120   -1.8400 H   0  0  0  0  0  0  0  0  0  0  0  0
    2.8870   -2.2750   -0.9210 O   0  0  0  0  0  0  0  0  0  0  0  0
    4.5710   -0.5760   -0.4070 C   0  0  0  0  0  0  0  0  0  0  0  0
    4.4390    0.6110    0.5590 C   0  0  0  0  0  0  0  0  0  0  0  0
    3.0030    0.7690    0.9320 N   0  0  0  0  0  0  0  0  0  0  0  0
    2.3830    2.0480    0.4730 C   0  0  0  0  0  0  0  0  0  0  0  0
    0.9080    1.7080    0.2300 C   0  0  0  0  0  0  0  0  0  0  0  0
    0.9040    0.2380   -0.2180 C   0  0  2  0  0  0  0  0  0  0  0  0
    0.8390    0.1830   -1.3350 H   0  0  0  0  0  0  0  0  0  0  0  0
   -0.2760   -0.5430    0.3740 C   0  0  0  0  0  0  0  0  0  0  0  0
   -1.4250    0.0750   -0.1810 O   0  0  0  0  0  0  0  0  0  0  0  0
   -2.6370   -0.4500    0.1420 C   0  0  0  0  0  0  0  0  0  0  0  0
   -2.6920   -1.4050    0.9010 O   0  0  0  0  0  0  0  0  0  0  0  0
   -3.7550    0.2480   -0.5080 C   0  0  0  0  0  0  0  0  0  0  0  0
   -3.4240    1.0830   -1.6980 C   0  0  0  0  0  0  0  0  0  0  0  0
   -5.0090    0.1290   -0.0510 C   0  0  0  0  0  0  0  0  0  0  0  0
   -5.4080   -0.6860    1.1230 C   0  0  0  0  0  0  0  0  0  0  0  0
    3.4840   -2.6420   -1.5800 H   0  0  0  0  0  0  0  0  0  0  0  0
    5.0520   -1.4430    0.0880 H   0  0  0  0  0  0  0  0  0  0  0  0
    5.2300   -0.3430   -1.2650 H   0  0  0  0  0  0  0  0  0  0  0  0
    4.9940    0.4310    1.5070 H   0  0  0  0  0  0  0  0  0  0  0  0
    4.9000    1.5340    0.1380 H   0  0  0  0  0  0  0  0  0  0  0  0
    2.5240    2.8060    1.2740 H   0  0  0  0  0  0  0  0  0  0  0  0
    2.8400    2.5020   -0.4390 H   0  0  0  0  0  0  0  0  0  0  0  0
    0.3060    1.8620    1.1490 H   0  0  0  0  0  0  0  0  0  0  0  0
    0.4420    2.3760   -0.5210 H   0  0  0  0  0  0  0  0  0  0  0  0
   -0.2270   -1.6230    0.1000 H   0  0  0  0  0  0  0  0  0  0  0  0
   -0.3000   -0.5010    1.4880 H   0  0  0  0  0  0  0  0  0  0  0  0
   -2.8560    0.5090   -2.4490 H   0  0  0  0  0  0  0  0  0  0  0  0
   -4.3110    1.4800   -2.2120 H   0  0  0  0  0  0  0  0  0  0  0  0
   -2.8000    1.9490   -1.4180 H   0  0  0  0  0  0  0  0  0  0  0  0
   -5.8250    0.6590   -0.5590 H   0  0  0  0  0  0  0  0  0  0  0  0
   -5.2580   -1.7630    0.9350 H   0  0  0  0  0  0  0  0  0  0  0  0
   -4.8250   -0.4390    2.0260 H   0  0  0  0  0  0  0  0  0  0  0  0
   -6.4700   -0.5560    1.3890 H   0  0  0  0  0  0  0  0  0  0  0  0
  2  1  1  1
  2  3  1  0
  2 11  1  0
  2  8  1  0
  3  4  1  6
  3  5  1  0
  3  6  1  0
  5 21  1  0
  6 23  1  0
  6 22  1  0
  6  7  1  0
  7 25  1  0
  7 24  1  0
  8  7  1  0
  8  9  1  0
  9 27  1  0
  9 10  1  0
  9 26  1  0
 10 29  1  0
 10 11  1  0
 10 28  1  0
 11 12  1  6
 11 13  1  0
 13 14  1  0
 13 30  1  0
 13 31  1  0
 14 15  1  0
 15 17  1  0
 15 16  2  0
 17 18  1  0
 17 19  2  0
 18 32  1  0
 18 33  1  0
 18 34  1  0
 19 35  1  0
 19 20  1  0
 20 36  1  0
 20 38  1  0
 20 37  1  0
M  END
>  <id>  (9) 
109

>  <scaffolds>  (9) 
['C1CC2CCCN2C1', 'C1CCNC1']

>  <name>  (9) 
9-angelylhastanecine

>  <formula>  (9) 
C13H21NO3

>  <SMILES>  (9) 
[H][C@]12[C@H](O)CCN1CC[C@@H]2COC(=O)/C(C)=C\C

>  <ChEMBL_id>  (9) 


>  <ZINC_id>  (9) 


>  <PubChem_id>  (9) 


>  <DrugBank_id>  (9) 


>  <CAS_no>  (9) 
173010-19-0

>  <references>  (9) 
[{'journal': {'name': 'Thesis, Rhodes University', 'id': 2}, 'title': 'The Pyrrolizidine Alkaloids of Senecio Chrysocoma and Senecio Paniculatus', 'year': 1995, 'start_page': None, 'volume': None, 'issue': None, 'doi': None, 'isbn': None, 'despositor': {'code': 'rah', 'first_name': 'Rowan', 'last_name': 'Hatherley', 'id': 20}, 'refauthors_set': [{'author': {'first_name': 'Catherine', 'initials': 'CG', 'last_name': 'Logie', 'id': 446}, 'first_author': True, 'id': 604}], 'id': 225}]

>  <classifications>  (9) 
[{'classification': 'Alkaloid', 'id': 738}, {'classification': 'Pyrrolizidine', 'id': 818}, {'classification': 'Pyrrolizidines (Classyfire)', 'id': 944}]

>  <molecular_mass>  (9) 
239.31

$$$$
SANC00110_minRM1.pdb
     RDKit          3D

 38 39  0  0  1  0  0  0  0  0999 V2000
    2.4590    0.5620    1.7820 H   0  0  0  0  0  0  0  0  0  0  0  0
    1.9150    0.2660    0.8460 C   0  0  1  0  0  0  0  0  0  0  0  0
    1.9120   -1.2620    0.6970 C   0  0  1  0  0  0  0  0  0  0  0  0
    2.8610   -1.6470    1.1620 H   0  0  0  0  0  0  0  0  0  0  0  0
    0.7290   -1.9550    1.3770 C   0  0  0  0  0  0  0  0  0  0  0  0
    1.1240   -3.2930    1.5250 O   0  0  0  0  0  0  0  0  0  0  0  0
    1.9830   -1.4910   -0.8130 C   0  0  0  0  0  0  0  0  0  0  0  0
    2.7750   -0.2840   -1.3400 C   0  0  0  0  0  0  0  0  0  0  0  0
    2.7060    0.7990   -0.3110 N   0  0  0  0  0  0  0  0  0  0  0  0
    2.0380    2.0560   -0.7640 C   0  0  0  0  0  0  0  0  0  0  0  0
    0.9360    2.3850    0.2560 C   0  0  0  0  0  0  0  0  0  0  0  0
    0.5630    1.0220    0.8610 C   0  0  1  0  0  0  0  0  0  0  0  0
    0.1360    1.0950    1.8930 H   0  0  0  0  0  0  0  0  0  0  0  0
   -0.3250    0.3570   -0.0140 O   0  0  0  0  0  0  0  0  0  0  0  0
   -1.6200    0.7750   -0.0320 C   0  0  0  0  0  0  0  0  0  0  0  0
   -1.9760    1.6820    0.7030 O   0  0  0  0  0  0  0  0  0  0  0  0
   -2.4560    0.0270   -0.9830 C   0  0  0  0  0  0  0  0  0  0  0  0
   -1.7730   -0.6070   -2.1420 C   0  0  0  0  0  0  0  0  0  0  0  0
   -3.7790   -0.0760   -0.8060 C   0  0  0  0  0  0  0  0  0  0  0  0
   -4.5260    0.5200    0.3260 C   0  0  0  0  0  0  0  0  0  0  0  0
    0.5130   -1.4760    2.3610 H   0  0  0  0  0  0  0  0  0  0  0  0
   -0.2140   -1.8870    0.7900 H   0  0  0  0  0  0  0  0  0  0  0  0
    0.4070   -3.7540    1.9670 H   0  0  0  0  0  0  0  0  0  0  0  0
    2.4620   -2.4560   -1.0670 H   0  0  0  0  0  0  0  0  0  0  0  0
    0.9780   -1.5470   -1.2760 H   0  0  0  0  0  0  0  0  0  0  0  0
    3.8550   -0.5240   -1.4590 H   0  0  0  0  0  0  0  0  0  0  0  0
    2.4370    0.0180   -2.3560 H   0  0  0  0  0  0  0  0  0  0  0  0
    2.8200    2.8440   -0.8050 H   0  0  0  0  0  0  0  0  0  0  0  0
    1.6200    2.0120   -1.7960 H   0  0  0  0  0  0  0  0  0  0  0  0
    1.2990    3.0710    1.0460 H   0  0  0  0  0  0  0  0  0  0  0  0
    0.0830    2.9180   -0.2030 H   0  0  0  0  0  0  0  0  0  0  0  0
   -1.3160   -1.5650   -1.8500 H   0  0  0  0  0  0  0  0  0  0  0  0
   -2.4560   -0.8200   -2.9780 H   0  0  0  0  0  0  0  0  0  0  0  0
   -0.9700    0.0230   -2.5500 H   0  0  0  0  0  0  0  0  0  0  0  0
   -4.3830   -0.6340   -1.5340 H   0  0  0  0  0  0  0  0  0  0  0  0
   -4.0780    0.2850    1.3040 H   0  0  0  0  0  0  0  0  0  0  0  0
   -4.5550    1.6200    0.2520 H   0  0  0  0  0  0  0  0  0  0  0  0
   -5.5700    0.1770    0.3690 H   0  0  0  0  0  0  0  0  0  0  0  0
  2  1  1  1
  2  9  1  0
  2  3  1  0
  2 12  1  0
  3  7  1  0
  3  4  1  1
  3  5  1  0
  5 22  1  0
  5  6  1  0
  5 21  1  0
  6 23  1  0
  7  8  1  0
  7 25  1  0
  7 24  1  0
  8 27  1  0
  8 26  1  0
  9  8  1  0
  9 10  1  0
 10 29  1  0
 10 28  1  0
 10 11  1  0
 11 31  1  0
 11 12  1  0
 11 30  1  0
 12 14  1  0
 12 13  1  1
 14 15  1  0
 15 17  1  0
 15 16  2  0
 17 18  1  0
 17 19  2  0
 18 33  1  0
 18 34  1  0
 18 32  1  0
 19 35  1  0
 19 20  1  0
 20 37  1  0
 20 38  1  0
 20 36  1  0
M  END
>  <id>  (10) 
110

>  <scaffolds>  (10) 
['C1CC2CCCN2C1', 'C1CCNC1']

>  <name>  (10) 
7-angelylplatynecine

>  <formula>  (10) 
C13H21NO3

>  <SMILES>  (10) 
[H][C@]12[C@@H](CO)CCN1CC[C@H]2OC(=O)/C(C)=C\C

>  <ChEMBL_id>  (10) 


>  <ZINC_id>  (10) 


>  <PubChem_id>  (10) 


>  <DrugBank_id>  (10) 


>  <CAS_no>  (10) 
94054-32-7

>  <references>  (10) 
[{'journal': {'name': 'Thesis, Rhodes University', 'id': 2}, 'title': 'The Pyrrolizidine Alkaloids of Senecio Chrysocoma and Senecio Paniculatus', 'year': 1995, 'start_page': None, 'volume': None, 'issue': None, 'doi': None, 'isbn': None, 'despositor': {'code': 'rah', 'first_name': 'Rowan', 'last_name': 'Hatherley', 'id': 20}, 'refauthors_set': [{'author': {'first_name': 'Catherine', 'initials': 'CG', 'last_name': 'Logie', 'id': 446}, 'first_author': True, 'id': 604}], 'id': 225}]

>  <classifications>  (10) 
[{'classification': 'Alkaloid', 'id': 738}, {'classification': 'Pyrrolizidine', 'id': 818}, {'classification': 'Pyrrolizidines (Classyfire)', 'id': 944}]

>  <molecular_mass>  (10) 
239.31

$$$$
SANC00111_minRM1.pdb
     RDKit          3D

 38 39  0  0  1  0  0  0  0  0999 V2000
   -2.0350   -1.8600    0.4470 H   0  0  0  0  0  0  0  0  0  0  0  0
   -2.2760   -0.8030    0.1640 C   0  0  2  0  0  0  0  0  0  0  0  0
   -3.1090   -0.7850   -1.1440 C   0  0  2  0  0  0  0  0  0  0  0  0
   -3.6060   -1.7830   -1.2920 H   0  0  0  0  0  0  0  0  0  0  0  0
   -2.2610   -0.4970   -2.2110 O   0  0  0  0  0  0  0  0  0  0  0  0
   -4.1690    0.3050   -0.9050 C   0  0  0  0  0  0  0  0  0  0  0  0
   -4.4150    0.2270    0.6080 C   0  0  0  0  0  0  0  0  0  0  0  0
   -3.1600   -0.2630    1.2550 N   0  0  0  0  0  0  0  0  0  0  0  0
   -2.3850    0.7990    1.9690 C   0  0  0  0  0  0  0  0  0  0  0  0
   -0.9170    0.5970    1.5750 C   0  0  0  0  0  0  0  0  0  0  0  0
   -0.9990    0.0620    0.1430 C   0  0  1  0  0  0  0  0  0  0  0  0
    0.2210   -0.7680   -0.2580 C   0  0  0  0  0  0  0  0  0  0  0  0
    1.3110    0.1340   -0.1620 O   0  0  0  0  0  0  0  0  0  0  0  0
    2.5450   -0.3380   -0.4790 C   0  0  0  0  0  0  0  0  0  0  0  0
    2.6850   -1.5010   -0.8270 O   0  0  0  0  0  0  0  0  0  0  0  0
    3.5940    0.6860   -0.3410 C   0  0  0  0  0  0  0  0  0  0  0  0
    3.2160    2.0750   -0.7110 C   0  0  0  0  0  0  0  0  0  0  0  0
    4.8200    0.3570    0.0820 C   0  0  0  0  0  0  0  0  0  0  0  0
    5.2310   -1.0200    0.4420 C   0  0  0  0  0  0  0  0  0  0  0  0
   -2.8080   -0.4570   -3.0010 H   0  0  0  0  0  0  0  0  0  0  0  0
   -3.8040    1.3050   -1.2110 H   0  0  0  0  0  0  0  0  0  0  0  0
   -5.0920    0.1440   -1.4930 H   0  0  0  0  0  0  0  0  0  0  0  0
   -4.8020    1.1830    1.0240 H   0  0  0  0  0  0  0  0  0  0  0  0
   -5.2020   -0.5260    0.8480 H   0  0  0  0  0  0  0  0  0  0  0  0
   -2.7090    1.8440    1.7510 H   0  0  0  0  0  0  0  0  0  0  0  0
   -2.5610    0.6690    3.0580 H   0  0  0  0  0  0  0  0  0  0  0  0
   -0.3210    1.5260    1.6490 H   0  0  0  0  0  0  0  0  0  0  0  0
   -0.4090   -0.1180    2.2540 H   0  0  0  0  0  0  0  0  0  0  0  0
   -1.1100    0.9230   -0.5650 H   0  0  0  0  0  0  0  0  0  0  0  0
    0.3790   -1.6510    0.4060 H   0  0  0  0  0  0  0  0  0  0  0  0
    0.1160   -1.1620   -1.2970 H   0  0  0  0  0  0  0  0  0  0  0  0
    2.3830    2.4490   -0.0950 H   0  0  0  0  0  0  0  0  0  0  0  0
    4.0410    2.7930   -0.5890 H   0  0  0  0  0  0  0  0  0  0  0  0
    2.8870    2.1330   -1.7610 H   0  0  0  0  0  0  0  0  0  0  0  0
    5.5950    1.1290    0.1780 H   0  0  0  0  0  0  0  0  0  0  0  0
    4.5270   -1.5080    1.1340 H   0  0  0  0  0  0  0  0  0  0  0  0
    5.2900   -1.6650   -0.4510 H   0  0  0  0  0  0  0  0  0  0  0  0
    6.2200   -1.0520    0.9210 H   0  0  0  0  0  0  0  0  0  0  0  0
  2  1  1  1
  2  3  1  0
  2 11  1  0
  2  8  1  0
  3  5  1  0
  3  4  1  6
  3  6  1  0
  5 20  1  0
  6 22  1  0
  6 21  1  0
  6  7  1  0
  7 24  1  0
  7 23  1  0
  8  7  1  0
  8  9  1  0
  9 10  1  0
  9 25  1  0
  9 26  1  0
 10 11  1  0
 10 27  1  0
 10 28  1  0
 11 29  1  6
 11 12  1  0
 12 31  1  0
 12 13  1  0
 12 30  1  0
 13 14  1  0
 14 15  2  0
 14 16  1  0
 16 17  1  0
 16 18  2  0
 17 34  1  0
 17 33  1  0
 17 32  1  0
 18 35  1  0
 18 19  1  0
 19 37  1  0
 19 38  1  0
 19 36  1  0
M  END
>  <id>  (11) 
111

>  <scaffolds>  (11) 
['C1CC2CCCN2C1', 'C1CCNC1']

>  <name>  (11) 
9-angelylplatynecine

>  <formula>  (11) 
C13H21NO3

>  <SMILES>  (11) 
[H][C@@]12[C@H](O)CCN1CCC2COC(=O)/C(C)=C\C

>  <ChEMBL_id>  (11) 


>  <ZINC_id>  (11) 


>  <PubChem_id>  (11) 


>  <DrugBank_id>  (11) 


>  <CAS_no>  (11) 
94132-25-9

>  <references>  (11) 
[{'journal': {'name': 'Thesis, Rhodes University', 'id': 2}, 'title': 'The Pyrrolizidine Alkaloids of Senecio Chrysocoma and Senecio Paniculatus', 'year': 1995, 'start_page': None, 'volume': None, 'issue': None, 'doi': None, 'isbn': None, 'despositor': {'code': 'rah', 'first_name': 'Rowan', 'last_name': 'Hatherley', 'id': 20}, 'refauthors_set': [{'author': {'first_name': 'Catherine', 'initials': 'CG', 'last_name': 'Logie', 'id': 446}, 'first_author': True, 'id': 604}], 'id': 225}]

>  <classifications>  (11) 
[{'classification': 'Alkaloid', 'id': 738}, {'classification': 'Pyrrolizidine', 'id': 818}, {'classification': 'Pyrrolizidines (Classyfire)', 'id': 944}]

>  <molecular_mass>  (11) 
239.31

$$$$
SANC00112_minRM1.pdb
     RDKit          3D

 39 40  0  0  1  0  0  0  0  0999 V2000
    2.0330   -0.0480    1.8340 H   0  0  0  0  0  0  0  0  0  0  0  0
    1.9850    0.1010    0.7220 C   0  0  2  0  0  0  0  0  0  0  0  0
    2.3060    1.5790    0.4300 C   0  0  2  0  0  0  0  0  0  0  0  0
    1.9170    2.2410    1.2480 H   0  0  0  0  0  0  0  0  0  0  0  0
    1.7690    1.9250   -0.8100 O   0  0  0  0  0  0  0  0  0  0  0  0
    3.8450    1.5960    0.3450 C   0  0  0  0  0  0  0  0  0  0  0  0
    4.1750    0.3370   -0.4450 C   0  0  0  0  0  0  0  0  0  0  0  0
    3.1440   -0.7350    0.0500 N   0  0  1  0  0  4  0  0  0  0  0  0
    3.6770   -1.5520    0.8620 O   0  0  0  0  0  0  0  0  0  0  0  0
    2.4690   -1.4700   -1.1600 C   0  0  0  0  0  0  0  0  0  0  0  0
    1.0420   -0.9400   -1.2590 C   0  0  0  0  0  0  0  0  0  0  0  0
    0.6940   -0.4920    0.1610 C   0  0  2  0  0  0  0  0  0  0  0  0
    0.4500   -1.4050    0.7730 H   0  0  0  0  0  0  0  0  0  0  0  0
   -0.4860    0.4790    0.2250 C   0  0  0  0  0  0  0  0  0  0  0  0
   -1.6320   -0.3530    0.1330 O   0  0  0  0  0  0  0  0  0  0  0  0
   -2.8470    0.2360    0.2910 C   0  0  0  0  0  0  0  0  0  0  0  0
   -2.9080    1.4400    0.4780 O   0  0  0  0  0  0  0  0  0  0  0  0
   -3.9580   -0.7210    0.2130 C   0  0  0  0  0  0  0  0  0  0  0  0
   -3.6390   -2.1450    0.5000 C   0  0  0  0  0  0  0  0  0  0  0  0
   -5.1950   -0.3200   -0.1030 C   0  0  0  0  0  0  0  0  0  0  0  0
   -5.5700    1.0800   -0.4050 C   0  0  0  0  0  0  0  0  0  0  0  0
    1.8960    2.8710   -0.9250 H   0  0  0  0  0  0  0  0  0  0  0  0
    4.2450    2.5090   -0.1370 H   0  0  0  0  0  0  0  0  0  0  0  0
    4.3010    1.5820    1.3550 H   0  0  0  0  0  0  0  0  0  0  0  0
    4.0780    0.5110   -1.5380 H   0  0  0  0  0  0  0  0  0  0  0  0
    5.2110   -0.0260   -0.2770 H   0  0  0  0  0  0  0  0  0  0  0  0
    3.0510   -1.3270   -2.0920 H   0  0  0  0  0  0  0  0  0  0  0  0
    2.4900   -2.5670   -0.9690 H   0  0  0  0  0  0  0  0  0  0  0  0
    0.9570   -0.1170   -1.9970 H   0  0  0  0  0  0  0  0  0  0  0  0
    0.3410   -1.7150   -1.6290 H   0  0  0  0  0  0  0  0  0  0  0  0
   -0.4770    1.0550    1.1790 H   0  0  0  0  0  0  0  0  0  0  0  0
   -0.5000    1.2260   -0.5990 H   0  0  0  0  0  0  0  0  0  0  0  0
   -3.0240   -2.2530    1.4060 H   0  0  0  0  0  0  0  0  0  0  0  0
   -4.5330   -2.7680    0.6500 H   0  0  0  0  0  0  0  0  0  0  0  0
   -3.0700   -2.5950   -0.3280 H   0  0  0  0  0  0  0  0  0  0  0  0
   -6.0090   -1.0540   -0.1490 H   0  0  0  0  0  0  0  0  0  0  0  0
   -5.4890    1.7200    0.4880 H   0  0  0  0  0  0  0  0  0  0  0  0
   -4.9260    1.5340   -1.1740 H   0  0  0  0  0  0  0  0  0  0  0  0
   -6.6040    1.1720   -0.7680 H   0  0  0  0  0  0  0  0  0  0  0  0
  2  1  1  1
  2  8  1  0
  2 12  1  0
  2  3  1  0
  3  5  1  0
  3  6  1  0
  3  4  1  1
  5 22  1  0
  6  7  1  0
  6 23  1  0
  6 24  1  0
  7 25  1  0
  7 26  1  0
  7  8  1  0
  8 10  1  0
  8  9  1  1
 10 27  1  0
 10 11  1  0
 10 28  1  0
 11 29  1  0
 11 30  1  0
 11 12  1  0
 12 14  1  0
 12 13  1  1
 14 32  1  0
 14 15  1  0
 14 31  1  0
 15 16  1  0
 16 18  1  0
 16 17  2  0
 18 20  2  0
 18 19  1  0
 19 35  1  0
 19 34  1  0
 19 33  1  0
 20 21  1  0
 20 36  1  0
 21 38  1  0
 21 39  1  0
 21 37  1  0
M  END
>  <id>  (12) 
112

>  <scaffolds>  (12) 
['C1CC2CCCN2C1', 'C1CC2CCC[NH+]2C1', 'C1CCNC1']

>  <name>  (12) 
9-angelylplatynecine-4-oxide

>  <formula>  (12) 
C13H21NO4

>  <SMILES>  (12) 
[H][C@@]12[C@H](O)CCN1(=O)CC[C@@H]2COC(=O)/C(C)=C\C

>  <ChEMBL_id>  (12) 


>  <ZINC_id>  (12) 


>  <PubChem_id>  (12) 


>  <DrugBank_id>  (12) 


>  <CAS_no>  (12) 
94054-33-8

>  <references>  (12) 
[{'journal': {'name': 'Thesis, Rhodes University', 'id': 2}, 'title': 'The Pyrrolizidine Alkaloids of Senecio Chrysocoma and Senecio Paniculatus', 'year': 1995, 'start_page': None, 'volume': None, 'issue': None, 'doi': None, 'isbn': None, 'despositor': {'code': 'rah', 'first_name': 'Rowan', 'last_name': 'Hatherley', 'id': 20}, 'refauthors_set': [{'author': {'first_name': 'Catherine', 'initials': 'CG', 'last_name': 'Logie', 'id': 446}, 'first_author': True, 'id': 604}], 'id': 225}]

>  <classifications>  (12) 
[{'classification': 'Alkaloid', 'id': 738}, {'classification': 'Pyrrolizidine', 'id': 818}, {'classification': 'Pyrrolizidines (Classyfire)', 'id': 944}]

>  <molecular_mass>  (12) 
255.31

$$$$
SANC00113_minRM1.pdb
     RDKit          3D

 35 36  0  0  1  0  0  0  0  0999 V2000
   -2.1050   -0.2980    2.0120 H   0  0  0  0  0  0  0  0  0  0  0  0
   -1.8210   -0.1080    0.9440 C   0  0  1  0  0  0  0  0  0  0  0  0
   -1.7050    1.3640    0.6970 C   0  0  0  0  0  0  0  0  0  0  0  0
   -0.9080    2.1880    1.3590 C   0  0  0  0  0  0  0  0  0  0  0  0
   -2.6540    1.7690   -0.3820 C   0  0  0  0  0  0  0  0  0  0  0  0
   -3.2250    0.4540   -0.9350 C   0  0  0  0  0  0  0  0  0  0  0  0
   -2.9560   -0.5990    0.0940 N   0  0  0  0  0  0  0  0  0  0  0  0
   -2.5110   -1.8960   -0.4890 C   0  0  0  0  0  0  0  0  0  0  0  0
   -0.9800   -1.8860   -0.5510 C   0  0  0  0  0  0  0  0  0  0  0  0
   -0.5560   -0.9480    0.5910 C   0  0  1  0  0  0  0  0  0  0  0  0
    0.4460   -0.0470    0.1750 O   0  0  0  0  0  0  0  0  0  0  0  0
    1.6710   -0.5550   -0.1220 C   0  0  0  0  0  0  0  0  0  0  0  0
    1.8740   -1.7540   -0.0340 O   0  0  0  0  0  0  0  0  0  0  0  0
    2.6260    0.4890   -0.5280 C   0  0  0  0  0  0  0  0  0  0  0  0
    2.0570    1.6770   -1.2170 C   0  0  0  0  0  0  0  0  0  0  0  0
    3.9340    0.3550   -0.2830 C   0  0  0  0  0  0  0  0  0  0  0  0
    4.5360   -0.8110    0.4050 C   0  0  0  0  0  0  0  0  0  0  0  0
   -0.2320    1.8630    2.1430 H   0  0  0  0  0  0  0  0  0  0  0  0
   -0.8590    3.2540    1.1640 H   0  0  0  0  0  0  0  0  0  0  0  0
   -3.4490    2.4280    0.0230 H   0  0  0  0  0  0  0  0  0  0  0  0
   -2.1550    2.3700   -1.1670 H   0  0  0  0  0  0  0  0  0  0  0  0
   -4.3260    0.4940   -1.0820 H   0  0  0  0  0  0  0  0  0  0  0  0
   -2.8050    0.2380   -1.9450 H   0  0  0  0  0  0  0  0  0  0  0  0
   -2.8840   -2.6960    0.1900 H   0  0  0  0  0  0  0  0  0  0  0  0
   -2.9790   -2.1150   -1.4730 H   0  0  0  0  0  0  0  0  0  0  0  0
   -0.5450   -2.8980   -0.4440 H   0  0  0  0  0  0  0  0  0  0  0  0
   -0.6170   -1.5300   -1.5370 H   0  0  0  0  0  0  0  0  0  0  0  0
   -0.2050   -1.5240    1.4860 H   0  0  0  0  0  0  0  0  0  0  0  0
    1.4250    2.2690   -0.5350 H   0  0  0  0  0  0  0  0  0  0  0  0
    2.8250    2.3560   -1.6140 H   0  0  0  0  0  0  0  0  0  0  0  0
    1.4220    1.3840   -2.0670 H   0  0  0  0  0  0  0  0  0  0  0  0
    4.6330    1.1390   -0.5990 H   0  0  0  0  0  0  0  0  0  0  0  0
    4.0160   -1.0690    1.3400 H   0  0  0  0  0  0  0  0  0  0  0  0
    4.5010   -1.7110   -0.2310 H   0  0  0  0  0  0  0  0  0  0  0  0
    5.5910   -0.6460    0.6670 H   0  0  0  0  0  0  0  0  0  0  0  0
  2  1  1  1
  2  7  1  0
  2 10  1  0
  2  3  1  0
  3  5  1  0
  3  4  2  0
  4 19  1  0
  4 18  1  0
  5 21  1  0
  5  6  1  0
  5 20  1  0
  6 23  1  0
  6 22  1  0
  7  6  1  0
  7  8  1  0
  8 25  1  0
  8  9  1  0
  8 24  1  0
  9 27  1  0
  9 26  1  0
  9 10  1  0
 10 11  1  0
 10 28  1  1
 11 12  1  0
 12 14  1  0
 12 13  2  0
 14 15  1  0
 14 16  2  0
 15 31  1  0
 15 30  1  0
 15 29  1  0
 16 32  1  0
 16 17  1  0
 17 34  1  0
 17 35  1  0
 17 33  1  0
M  END
>  <id>  (13) 
113

>  <scaffolds>  (13) 
['C1CC2CCCN2C1', 'C=C1CCN2CCCC12', 'C1CCNC1']

>  <name>  (13) 
7[alpha]-angelyl-1-methylene-8[alpha]-pyrrolizidine

>  <formula>  (13) 
C13H19NO2

>  <SMILES>  (13) 
[H][C@]12C(=C)CCN1CCC2OC(=O)/C(C)=C\C

>  <ChEMBL_id>  (13) 


>  <ZINC_id>  (13) 


>  <PubChem_id>  (13) 


>  <DrugBank_id>  (13) 


>  <CAS_no>  (13) 
59518-70-6

>  <references>  (13) 
[{'journal': {'name': 'Thesis, Rhodes University', 'id': 2}, 'title': 'The Pyrrolizidine Alkaloids of Senecio Chrysocoma and Senecio Paniculatus', 'year': 1995, 'start_page': None, 'volume': None, 'issue': None, 'doi': None, 'isbn': None, 'despositor': {'code': 'rah', 'first_name': 'Rowan', 'last_name': 'Hatherley', 'id': 20}, 'refauthors_set': [{'author': {'first_name': 'Catherine', 'initials': 'CG', 'last_name': 'Logie', 'id': 446}, 'first_author': True, 'id': 604}], 'id': 225}]

>  <classifications>  (13) 
[{'classification': 'Alkaloid', 'id': 738}, {'classification': 'Pyrrolizidine', 'id': 818}, {'classification': 'Pyrrolizidines (Classyfire)', 'id': 944}]

>  <molecular_mass>  (13) 
221.29

$$$$
SANC00114_minRM1.pdb
     RDKit          3D

 36 37  0  0  1  0  0  0  0  0999 V2000
   -1.0290    0.0800   -1.6070 H   0  0  0  0  0  0  0  0  0  0  0  0
   -1.3860   -0.2190   -0.5860 C   0  0  1  0  0  0  0  0  0  0  0  0
   -2.1630   -1.4920   -0.6450 C   0  0  0  0  0  0  0  0  0  0  0  0
   -1.6420   -2.6600   -0.9930 C   0  0  0  0  0  0  0  0  0  0  0  0
   -3.5940   -1.2750   -0.2820 C   0  0  0  0  0  0  0  0  0  0  0  0
   -3.8010    0.2370   -0.2930 C   0  0  0  0  0  0  0  0  0  0  0  0
   -2.3950    0.8690   -0.0600 N   0  0  2  0  0  4  0  0  0  0  0  0
   -2.2640    1.9950   -0.6200 O   0  0  0  0  0  0  0  0  0  0  0  0
   -2.0850    0.9290    1.4680 C   0  0  0  0  0  0  0  0  0  0  0  0
   -0.5760    0.7470    1.5430 C   0  0  0  0  0  0  0  0  0  0  0  0
   -0.2470   -0.2890    0.4550 C   0  0  2  0  0  0  0  0  0  0  0  0
   -0.1450   -1.3190    0.8880 H   0  0  0  0  0  0  0  0  0  0  0  0
    0.9260    0.0570   -0.2500 O   0  0  0  0  0  0  0  0  0  0  0  0
    2.1020    0.0570    0.4330 C   0  0  0  0  0  0  0  0  0  0  0  0
    2.1300   -0.3050    1.5970 O   0  0  0  0  0  0  0  0  0  0  0  0
    3.2290    0.5140   -0.3930 C   0  0  0  0  0  0  0  0  0  0  0  0
    2.9430    1.6250   -1.3380 C   0  0  0  0  0  0  0  0  0  0  0  0
    4.4350   -0.0490   -0.2710 C   0  0  0  0  0  0  0  0  0  0  0  0
    4.7370   -1.1560    0.6660 C   0  0  0  0  0  0  0  0  0  0  0  0
   -0.5980   -2.7930   -1.2590 H   0  0  0  0  0  0  0  0  0  0  0  0
   -2.2190   -3.5770   -1.0480 H   0  0  0  0  0  0  0  0  0  0  0  0
   -4.2830   -1.7870   -0.9830 H   0  0  0  0  0  0  0  0  0  0  0  0
   -3.8160   -1.7230    0.7090 H   0  0  0  0  0  0  0  0  0  0  0  0
   -4.1980    0.5970   -1.2680 H   0  0  0  0  0  0  0  0  0  0  0  0
   -4.5220    0.5980    0.4680 H   0  0  0  0  0  0  0  0  0  0  0  0
   -2.4320    1.8940    1.8920 H   0  0  0  0  0  0  0  0  0  0  0  0
   -2.6270    0.1290    2.0150 H   0  0  0  0  0  0  0  0  0  0  0  0
   -0.0500    1.7090    1.3680 H   0  0  0  0  0  0  0  0  0  0  0  0
   -0.2450    0.4180    2.5480 H   0  0  0  0  0  0  0  0  0  0  0  0
    2.4270    2.4590   -0.8390 H   0  0  0  0  0  0  0  0  0  0  0  0
    3.8500    2.0430   -1.7990 H   0  0  0  0  0  0  0  0  0  0  0  0
    2.2880    1.2920   -2.1590 H   0  0  0  0  0  0  0  0  0  0  0  0
    5.2740    0.3080   -0.8820 H   0  0  0  0  0  0  0  0  0  0  0  0
    4.7690   -0.7960    1.7080 H   0  0  0  0  0  0  0  0  0  0  0  0
    3.9870   -1.9610    0.6350 H   0  0  0  0  0  0  0  0  0  0  0  0
    5.7100   -1.6270    0.4620 H   0  0  0  0  0  0  0  0  0  0  0  0
  2  1  1  6
  2  3  1  0
  2  7  1  0
  2 11  1  0
  3  4  2  0
  3  5  1  0
  4 20  1  0
  4 21  1  0
  5 22  1  0
  5  6  1  0
  5 23  1  0
  6 24  1  0
  6  7  1  0
  6 25  1  0
  7  8  1  6
  7  9  1  0
  9 10  1  0
  9 26  1  0
  9 27  1  0
 10 11  1  0
 10 28  1  0
 10 29  1  0
 11 13  1  0
 11 12  1  1
 13 14  1  0
 14 16  1  0
 14 15  2  0
 16 17  1  0
 16 18  2  0
 17 32  1  0
 17 31  1  0
 17 30  1  0
 18 33  1  0
 18 19  1  0
 19 36  1  0
 19 35  1  0
 19 34  1  0
M  END
>  <id>  (14) 
114

>  <scaffolds>  (14) 
['C1CC2CCCN2C1', 'C=C1CCN2CCCC12', 'C=C1CC[NH+]2CCCC12', 'C1CC2CCC[NH+]2C1', 'C1CCNC1']

>  <name>  (14) 
7[alpha]-angelyl-1-methylene-8[alpha]-pyrrolizidine-4-oxide

>  <formula>  (14) 
C13H19NO3

>  <SMILES>  (14) 
[H][C@]12C(=C)CCN1(=O)CC[C@@H]2OC(=O)/C(C)=C\C

>  <ChEMBL_id>  (14) 


>  <ZINC_id>  (14) 


>  <PubChem_id>  (14) 


>  <DrugBank_id>  (14) 


>  <CAS_no>  (14) 
151922-22-4

>  <references>  (14) 
[{'journal': {'name': 'Thesis, Rhodes University', 'id': 2}, 'title': 'The Pyrrolizidine Alkaloids of Senecio Chrysocoma and Senecio Paniculatus', 'year': 1995, 'start_page': None, 'volume': None, 'issue': None, 'doi': None, 'isbn': None, 'despositor': {'code': 'rah', 'first_name': 'Rowan', 'last_name': 'Hatherley', 'id': 20}, 'refauthors_set': [{'author': {'first_name': 'Catherine', 'initials': 'CG', 'last_name': 'Logie', 'id': 446}, 'first_author': True, 'id': 604}], 'id': 225}, {'journal': {'name': 'Phytochemistry', 'id': 10}, 'title': '7-Angelyl-1-methylenepyrrolizidines from Senecio chrysocoma', 'year': 1993, 'start_page': 1198, 'volume': 34, 'issue': 4, 'doi': '10.1016/S0031-9422(00)90748-9', 'isbn': '', 'despositor': {'code': 'rah', 'first_name': 'Rowan', 'last_name': 'Hatherley', 'id': 20}, 'refauthors_set': [{'author': {'first_name': 'Richard', 'initials': 'J', 'last_name': 'Liddell', 'id': 819}, 'first_author': True, 'id': 1384}, {'author': {'first_name': 'Catherine', 'initials': 'CG', 'last_name': 'Logie', 'id': 446}, 'first_author': None, 'id': 1385}], 'id': 395}]

>  <classifications>  (14) 
[{'classification': 'Alkaloid', 'id': 738}, {'classification': 'Pyrrolizidine', 'id': 818}, {'classification': 'Pyrrolizidines (Classyfire)', 'id': 944}]

>  <molecular_mass>  (14) 
237.29

$$$$
SANC00115_minRM1.pdb
     RDKit          3D

 35 36  0  0  1  0  0  0  0  0999 V2000
   -2.1070   -0.3020    2.0110 H   0  0  0  0  0  0  0  0  0  0  0  0
   -1.8210   -0.1100    0.9440 C   0  0  1  0  0  0  0  0  0  0  0  0
   -1.7050    1.3630    0.7000 C   0  0  0  0  0  0  0  0  0  0  0  0
   -0.9090    2.1850    1.3670 C   0  0  0  0  0  0  0  0  0  0  0  0
   -2.6500    1.7690   -0.3810 C   0  0  0  0  0  0  0  0  0  0  0  0
   -3.2210    0.4550   -0.9370 C   0  0  0  0  0  0  0  0  0  0  0  0
   -2.9560   -0.5990    0.0920 N   0  0  0  0  0  0  0  0  0  0  0  0
   -2.5110   -1.8960   -0.4920 C   0  0  0  0  0  0  0  0  0  0  0  0
   -0.9790   -1.8860   -0.5520 C   0  0  0  0  0  0  0  0  0  0  0  0
   -0.5570   -0.9500    0.5910 C   0  0  1  0  0  0  0  0  0  0  0  0
   -0.2050   -1.5270    1.4850 H   0  0  0  0  0  0  0  0  0  0  0  0
    0.4450   -0.0480    0.1760 O   0  0  0  0  0  0  0  0  0  0  0  0
    1.6710   -0.5550   -0.1220 C   0  0  0  0  0  0  0  0  0  0  0  0
    1.8740   -1.7550   -0.0340 O   0  0  0  0  0  0  0  0  0  0  0  0
    2.6240    0.4880   -0.5300 C   0  0  0  0  0  0  0  0  0  0  0  0
    2.0540    1.6730   -1.2220 C   0  0  0  0  0  0  0  0  0  0  0  0
    3.9320    0.3570   -0.2830 C   0  0  0  0  0  0  0  0  0  0  0  0
    4.5350   -0.8060    0.4090 C   0  0  0  0  0  0  0  0  0  0  0  0
   -0.2360    1.8580    2.1520 H   0  0  0  0  0  0  0  0  0  0  0  0
   -0.8590    3.2510    1.1740 H   0  0  0  0  0  0  0  0  0  0  0  0
   -3.4460    2.4290    0.0220 H   0  0  0  0  0  0  0  0  0  0  0  0
   -2.1480    2.3710   -1.1640 H   0  0  0  0  0  0  0  0  0  0  0  0
   -4.3210    0.4970   -1.0870 H   0  0  0  0  0  0  0  0  0  0  0  0
   -2.7990    0.2410   -1.9460 H   0  0  0  0  0  0  0  0  0  0  0  0
   -2.8860   -2.6960    0.1860 H   0  0  0  0  0  0  0  0  0  0  0  0
   -2.9780   -2.1140   -1.4760 H   0  0  0  0  0  0  0  0  0  0  0  0
   -0.5450   -2.8990   -0.4450 H   0  0  0  0  0  0  0  0  0  0  0  0
   -0.6160   -1.5300   -1.5370 H   0  0  0  0  0  0  0  0  0  0  0  0
    1.4260    2.2700   -0.5400 H   0  0  0  0  0  0  0  0  0  0  0  0
    2.8210    2.3500   -1.6260 H   0  0  0  0  0  0  0  0  0  0  0  0
    1.4140    1.3780   -2.0670 H   0  0  0  0  0  0  0  0  0  0  0  0
    4.6310    1.1410   -0.6010 H   0  0  0  0  0  0  0  0  0  0  0  0
    4.0110   -1.0640    1.3430 H   0  0  0  0  0  0  0  0  0  0  0  0
    4.5050   -1.7070   -0.2260 H   0  0  0  0  0  0  0  0  0  0  0  0
    5.5890   -0.6380    0.6750 H   0  0  0  0  0  0  0  0  0  0  0  0
  2  1  1  1
  2  7  1  0
  2 10  1  0
  2  3  1  0
  3  5  1  0
  3  4  2  0
  4 20  1  0
  4 19  1  0
  5 22  1  0
  5  6  1  0
  5 21  1  0
  6 24  1  0
  6 23  1  0
  7  6  1  0
  7  8  1  0
  8 26  1  0
  8  9  1  0
  8 25  1  0
  9 28  1  0
  9 27  1  0
  9 10  1  0
 10 12  1  0
 10 11  1  1
 12 13  1  0
 13 15  1  0
 13 14  2  0
 15 16  1  0
 15 17  2  0
 16 31  1  0
 16 30  1  0
 16 29  1  0
 17 32  1  0
 17 18  1  0
 18 34  1  0
 18 35  1  0
 18 33  1  0
M  END
>  <id>  (15) 
115

>  <scaffolds>  (15) 
['C1CC2CCCN2C1', 'C=C1CCN2CCCC12', 'C1CCNC1']

>  <name>  (15) 
7[beta]-angelyl-1-methylene-8[alpha]-pyrrolizidine

>  <formula>  (15) 
C13H19NO2

>  <SMILES>  (15) 
[H][C@]12C(=C)CCN1CC[C@H]2OC(=O)/C(C)=C\C

>  <ChEMBL_id>  (15) 


>  <ZINC_id>  (15) 


>  <PubChem_id>  (15) 


>  <DrugBank_id>  (15) 


>  <CAS_no>  (15) 
195209-18-8

>  <references>  (15) 
[{'journal': {'name': 'Thesis, Rhodes University', 'id': 2}, 'title': 'The Pyrrolizidine Alkaloids of Senecio Chrysocoma and Senecio Paniculatus', 'year': 1995, 'start_page': None, 'volume': None, 'issue': None, 'doi': None, 'isbn': None, 'despositor': {'code': 'rah', 'first_name': 'Rowan', 'last_name': 'Hatherley', 'id': 20}, 'refauthors_set': [{'author': {'first_name': 'Catherine', 'initials': 'CG', 'last_name': 'Logie', 'id': 446}, 'first_author': True, 'id': 604}], 'id': 225}]

>  <classifications>  (15) 
[{'classification': 'Alkaloid', 'id': 738}, {'classification': 'Pyrrolizidine', 'id': 818}, {'classification': 'Pyrrolizidines (Classyfire)', 'id': 944}]

>  <molecular_mass>  (15) 
221.29

$$$$
SANC00116_minRM1.pdb
     RDKit          3D

 51 52  0  0  1  0  0  0  0  0999 V2000
    1.8380   -2.1360    1.8090 H   0  0  0  0  0  0  0  0  0  0  0  0
    1.8320   -1.6340    0.8050 C   0  0  1  0  0  0  0  0  0  0  0  0
    0.4270   -1.7050    0.1890 C   0  0  1  0  0  0  0  0  0  0  0  0
   -0.0560   -2.6470    0.5680 H   0  0  0  0  0  0  0  0  0  0  0  0
   -0.4660   -0.5170    0.5510 C   0  0  0  0  0  0  0  0  0  0  0  0
   -1.7840   -0.9900    0.3240 O   0  0  0  0  0  0  0  0  0  0  0  0
   -2.8190   -0.1680    0.6500 C   0  0  0  0  0  0  0  0  0  0  0  0
   -2.5810    0.9480    1.0860 O   0  0  0  0  0  0  0  0  0  0  0  0
   -4.1320   -0.7840    0.4090 C   0  0  0  0  0  0  0  0  0  0  0  0
   -5.2270   -0.0350    0.2330 C   0  0  0  0  0  0  0  0  0  0  0  0
   -5.2400    1.4460    0.2780 C   0  0  0  0  0  0  0  0  0  0  0  0
   -4.1330   -2.2860    0.3660 C   0  0  0  0  0  0  0  0  0  0  0  0
   -5.4590   -2.7280    0.4550 O   0  0  0  0  0  0  0  0  0  0  0  0
    0.6800   -1.8590   -1.3130 C   0  0  0  0  0  0  0  0  0  0  0  0
    2.0150   -2.6170   -1.3920 C   0  0  0  0  0  0  0  0  0  0  0  0
    2.7290   -2.4350   -0.0910 N   0  0  0  0  0  0  0  0  0  0  0  0
    4.0310   -1.7030   -0.1830 C   0  0  0  0  0  0  0  0  0  0  0  0
    3.9910   -0.5670    0.8490 C   0  0  0  0  0  0  0  0  0  0  0  0
    2.4940   -0.2470    0.9950 C   0  0  1  0  0  0  0  0  0  0  0  0
    2.0930    0.5800   -0.0760 O   0  0  0  0  0  0  0  0  0  0  0  0
    2.4240    1.8990   -0.0100 C   0  0  0  0  0  0  0  0  0  0  0  0
    3.0710    2.3170    0.9360 O   0  0  0  0  0  0  0  0  0  0  0  0
    1.9220    2.6730   -1.1550 C   0  0  0  0  0  0  0  0  0  0  0  0
    1.8000    1.9570   -2.4540 C   0  0  0  0  0  0  0  0  0  0  0  0
    1.5880    3.9620   -1.0190 C   0  0  0  0  0  0  0  0  0  0  0  0
    1.6800    4.7200    0.2490 C   0  0  0  0  0  0  0  0  0  0  0  0
   -0.3230   -0.2150    1.6140 H   0  0  0  0  0  0  0  0  0  0  0  0
   -0.2840    0.3920   -0.0640 H   0  0  0  0  0  0  0  0  0  0  0  0
   -6.2010   -0.5050    0.0430 H   0  0  0  0  0  0  0  0  0  0  0  0
   -5.0060    1.8180    1.2900 H   0  0  0  0  0  0  0  0  0  0  0  0
   -4.4980    1.8980   -0.4000 H   0  0  0  0  0  0  0  0  0  0  0  0
   -6.2190    1.8690    0.0030 H   0  0  0  0  0  0  0  0  0  0  0  0
   -3.6500   -2.6290   -0.5830 H   0  0  0  0  0  0  0  0  0  0  0  0
   -3.5150   -2.6950    1.2000 H   0  0  0  0  0  0  0  0  0  0  0  0
   -5.4320   -3.6880    0.4440 H   0  0  0  0  0  0  0  0  0  0  0  0
   -0.1410   -2.3970   -1.8240 H   0  0  0  0  0  0  0  0  0  0  0  0
    0.7420   -0.8820   -1.8320 H   0  0  0  0  0  0  0  0  0  0  0  0
    1.8570   -3.7140   -1.5020 H   0  0  0  0  0  0  0  0  0  0  0  0
    2.6020   -2.3240   -2.2910 H   0  0  0  0  0  0  0  0  0  0  0  0
    4.8380   -2.4390    0.0300 H   0  0  0  0  0  0  0  0  0  0  0  0
    4.2670   -1.3020   -1.1960 H   0  0  0  0  0  0  0  0  0  0  0  0
    4.4160   -0.8810    1.8240 H   0  0  0  0  0  0  0  0  0  0  0  0
    4.6030    0.3010    0.5450 H   0  0  0  0  0  0  0  0  0  0  0  0
    2.2300    0.2110    1.9820 H   0  0  0  0  0  0  0  0  0  0  0  0
    0.8820    1.3450   -2.4800 H   0  0  0  0  0  0  0  0  0  0  0  0
    1.7560    2.6380   -3.3170 H   0  0  0  0  0  0  0  0  0  0  0  0
    2.6480    1.2780   -2.6360 H   0  0  0  0  0  0  0  0  0  0  0  0
    1.2190    4.5240   -1.8870 H   0  0  0  0  0  0  0  0  0  0  0  0
    1.2360    4.1840    1.1040 H   0  0  0  0  0  0  0  0  0  0  0  0
    2.7310    4.9210    0.5170 H   0  0  0  0  0  0  0  0  0  0  0  0
    1.1730    5.6950    0.1960 H   0  0  0  0  0  0  0  0  0  0  0  0
  2  1  1  1
  2 16  1  0
  2  3  1  0
  2 19  1  0
  3 14  1  0
  3  5  1  0
  3  4  1  1
  5 28  1  0
  5  6  1  0
  5 27  1  0
  6  7  1  0
  7  9  1  0
  7  8  2  0
  9 10  2  0
  9 12  1  0
 10 29  1  0
 10 11  1  0
 11 31  1  0
 11 32  1  0
 11 30  1  0
 12 33  1  0
 12 13  1  0
 12 34  1  0
 13 35  1  0
 14 37  1  0
 14 36  1  0
 14 15  1  0
 15 39  1  0
 15 38  1  0
 16 15  1  0
 16 17  1  0
 17 41  1  0
 17 40  1  0
 17 18  1  0
 18 43  1  0
 18 19  1  0
 18 42  1  0
 19 20  1  0
 19 44  1  1
 20 21  1  0
 21 23  1  0
 21 22  2  0
 23 24  1  0
 23 25  2  0
 24 46  1  0
 24 47  1  0
 24 45  1  0
 25 48  1  0
 25 26  1  0
 26 51  1  0
 26 50  1  0
 26 49  1  0
M  END
>  <id>  (16) 
116

>  <scaffolds>  (16) 
['C1CC2CCCN2C1', 'C1CCNC1']

>  <name>  (16) 
Sarracin

>  <formula>  (16) 
C18H27NO5

>  <SMILES>  (16) 
[H][C@]12[C@@H](COC(=O)\C(=C/C)CO)CCN1CCC2OC(=O)\C(C)=C/C

>  <ChEMBL_id>  (16) 
None

>  <ZINC_id>  (16) 
None

>  <PubChem_id>  (16) 
 5281746

>  <DrugBank_id>  (16) 


>  <CAS_no>  (16) 
2492-09-3

>  <references>  (16) 
[{'journal': {'name': 'Thesis, Rhodes University', 'id': 2}, 'title': 'The Pyrrolizidine Alkaloids of Senecio Chrysocoma and Senecio Paniculatus', 'year': 1995, 'start_page': None, 'volume': None, 'issue': None, 'doi': None, 'isbn': None, 'despositor': {'code': 'rah', 'first_name': 'Rowan', 'last_name': 'Hatherley', 'id': 20}, 'refauthors_set': [{'author': {'first_name': 'Catherine', 'initials': 'CG', 'last_name': 'Logie', 'id': 446}, 'first_author': True, 'id': 604}], 'id': 225}]

>  <classifications>  (16) 
[{'classification': 'Alkaloid', 'id': 738}, {'classification': 'Pyrrolizidine', 'id': 818}, {'classification': 'Pyrrolizidines (Classyfire)', 'id': 944}]

>  <molecular_mass>  (16) 
337.41

$$$$
SANC00117_minRM1.pdb
     RDKit          3D

 51 52  0  0  1  0  0  0  0  0999 V2000
   -1.7040    2.2130    1.7270 H   0  0  0  0  0  0  0  0  0  0  0  0
   -1.7130    1.6670    0.7460 C   0  0  1  0  0  0  0  0  0  0  0  0
   -0.3010    1.6650    0.1360 C   0  0  1  0  0  0  0  0  0  0  0  0
    0.2070    2.6110    0.4710 H   0  0  0  0  0  0  0  0  0  0  0  0
    0.5540    0.4730    0.5660 C   0  0  0  0  0  0  0  0  0  0  0  0
    1.8870    0.8620    0.2640 O   0  0  0  0  0  0  0  0  0  0  0  0
    2.8690   -0.0290    0.5670 C   0  0  0  0  0  0  0  0  0  0  0  0
    2.5780   -1.1180    1.0410 O   0  0  0  0  0  0  0  0  0  0  0  0
    4.2180    0.4590    0.2430 C   0  0  0  0  0  0  0  0  0  0  0  0
    5.2080   -0.4340    0.1180 C   0  0  0  0  0  0  0  0  0  0  0  0
    6.6180   -0.0610   -0.1530 C   0  0  0  0  0  0  0  0  0  0  0  0
    4.3980    1.9440    0.1210 C   0  0  0  0  0  0  0  0  0  0  0  0
    4.0590    2.5330    1.3500 O   0  0  0  0  0  0  0  0  0  0  0  0
   -0.5400    1.7420   -1.3740 C   0  0  0  0  0  0  0  0  0  0  0  0
   -1.8550    2.5360   -1.5020 C   0  0  0  0  0  0  0  0  0  0  0  0
   -2.5730    2.4600   -0.1920 N   0  0  0  0  0  0  0  0  0  0  0  0
   -3.9070    1.7920   -0.2430 C   0  0  0  0  0  0  0  0  0  0  0  0
   -3.9140    0.7060    0.8430 C   0  0  0  0  0  0  0  0  0  0  0  0
   -2.4350    0.3190    0.9980 C   0  0  1  0  0  0  0  0  0  0  0  0
   -2.1920   -0.1030    2.0070 H   0  0  0  0  0  0  0  0  0  0  0  0
   -2.0770   -0.5730   -0.0360 O   0  0  0  0  0  0  0  0  0  0  0  0
   -2.4560   -1.8750    0.0980 C   0  0  0  0  0  0  0  0  0  0  0  0
   -3.0670   -2.2370    1.0900 O   0  0  0  0  0  0  0  0  0  0  0  0
   -2.0480   -2.7080   -1.0430 C   0  0  0  0  0  0  0  0  0  0  0  0
   -1.9940   -2.0410   -2.3700 C   0  0  0  0  0  0  0  0  0  0  0  0
   -1.7460   -4.0000   -0.8740 C   0  0  0  0  0  0  0  0  0  0  0  0
   -1.7690   -4.6880    0.4370 C   0  0  0  0  0  0  0  0  0  0  0  0
    0.4480    0.2660    1.6550 H   0  0  0  0  0  0  0  0  0  0  0  0
    0.3010   -0.4700    0.0310 H   0  0  0  0  0  0  0  0  0  0  0  0
    5.0050   -1.5100    0.2150 H   0  0  0  0  0  0  0  0  0  0  0  0
    6.7360    0.4660   -1.1140 H   0  0  0  0  0  0  0  0  0  0  0  0
    7.0270    0.6000    0.6300 H   0  0  0  0  0  0  0  0  0  0  0  0
    7.2870   -0.9370   -0.1980 H   0  0  0  0  0  0  0  0  0  0  0  0
    5.4610    2.2240   -0.0680 H   0  0  0  0  0  0  0  0  0  0  0  0
    3.8220    2.3300   -0.7560 H   0  0  0  0  0  0  0  0  0  0  0  0
    3.2270    3.0150    1.2370 H   0  0  0  0  0  0  0  0  0  0  0  0
    0.2990    2.2300   -1.9120 H   0  0  0  0  0  0  0  0  0  0  0  0
   -0.6270    0.7350   -1.8370 H   0  0  0  0  0  0  0  0  0  0  0  0
   -1.6610    3.6190   -1.6800 H   0  0  0  0  0  0  0  0  0  0  0  0
   -2.4540    2.2030   -2.3800 H   0  0  0  0  0  0  0  0  0  0  0  0
   -4.6690    2.5800   -0.0580 H   0  0  0  0  0  0  0  0  0  0  0  0
   -4.1740    1.3620   -1.2350 H   0  0  0  0  0  0  0  0  0  0  0  0
   -4.3130    1.0880    1.8020 H   0  0  0  0  0  0  0  0  0  0  0  0
   -4.5710   -0.1450    0.5890 H   0  0  0  0  0  0  0  0  0  0  0  0
   -1.0690   -1.4580   -2.4760 H   0  0  0  0  0  0  0  0  0  0  0  0
   -2.0260   -2.7510   -3.2120 H   0  0  0  0  0  0  0  0  0  0  0  0
   -2.8340   -1.3430   -2.5150 H   0  0  0  0  0  0  0  0  0  0  0  0
   -1.4640   -4.6170   -1.7390 H   0  0  0  0  0  0  0  0  0  0  0  0
   -1.2450   -4.1230    1.2250 H   0  0  0  0  0  0  0  0  0  0  0  0
   -2.8060   -4.8320    0.7920 H   0  0  0  0  0  0  0  0  0  0  0  0
   -1.3090   -5.6860    0.3970 H   0  0  0  0  0  0  0  0  0  0  0  0
  2  1  1  1
  2 16  1  0
  2  3  1  0
  2 19  1  0
  3 14  1  0
  3  4  1  1
  3  5  1  0
  5 29  1  0
  5  6  1  0
  5 28  1  0
  6  7  1  0
  7  9  1  0
  7  8  2  0
  9 10  2  0
  9 12  1  0
 10 11  1  0
 10 30  1  0
 11 31  1  0
 11 33  1  0
 11 32  1  0
 12 35  1  0
 12 34  1  0
 12 13  1  0
 13 36  1  0
 14 37  1  0
 14 38  1  0
 14 15  1  0
 15 40  1  0
 15 39  1  0
 16 15  1  0
 16 17  1  0
 17 42  1  0
 17 41  1  0
 17 18  1  0
 18 44  1  0
 18 19  1  0
 18 43  1  0
 19 21  1  0
 19 20  1  1
 21 22  1  0
 22 24  1  0
 22 23  2  0
 24 25  1  0
 24 26  2  0
 25 46  1  0
 25 47  1  0
 25 45  1  0
 26 48  1  0
 26 27  1  0
 27 51  1  0
 27 50  1  0
 27 49  1  0
M  END
>  <id>  (17) 
117

>  <scaffolds>  (17) 
['C1CC2CCCN2C1', 'C1CCNC1']

>  <name>  (17) 
Neosarracine

>  <formula>  (17) 
C18H27NO5

>  <SMILES>  (17) 
[H][C@]12[C@@H](COC(=O)/C(=C/C)CO)CCN1CC[C@H]2OC(=O)/C(C)=C\C

>  <ChEMBL_id>  (17) 
None

>  <ZINC_id>  (17) 
None

>  <PubChem_id>  (17) 
 5468383

>  <DrugBank_id>  (17) 


>  <CAS_no>  (17) 
136173-26-7

>  <references>  (17) 
[{'journal': {'name': 'Thesis, Rhodes University', 'id': 2}, 'title': 'The Pyrrolizidine Alkaloids of Senecio Chrysocoma and Senecio Paniculatus', 'year': 1995, 'start_page': None, 'volume': None, 'issue': None, 'doi': None, 'isbn': None, 'despositor': {'code': 'rah', 'first_name': 'Rowan', 'last_name': 'Hatherley', 'id': 20}, 'refauthors_set': [{'author': {'first_name': 'Catherine', 'initials': 'CG', 'last_name': 'Logie', 'id': 446}, 'first_author': True, 'id': 604}], 'id': 225}]

>  <classifications>  (17) 
[{'classification': 'Alkaloid', 'id': 738}, {'classification': 'Pyrrolizidine', 'id': 818}, {'classification': 'Pyrrolizidines (Classyfire)', 'id': 944}]

>  <molecular_mass>  (17) 
337.41

$$$$
SANC00118_minRM1.pdb
     RDKit          3D

 50 52  0  0  1  0  0  0  0  0999 V2000
   -3.2080    1.0020    1.8530 H   0  0  0  0  0  0  0  0  0  0  0  0
   -2.8680    0.8690    0.7940 C   0  0  1  0  0  0  0  0  0  0  0  0
   -1.6980    1.7670    0.5050 C   0  0  0  0  0  0  0  0  0  0  0  0
   -1.9560    2.5860   -0.5170 C   0  0  0  0  0  0  0  0  0  0  0  0
   -3.3360    2.3470   -1.0560 C   0  0  0  0  0  0  0  0  0  0  0  0
   -3.9750    1.3650   -0.1090 N   0  0  0  0  0  0  0  0  0  0  0  0
   -4.5340    0.1680   -0.7940 C   0  0  0  0  0  0  0  0  0  0  0  0
   -3.4600   -0.9240   -0.7860 C   0  0  0  0  0  0  0  0  0  0  0  0
   -2.6560   -0.6450    0.4950 C   0  0  1  0  0  0  0  0  0  0  0  0
   -3.0300   -1.2680    1.3490 H   0  0  0  0  0  0  0  0  0  0  0  0
   -1.2740   -0.8690    0.3170 O   0  0  0  0  0  0  0  0  0  0  0  0
   -0.8760   -2.1340    0.0230 C   0  0  0  0  0  0  0  0  0  0  0  0
   -1.6930   -3.0370   -0.0240 O   0  0  0  0  0  0  0  0  0  0  0  0
    0.5750   -2.2600   -0.2090 C   0  0  0  0  0  0  0  0  0  0  0  0
    1.2270   -3.3200    0.2820 C   0  0  0  0  0  0  0  0  0  0  0  0
    0.5980   -4.3550    1.1360 C   0  0  0  0  0  0  0  0  0  0  0  0
    1.2220   -1.2360   -1.0830 C   0  0  0  0  0  0  0  0  0  0  0  0
    2.6160   -0.8100   -0.5800 C   0  0  1  0  0  0  0  0  0  0  0  0
    2.8330   -1.2750    0.4170 H   0  0  0  0  0  0  0  0  0  0  0  0
    3.6860   -1.2550   -1.5710 C   0  0  0  0  0  0  0  0  0  0  0  0
    2.6880    0.7220   -0.3570 C   0  0  2  0  0  0  0  0  0  0  0  0
    2.3190    1.3360   -1.5420 O   0  0  0  0  0  0  0  0  0  0  0  0
    4.1080    1.1890    0.0770 C   0  0  0  0  0  0  0  0  0  0  0  0
    4.0400    2.5150    0.4960 O   0  0  0  0  0  0  0  0  0  0  0  0
    1.7350    1.0300    0.7950 C   0  0  0  0  0  0  0  0  0  0  0  0
    1.9530    0.7700    1.9660 O   0  0  0  0  0  0  0  0  0  0  0  0
    0.6030    1.6440    0.4020 O   0  0  0  0  0  0  0  0  0  0  0  0
   -0.4670    1.7330    1.3320 C   0  0  0  0  0  0  0  0  0  0  0  0
   -1.3030    3.3410   -0.9440 H   0  0  0  0  0  0  0  0  0  0  0  0
   -3.9540    3.2710   -1.0400 H   0  0  0  0  0  0  0  0  0  0  0  0
   -3.2940    2.0270   -2.1230 H   0  0  0  0  0  0  0  0  0  0  0  0
   -5.4300   -0.1420   -0.2100 H   0  0  0  0  0  0  0  0  0  0  0  0
   -4.9190    0.3820   -1.8130 H   0  0  0  0  0  0  0  0  0  0  0  0
   -3.8940   -1.9420   -0.8030 H   0  0  0  0  0  0  0  0  0  0  0  0
   -2.8220   -0.8720   -1.6920 H   0  0  0  0  0  0  0  0  0  0  0  0
    2.2890   -3.4760    0.0540 H   0  0  0  0  0  0  0  0  0  0  0  0
    1.3390   -4.9660    1.6710 H   0  0  0  0  0  0  0  0  0  0  0  0
   -0.0750   -3.9350    1.9010 H   0  0  0  0  0  0  0  0  0  0  0  0
   -0.0110   -5.0470    0.5290 H   0  0  0  0  0  0  0  0  0  0  0  0
    1.2810   -1.6590   -2.1120 H   0  0  0  0  0  0  0  0  0  0  0  0
    0.5560   -0.3580   -1.2280 H   0  0  0  0  0  0  0  0  0  0  0  0
    3.6230   -0.7200   -2.5290 H   0  0  0  0  0  0  0  0  0  0  0  0
    4.7070   -1.1160   -1.1880 H   0  0  0  0  0  0  0  0  0  0  0  0
    3.6040   -2.3290   -1.7980 H   0  0  0  0  0  0  0  0  0  0  0  0
    2.3470    2.2910   -1.4080 H   0  0  0  0  0  0  0  0  0  0  0  0
    4.5390    0.4960    0.8340 H   0  0  0  0  0  0  0  0  0  0  0  0
    4.8040    1.1990   -0.7920 H   0  0  0  0  0  0  0  0  0  0  0  0
    3.8830    2.5260    1.4430 H   0  0  0  0  0  0  0  0  0  0  0  0
   -0.3480    2.6680    1.9240 H   0  0  0  0  0  0  0  0  0  0  0  0
   -0.4910    0.8940    2.0650 H   0  0  0  0  0  0  0  0  0  0  0  0
  2  1  1  1
  2  6  1  0
  2  9  1  0
  2  3  1  0
  3  4  2  0
  3 28  1  0
  4  5  1  0
  4 29  1  0
  5 31  1  0
  5 30  1  0
  6  5  1  0
  6  7  1  0
  7 33  1  0
  7  8  1  0
  7 32  1  0
  8 35  1  0
  8 34  1  0
  8  9  1  0
  9 11  1  0
  9 10  1  1
 11 12  1  0
 12 14  1  0
 12 13  2  0
 14 17  1  0
 14 15  2  0
 15 36  1  0
 15 16  1  0
 16 39  1  0
 16 37  1  0
 16 38  1  0
 17 40  1  0
 17 41  1  0
 17 18  1  0
 18 20  1  0
 18 21  1  0
 18 19  1  1
 20 42  1  0
 20 44  1  0
 20 43  1  0
 21 22  1  6
 21 23  1  0
 21 25  1  0
 22 45  1  0
 23 47  1  0
 23 24  1  0
 23 46  1  0
 24 48  1  0
 25 27  1  0
 25 26  2  0
 27 28  1  0
 28 49  1  0
 28 50  1  0
M  END
>  <id>  (18) 
118

>  <scaffolds>  (18) 
['O=C1CCCCC(=O)OC2CCN3CC=C(CO1)C23', 'C=C1CCCC(=O)OCC2=CCN3CCC(OC1=O)C23', 'C1CCNC1']

>  <name>  (18) 
Retrorsine

>  <formula>  (18) 
C18H25NO6

>  <SMILES>  (18) 
[H][C@]12C3=CCN1CC[C@H]2OC(=O)/C(=C\C)C[C@@H](C)[C@](O)(CO)C(=O)OC3

>  <ChEMBL_id>  (18) 


>  <ZINC_id>  (18) 


>  <PubChem_id>  (18) 


>  <DrugBank_id>  (18) 


>  <CAS_no>  (18) 
480-54-6

>  <references>  (18) 
[{'journal': {'name': 'Thesis, Rhodes University', 'id': 2}, 'title': 'The Pyrrolizidine Alkaloids of Senecio Chrysocoma and Senecio Paniculatus', 'year': 1995, 'start_page': None, 'volume': None, 'issue': None, 'doi': None, 'isbn': None, 'despositor': {'code': 'rah', 'first_name': 'Rowan', 'last_name': 'Hatherley', 'id': 20}, 'refauthors_set': [{'author': {'first_name': 'Catherine', 'initials': 'CG', 'last_name': 'Logie', 'id': 446}, 'first_author': True, 'id': 604}], 'id': 225}, {'journal': {'name': 'Thesis, Rhodes University', 'id': 2}, 'title': 'Chemical Studies of Necic Acid Analogues', 'year': 1996, 'start_page': None, 'volume': None, 'issue': None, 'doi': '', 'isbn': '', 'despositor': {'code': 'rah', 'first_name': 'Rowan', 'last_name': 'Hatherley', 'id': 20}, 'refauthors_set': [{'author': {'first_name': 'Jeffry', 'initials': 'JJ', 'last_name': 'Guthrie-Strachan', 'id': 801}, 'first_author': True, 'id': 1282}], 'id': 371}]

>  <classifications>  (18) 
[{'classification': 'Alkaloid', 'id': 738}, {'classification': 'Pyrrolizidine', 'id': 818}, {'classification': 'Macrolides and analogues (Classyfire)', 'id': 945}]

>  <molecular_mass>  (18) 
351.39

$$$$
SANC00119_minRM1.pdb
     RDKit          3D

 38 42  0  0  1  0  0  0  0  0999 V2000
    3.2610   -1.9800   -0.9470 O   0  0  0  0  0  0  0  0  0  0  0  0
    2.8970   -1.0030   -0.3270 C   0  0  0  0  0  0  0  0  0  0  0  0
    2.7980    0.3450   -0.9060 C   0  0  0  0  0  0  0  0  0  0  0  0
    3.5900    0.5940   -2.6560 Br  0  0  0  0  0  0  0  0  0  0  0  0
    2.1990    1.3750   -0.3250 C   0  0  0  0  0  0  0  0  0  0  0  0
    1.5730    1.2670    1.0360 C   0  0  1  0  0  0  0  0  0  0  0  0
    1.8630   -0.0470    1.7100 C   0  0  0  0  0  0  0  0  0  0  0  0
    2.4900   -1.0340    1.0850 C   0  0  0  0  0  0  0  0  0  0  0  0
    2.8650   -2.6660    2.0570 Br  0  0  0  0  0  0  0  0  0  0  0  0
    2.1350    2.3790    1.9380 C   0  0  0  0  0  0  0  0  0  0  0  0
    1.4690    3.7190    1.6260 C   0  0  0  0  0  0  0  0  0  0  0  0
    0.0200    3.5990    1.7440 N   0  0  0  0  0  0  0  0  0  0  0  0
   -0.6130    2.4770    1.2540 C   0  0  0  0  0  0  0  0  0  0  0  0
    0.0910    1.3790    0.8530 C   0  0  0  0  0  0  0  0  0  0  0  0
   -0.5630    0.2620    0.1770 C   0  0  0  0  0  0  0  0  0  0  0  0
    0.0590   -0.7180   -0.4040 N   0  0  0  0  0  0  0  0  0  0  0  0
   -0.7300   -1.7240   -1.1290 C   0  0  0  0  0  0  0  0  0  0  0  0
   -2.2420   -1.9060   -0.8340 C   0  0  0  0  0  0  0  0  0  0  0  0
   -2.8410   -0.6590   -0.3390 C   0  0  0  0  0  0  0  0  0  0  0  0
   -4.1320   -0.1720   -0.1710 C   0  0  0  0  0  0  0  0  0  0  0  0
   -5.7740   -0.9860   -0.6220 Br  0  0  0  0  0  0  0  0  0  0  0  0
   -4.0920    1.0880    0.4150 N   0  0  0  0  0  0  0  0  0  0  0  0
   -4.8880    1.6670    0.6450 H   0  0  0  0  0  0  0  0  0  0  0  0
   -2.7570    1.4100    0.6260 C   0  0  0  0  0  0  0  0  0  0  0  0
   -2.1200    2.5720    1.2090 C   0  0  0  0  0  0  0  0  0  0  0  0
   -2.7330    3.5380    1.6310 O   0  0  0  0  0  0  0  0  0  0  0  0
   -1.9980    0.3470    0.1660 C   0  0  0  0  0  0  0  0  0  0  0  0
    2.1190    2.3460   -0.8250 H   0  0  0  0  0  0  0  0  0  0  0  0
    1.5160   -0.1510    2.7440 H   0  0  0  0  0  0  0  0  0  0  0  0
    1.9880    2.1340    3.0120 H   0  0  0  0  0  0  0  0  0  0  0  0
    3.2360    2.4580    1.8190 H   0  0  0  0  0  0  0  0  0  0  0  0
    1.8340    4.5110    2.3210 H   0  0  0  0  0  0  0  0  0  0  0  0
    1.7520    4.0810    0.6070 H   0  0  0  0  0  0  0  0  0  0  0  0
   -0.5100    4.3830    2.1020 H   0  0  0  0  0  0  0  0  0  0  0  0
   -0.5790   -1.4970   -2.2110 H   0  0  0  0  0  0  0  0  0  0  0  0
   -0.1980   -2.6870   -0.9560 H   0  0  0  0  0  0  0  0  0  0  0  0
   -2.7660   -2.2720   -1.7430 H   0  0  0  0  0  0  0  0  0  0  0  0
   -2.4000   -2.7070   -0.0770 H   0  0  0  0  0  0  0  0  0  0  0  0
  1  2  2  0
  2  3  1  0
  2  8  1  0
  3  4  1  0
  3  5  2  0
  5 28  1  0
  6  5  1  6
  6 14  1  0
  6  7  1  0
  6 10  1  0
  7  8  2  0
  7 29  1  0
  8  9  1  0
 10 11  1  0
 10 31  1  0
 10 30  1  0
 11 33  1  0
 11 12  1  0
 11 32  1  0
 12 13  1  0
 12 34  1  0
 13 14  2  0
 13 25  1  0
 14 15  1  0
 15 16  2  0
 15 27  1  0
 16 17  1  0
 17 35  1  0
 17 36  1  0
 17 18  1  0
 18 37  1  0
 18 19  1  0
 18 38  1  0
 19 20  2  0
 19 27  1  0
 20 21  1  0
 20 22  1  0
 22 24  1  0
 22 23  1  0
 24 27  2  0
 24 25  1  0
 25 26  2  0
M  END
>  <id>  (19) 
119

>  <scaffolds>  (19) 
[]

>  <name>  (19) 
14-bromo-discorhabdin C

>  <formula>  (19) 
C18H12Br3N3O2

>  <SMILES>  (19) 
O=C1C(Br)=CC2(C=C1Br)CCNc3c2c5=NCCc4c(Br)[nH]c(c3=O)c45

>  <ChEMBL_id>  (19) 


>  <ZINC_id>  (19) 


>  <PubChem_id>  (19) 


>  <DrugBank_id>  (19) 


>  <CAS_no>  (19) 
182928-53-6

>  <references>  (19) 
[{'journal': {'name': 'Thesis, Rhodes University', 'id': 2}, 'title': 'Pyrroloiminoquinone Metabolites From South African Latrunculid Sponges', 'year': 2003, 'start_page': None, 'volume': None, 'issue': None, 'doi': None, 'isbn': None, 'despositor': {'code': 'rah', 'first_name': 'Rowan', 'last_name': 'Hatherley', 'id': 20}, 'refauthors_set': [{'author': {'first_name': 'Edith ', 'initials': 'EM', 'last_name': 'Antunes', 'id': 447}, 'first_author': True, 'id': 605}], 'id': 226}, {'journal': {'name': 'Thesis, Rhodes University', 'id': 2}, 'title': 'Biologically Active Natural Products From South African Marine Invertebrates', 'year': 1996, 'start_page': None, 'volume': None, 'issue': None, 'doi': None, 'isbn': None, 'despositor': {'code': 'rah', 'first_name': 'Rowan', 'last_name': 'Hatherley', 'id': 20}, 'refauthors_set': [{'author': {'first_name': 'Gregory', 'initials': 'GJ', 'last_name': 'Hooper', 'id': 448}, 'first_author': True, 'id': 606}], 'id': 227}, {'journal': {'name': 'Tetrahedron Letters', 'id': 3}, 'title': 'New Alkaloids from a South African Latrunculid Sponge', 'year': 1996, 'start_page': 7135, 'volume': 37, 'issue': 39, 'doi': '10.1016/0040-4039(96)01560-2', 'isbn': '', 'despositor': {'code': 'rah', 'first_name': 'Rowan', 'last_name': 'Hatherley', 'id': 20}, 'refauthors_set': [{'author': {'first_name': 'Gregory', 'initials': 'GJ', 'last_name': 'Hooper', 'id': 448}, 'first_author': True, 'id': 607}, {'author': {'first_name': 'Michael', 'initials': 'MT', 'last_name': 'Davies-Coleman', 'id': 449}, 'first_author': None, 'id': 608}, {'author': {'first_name': 'Michelle', 'initials': 'M', 'last_name': 'Kelly-Borges', 'id': 450}, 'first_author': None, 'id': 609}, {'author': {'first_name': 'Philip', 'initials': 'PS', 'last_name': 'Coetzee', 'id': 451}, 'first_author': None, 'id': 610}], 'id': 228}]

>  <classifications>  (19) 
[{'classification': 'Alkaloid', 'id': 738}, {'classification': 'Discorhabdin', 'id': 770}, {'classification': 'Pyrroloiminoquinone', 'id': 820}, {'classification': 'Tsitsikammamine', 'id': 843}, {'classification': 'Phenanthrolines (Classyfire)', 'id': 946}]

>  <molecular_mass>  (19) 
542.02

$$$$
SANC00120_minRM1.pdb
     RDKit          3D

 40 44  0  0  1  0  0  0  0  0999 V2000
   -2.9650    1.9240    1.3000 O   0  0  0  0  0  0  0  0  0  0  0  0
   -3.3260    0.8590    0.4820 C   0  0  1  0  0  0  0  0  0  0  0  0
   -2.7960    1.0250   -0.9070 C   0  0  0  0  0  0  0  0  0  0  0  0
   -2.0030    0.2010   -1.5670 C   0  0  0  0  0  0  0  0  0  0  0  0
   -1.5800   -1.1230   -0.9930 C   0  0  1  0  0  0  0  0  0  0  0  0
   -2.0600   -1.3270    0.4150 C   0  0  0  0  0  0  0  0  0  0  0  0
   -2.8230   -0.4380    1.0290 C   0  0  0  0  0  0  0  0  0  0  0  0
   -3.4080   -0.8120    2.8460 Br  0  0  0  0  0  0  0  0  0  0  0  0
   -2.2070   -2.1940   -1.9030 C   0  0  0  0  0  0  0  0  0  0  0  0
   -1.6450   -3.5750   -1.5780 C   0  0  0  0  0  0  0  0  0  0  0  0
   -0.1870   -3.5590   -1.6090 N   0  0  0  0  0  0  0  0  0  0  0  0
    0.5240   -2.4310   -1.2600 C   0  0  0  0  0  0  0  0  0  0  0  0
   -0.0880   -1.2470   -0.9600 C   0  0  0  0  0  0  0  0  0  0  0  0
    0.6780   -0.0800   -0.5310 C   0  0  0  0  0  0  0  0  0  0  0  0
    0.1830    1.0960   -0.2840 N   0  0  0  0  0  0  0  0  0  0  0  0
    1.1080    2.1950    0.0350 C   0  0  0  0  0  0  0  0  0  0  0  0
    2.5060    1.8930    0.6310 C   0  0  0  0  0  0  0  0  0  0  0  0
    3.0040    0.5950    0.1540 C   0  0  0  0  0  0  0  0  0  0  0  0
    2.0890   -0.3300   -0.3810 C   0  0  0  0  0  0  0  0  0  0  0  0
    2.7500   -1.5030   -0.7030 C   0  0  0  0  0  0  0  0  0  0  0  0
    2.0210   -2.6360   -1.2330 C   0  0  0  0  0  0  0  0  0  0  0  0
    2.5580   -3.6640   -1.6080 O   0  0  0  0  0  0  0  0  0  0  0  0
    4.0910   -1.3270   -0.3890 N   0  0  0  0  0  0  0  0  0  0  0  0
    4.8280   -2.0060   -0.5200 H   0  0  0  0  0  0  0  0  0  0  0  0
    4.2340   -0.0490    0.1390 C   0  0  0  0  0  0  0  0  0  0  0  0
    5.9120    0.5830    0.7250 Br  0  0  0  0  0  0  0  0  0  0  0  0
   -3.3800    2.6650   -1.7760 Br  0  0  0  0  0  0  0  0  0  0  0  0
   -2.0050    2.0340    1.2460 H   0  0  0  0  0  0  0  0  0  0  0  0
   -4.4510    0.8720    0.4870 H   0  0  0  0  0  0  0  0  0  0  0  0
   -1.6200    0.4380   -2.5670 H   0  0  0  0  0  0  0  0  0  0  0  0
   -1.7300   -2.2450    0.9150 H   0  0  0  0  0  0  0  0  0  0  0  0
   -3.3120   -2.1960   -1.7980 H   0  0  0  0  0  0  0  0  0  0  0  0
   -2.0210   -1.9520   -2.9710 H   0  0  0  0  0  0  0  0  0  0  0  0
   -2.0110   -3.9390   -0.5870 H   0  0  0  0  0  0  0  0  0  0  0  0
   -2.0210   -4.3310   -2.3090 H   0  0  0  0  0  0  0  0  0  0  0  0
    0.2940   -4.4140   -1.8690 H   0  0  0  0  0  0  0  0  0  0  0  0
    1.2220    2.7790   -0.9110 H   0  0  0  0  0  0  0  0  0  0  0  0
    0.5440    2.8640    0.7240 H   0  0  0  0  0  0  0  0  0  0  0  0
    3.2120    2.7130    0.3850 H   0  0  0  0  0  0  0  0  0  0  0  0
    2.4660    1.8810    1.7430 H   0  0  0  0  0  0  0  0  0  0  0  0
  1  2  1  0
  1 28  1  0
  2  3  1  0
  2 29  1  6
  2  7  1  0
  3 27  1  0
  3  4  2  0
  4 30  1  0
  5  4  1  6
  5  9  1  0
  5 13  1  0
  5  6  1  0
  6 31  1  0
  6  7  2  0
  7  8  1  0
  9 33  1  0
  9 32  1  0
  9 10  1  0
 10 35  1  0
 10 11  1  0
 10 34  1  0
 11 36  1  0
 11 12  1  0
 12 21  1  0
 12 13  2  0
 13 14  1  0
 14 19  1  0
 14 15  2  0
 15 16  1  0
 16 37  1  0
 16 17  1  0
 16 38  1  0
 17 18  1  0
 17 39  1  0
 17 40  1  0
 18 19  1  0
 18 25  2  0
 19 20  2  0
 20 21  1  0
 20 23  1  0
 21 22  2  0
 23 24  1  0
 23 25  1  0
 25 26  1  0
M  END
>  <id>  (20) 
120

>  <scaffolds>  (20) 
[]

>  <name>  (20) 
14-bromo-3-dihydro-discorhabdin C

>  <formula>  (20) 
C18H14Br3N3O2

>  <SMILES>  (20) 
OC1C(=CC2(C=C1Br)CCNC1=C2C2=NCCc3c2c(C1=O)[nH]c3Br)Br

>  <ChEMBL_id>  (20) 


>  <ZINC_id>  (20) 


>  <PubChem_id>  (20) 


>  <DrugBank_id>  (20) 


>  <CAS_no>  (20) 
182928-55-8

>  <references>  (20) 
[{'journal': {'name': 'Thesis, Rhodes University', 'id': 2}, 'title': 'Pyrroloiminoquinone Metabolites From South African Latrunculid Sponges', 'year': 2003, 'start_page': None, 'volume': None, 'issue': None, 'doi': None, 'isbn': None, 'despositor': {'code': 'rah', 'first_name': 'Rowan', 'last_name': 'Hatherley', 'id': 20}, 'refauthors_set': [{'author': {'first_name': 'Edith ', 'initials': 'EM', 'last_name': 'Antunes', 'id': 447}, 'first_author': True, 'id': 605}], 'id': 226}]

>  <classifications>  (20) 
[{'classification': 'Alkaloid', 'id': 738}, {'classification': 'Discorhabdin', 'id': 770}, {'classification': 'Pyrroloiminoquinone', 'id': 820}, {'classification': 'Phenanthrolines (Classyfire)', 'id': 946}]

>  <molecular_mass>  (20) 
544.03

$$$$
SANC00121_minRM1.pdb
     RDKit          3D

 40 44  0  0  1  0  0  0  0  0999 V2000
   -4.8940    1.0480   -1.5400 O   0  0  0  0  0  0  0  0  0  0  0  0
   -3.9210    0.6210   -0.9410 C   0  0  0  0  0  0  0  0  0  0  0  0
   -2.5020    0.9870   -1.3090 C   0  0  0  0  0  0  0  0  0  0  0  0
   -2.3910    1.9620   -2.2790 N   0  0  0  0  0  0  0  0  0  0  0  0
   -1.0890    2.5670   -2.5400 C   0  0  0  0  0  0  0  0  0  0  0  0
   -0.0080    1.4890   -2.5570 C   0  0  0  0  0  0  0  0  0  0  0  0
   -0.0150    0.6880   -1.2460 C   0  0  1  0  0  0  0  0  0  0  0  0
    0.6800   -0.6190   -1.5190 C   0  0  0  0  0  0  0  0  0  0  0  0
    1.7820   -0.9730   -0.8820 C   0  0  0  0  0  0  0  0  0  0  0  0
    2.5860   -2.7020   -1.2910 Br  0  0  0  0  0  0  0  0  0  0  0  0
    2.4790   -0.2150    0.1980 C   0  0  1  0  0  0  0  0  0  0  0  0
    3.7800    0.0240   -0.2620 O   0  0  0  0  0  0  0  0  0  0  0  0
    1.7510    1.0660    0.4320 C   0  0  0  0  0  0  0  0  0  0  0  0
    2.5470    2.1600    1.8430 Br  0  0  0  0  0  0  0  0  0  0  0  0
    0.6580    1.4940   -0.1710 C   0  0  0  0  0  0  0  0  0  0  0  0
   -1.4020    0.3970   -0.7590 C   0  0  0  0  0  0  0  0  0  0  0  0
   -1.5150   -0.5420    0.3540 C   0  0  0  0  0  0  0  0  0  0  0  0
   -0.5140   -1.1270    0.9360 N   0  0  0  0  0  0  0  0  0  0  0  0
   -0.7930   -2.1260    1.9790 C   0  0  0  0  0  0  0  0  0  0  0  0
   -2.1520   -2.1340    2.7250 C   0  0  0  0  0  0  0  0  0  0  0  0
   -3.2220   -1.5690    1.8890 C   0  0  0  0  0  0  0  0  0  0  0  0
   -4.6200   -1.5620    1.9490 C   0  0  0  0  0  0  0  0  0  0  0  0
   -5.0950   -0.7630    0.9100 N   0  0  0  0  0  0  0  0  0  0  0  0
   -6.0660   -0.5790    0.6900 H   0  0  0  0  0  0  0  0  0  0  0  0
   -4.0110   -0.2710    0.1950 C   0  0  0  0  0  0  0  0  0  0  0  0
   -2.8660   -0.7760    0.7860 C   0  0  0  0  0  0  0  0  0  0  0  0
   -3.2200    2.4020   -2.6590 H   0  0  0  0  0  0  0  0  0  0  0  0
   -1.1240    3.1070   -3.5170 H   0  0  0  0  0  0  0  0  0  0  0  0
   -0.8560    3.3570   -1.7830 H   0  0  0  0  0  0  0  0  0  0  0  0
   -0.1620    0.8190   -3.4270 H   0  0  0  0  0  0  0  0  0  0  0  0
    0.9890    1.9470   -2.7270 H   0  0  0  0  0  0  0  0  0  0  0  0
    0.2080   -1.2690   -2.2620 H   0  0  0  0  0  0  0  0  0  0  0  0
    2.4660   -0.8270    1.1450 H   0  0  0  0  0  0  0  0  0  0  0  0
    4.2430    0.5150    0.4250 H   0  0  0  0  0  0  0  0  0  0  0  0
    0.1830    2.4410    0.0990 H   0  0  0  0  0  0  0  0  0  0  0  0
   -0.6290   -3.1170    1.4900 H   0  0  0  0  0  0  0  0  0  0  0  0
    0.0360   -2.0150    2.7220 H   0  0  0  0  0  0  0  0  0  0  0  0
   -2.3950   -3.1650    3.0570 H   0  0  0  0  0  0  0  0  0  0  0  0
   -2.0850   -1.5460    3.6680 H   0  0  0  0  0  0  0  0  0  0  0  0
   -5.2850   -2.0610    2.6500 H   0  0  0  0  0  0  0  0  0  0  0  0
  1  2  2  0
  2  3  1  0
  2 25  1  0
  3  4  1  0
  3 16  2  0
  4 27  1  0
  4  5  1  0
  5 28  1  0
  5  6  1  0
  5 29  1  0
  6 30  1  0
  6 31  1  0
  6  7  1  0
  7  8  1  6
  7 16  1  0
  7 15  1  0
  8 32  1  0
  8  9  2  0
  9 10  1  0
  9 11  1  0
 11 12  1  0
 11 13  1  0
 11 33  1  1
 12 34  1  0
 13 15  2  0
 13 14  1  0
 15 35  1  0
 16 17  1  0
 17 26  1  0
 17 18  2  0
 18 19  1  0
 19 36  1  0
 19 37  1  0
 19 20  1  0
 20 21  1  0
 20 38  1  0
 20 39  1  0
 21 26  1  0
 21 22  2  0
 22 23  1  0
 22 40  1  0
 23 25  1  0
 23 24  1  0
 25 26  2  0
M  END
>  <id>  (21) 
121

>  <scaffolds>  (21) 
[]

>  <name>  (21) 
3-dihydro-discorhabdin C

>  <formula>  (21) 
C18H15Br2N3O2

>  <SMILES>  (21) 
O=c3c2NCCC1(C=C(Br)C(O)C(Br)=C1)c2c5=NCCc4c[nH]c3c45

>  <ChEMBL_id>  (21) 


>  <ZINC_id>  (21) 


>  <PubChem_id>  (21) 


>  <DrugBank_id>  (21) 


>  <CAS_no>  (21) 
159308-88-0

>  <references>  (21) 
[{'journal': {'name': 'Thesis, Rhodes University', 'id': 2}, 'title': 'Pyrroloiminoquinone Metabolites From South African Latrunculid Sponges', 'year': 2003, 'start_page': None, 'volume': None, 'issue': None, 'doi': None, 'isbn': None, 'despositor': {'code': 'rah', 'first_name': 'Rowan', 'last_name': 'Hatherley', 'id': 20}, 'refauthors_set': [{'author': {'first_name': 'Edith ', 'initials': 'EM', 'last_name': 'Antunes', 'id': 447}, 'first_author': True, 'id': 605}], 'id': 226}, {'journal': {'name': 'Thesis, Rhodes University', 'id': 2}, 'title': 'Biologically Active Natural Products From South African Marine Invertebrates', 'year': 1996, 'start_page': None, 'volume': None, 'issue': None, 'doi': None, 'isbn': None, 'despositor': {'code': 'rah', 'first_name': 'Rowan', 'last_name': 'Hatherley', 'id': 20}, 'refauthors_set': [{'author': {'first_name': 'Gregory', 'initials': 'GJ', 'last_name': 'Hooper', 'id': 448}, 'first_author': True, 'id': 606}], 'id': 227}, {'journal': {'name': 'Tetrahedron Letters', 'id': 3}, 'title': 'New Alkaloids from a South African Latrunculid Sponge', 'year': 1996, 'start_page': 7135, 'volume': 37, 'issue': 39, 'doi': '10.1016/0040-4039(96)01560-2', 'isbn': '', 'despositor': {'code': 'rah', 'first_name': 'Rowan', 'last_name': 'Hatherley', 'id': 20}, 'refauthors_set': [{'author': {'first_name': 'Gregory', 'initials': 'GJ', 'last_name': 'Hooper', 'id': 448}, 'first_author': True, 'id': 607}, {'author': {'first_name': 'Michael', 'initials': 'MT', 'last_name': 'Davies-Coleman', 'id': 449}, 'first_author': None, 'id': 608}, {'author': {'first_name': 'Michelle', 'initials': 'M', 'last_name': 'Kelly-Borges', 'id': 450}, 'first_author': None, 'id': 609}, {'author': {'first_name': 'Philip', 'initials': 'PS', 'last_name': 'Coetzee', 'id': 451}, 'first_author': None, 'id': 610}], 'id': 228}]

>  <classifications>  (21) 
[{'classification': 'Alkaloid', 'id': 738}, {'classification': 'Discorhabdin', 'id': 770}, {'classification': 'Pyrroloiminoquinone', 'id': 820}, {'classification': 'Phenanthrolines (Classyfire)', 'id': 946}]

>  <molecular_mass>  (21) 
465.14

$$$$
SANC00122_minRM1.pdb
     RDKit          3D

 38 42  0  0  1  0  0  0  0  0999 V2000
   -4.8840    1.2530   -1.4630 O   0  0  0  0  0  0  0  0  0  0  0  0
   -3.9220    0.7450   -0.9100 C   0  0  0  0  0  0  0  0  0  0  0  0
   -2.5040    0.9820   -1.3560 C   0  0  0  0  0  0  0  0  0  0  0  0
   -2.3680    1.8500   -2.4350 N   0  0  0  0  0  0  0  0  0  0  0  0
   -1.1070    2.1180   -2.9710 C   0  0  0  0  0  0  0  0  0  0  0  0
    0.0120    1.6120   -2.4330 C   0  0  0  0  0  0  0  0  0  0  0  0
   -0.0120    0.7350   -1.2220 C   0  0  1  0  0  0  0  0  0  0  0  0
    0.6930   -0.5490   -1.5670 C   0  0  0  0  0  0  0  0  0  0  0  0
    1.7790   -0.9420   -0.9270 C   0  0  0  0  0  0  0  0  0  0  0  0
    2.6010   -2.6410   -1.4230 Br  0  0  0  0  0  0  0  0  0  0  0  0
    2.4580   -0.2480    0.2060 C   0  0  1  0  0  0  0  0  0  0  0  0
    3.7630    0.0230   -0.2210 O   0  0  0  0  0  0  0  0  0  0  0  0
    1.7240    1.0180    0.5070 C   0  0  0  0  0  0  0  0  0  0  0  0
    2.5050    2.0290    1.9890 Br  0  0  0  0  0  0  0  0  0  0  0  0
    0.6440    1.4830   -0.0900 C   0  0  0  0  0  0  0  0  0  0  0  0
   -1.4100    0.4180   -0.7740 C   0  0  0  0  0  0  0  0  0  0  0  0
   -1.5400   -0.5230    0.3380 C   0  0  0  0  0  0  0  0  0  0  0  0
   -0.5540   -1.1690    0.8820 N   0  0  0  0  0  0  0  0  0  0  0  0
   -0.8620   -2.1700    1.9150 C   0  0  0  0  0  0  0  0  0  0  0  0
   -2.1910   -2.1000    2.7100 C   0  0  0  0  0  0  0  0  0  0  0  0
   -3.2550   -1.4630    1.9160 C   0  0  0  0  0  0  0  0  0  0  0  0
   -4.6430   -1.3610    2.0320 C   0  0  0  0  0  0  0  0  0  0  0  0
   -5.1090   -0.5440    0.9990 N   0  0  0  0  0  0  0  0  0  0  0  0
   -6.0700   -0.2900    0.8230 H   0  0  0  0  0  0  0  0  0  0  0  0
   -4.0240   -0.1280    0.2400 C   0  0  0  0  0  0  0  0  0  0  0  0
   -2.8920   -0.6960    0.7980 C   0  0  0  0  0  0  0  0  0  0  0  0
   -3.1890    2.2710   -2.8560 H   0  0  0  0  0  0  0  0  0  0  0  0
   -1.1030    2.7660   -3.8580 H   0  0  0  0  0  0  0  0  0  0  0  0
    0.9930    1.8220   -2.8620 H   0  0  0  0  0  0  0  0  0  0  0  0
    0.2440   -1.1360   -2.3740 H   0  0  0  0  0  0  0  0  0  0  0  0
    2.4390   -0.9130    1.1180 H   0  0  0  0  0  0  0  0  0  0  0  0
    4.2120    0.4810    0.5010 H   0  0  0  0  0  0  0  0  0  0  0  0
    0.1660    2.4240    0.2030 H   0  0  0  0  0  0  0  0  0  0  0  0
   -0.7810   -3.1590    1.3990 H   0  0  0  0  0  0  0  0  0  0  0  0
    0.0000   -2.1350    2.6210 H   0  0  0  0  0  0  0  0  0  0  0  0
   -2.4860   -3.1170    3.0410 H   0  0  0  0  0  0  0  0  0  0  0  0
   -2.0500   -1.5270    3.6530 H   0  0  0  0  0  0  0  0  0  0  0  0
   -5.3110   -1.8040    2.7660 H   0  0  0  0  0  0  0  0  0  0  0  0
  1  2  2  0
  2  3  1  0
  2 25  1  0
  3  4  1  0
  3 16  2  0
  4  5  1  0
  4 27  1  0
  5 28  1  0
  5  6  2  0
  6 29  1  0
  7  6  1  6
  7  8  1  0
  7 16  1  0
  7 15  1  0
  8 30  1  0
  8  9  2  0
  9 10  1  0
  9 11  1  0
 11 12  1  0
 11 13  1  0
 11 31  1  1
 12 32  1  0
 13 15  2  0
 13 14  1  0
 15 33  1  0
 16 17  1  0
 17 26  1  0
 17 18  2  0
 18 19  1  0
 19 34  1  0
 19 35  1  0
 19 20  1  0
 20 21  1  0
 20 36  1  0
 20 37  1  0
 21 26  1  0
 21 22  2  0
 22 23  1  0
 22 38  1  0
 23 25  1  0
 23 24  1  0
 25 26  2  0
M  END
>  <id>  (22) 
122

>  <scaffolds>  (22) 
[]

>  <name>  (22) 
7,8-dehydro-3-dihydrodiscorhabdin C

>  <formula>  (22) 
C18H13Br2N3O2

>  <SMILES>  (22) 
O=c3c2NC=CC1(C=C(Br)C(O)C(Br)=C1)c2c5=NCCc4c[nH]c3c45

>  <ChEMBL_id>  (22) 


>  <ZINC_id>  (22) 


>  <PubChem_id>  (22) 


>  <DrugBank_id>  (22) 


>  <CAS_no>  (22) 
721395-08-0

>  <references>  (22) 
[{'journal': {'name': 'Thesis, Rhodes University', 'id': 2}, 'title': 'Pyrroloiminoquinone Metabolites From South African Latrunculid Sponges', 'year': 2003, 'start_page': None, 'volume': None, 'issue': None, 'doi': None, 'isbn': None, 'despositor': {'code': 'rah', 'first_name': 'Rowan', 'last_name': 'Hatherley', 'id': 20}, 'refauthors_set': [{'author': {'first_name': 'Edith ', 'initials': 'EM', 'last_name': 'Antunes', 'id': 447}, 'first_author': True, 'id': 605}], 'id': 226}]

>  <classifications>  (22) 
[{'classification': 'Alkaloid', 'id': 738}, {'classification': 'Discorhabdin', 'id': 770}, {'classification': 'Pyrroloiminoquinone', 'id': 820}, {'classification': 'Phenanthrolines (Classyfire)', 'id': 946}]

>  <molecular_mass>  (22) 
463.12

$$$$
SANC00123_minRM1.pdb
     RDKit          3D

 38 42  0  0  1  0  0  0  0  0999 V2000
    2.7460    3.5930    1.6450 O   0  0  0  0  0  0  0  0  0  0  0  0
    2.1610    2.6030    1.2370 C   0  0  0  0  0  0  0  0  0  0  0  0
    0.6620    2.4690    1.2620 C   0  0  0  0  0  0  0  0  0  0  0  0
   -0.0140    3.5820    1.7520 N   0  0  0  0  0  0  0  0  0  0  0  0
   -1.4080    3.5650    1.8620 C   0  0  0  0  0  0  0  0  0  0  0  0
   -2.1390    2.5190    1.4510 C   0  0  0  0  0  0  0  0  0  0  0  0
   -1.5180    1.3060    0.8360 C   0  0  1  0  0  0  0  0  0  0  0  0
   -1.9640    0.1070    1.6270 C   0  0  0  0  0  0  0  0  0  0  0  0
   -2.6590   -0.8730    1.0770 C   0  0  0  0  0  0  0  0  0  0  0  0
   -3.1540   -2.4060    2.1760 Br  0  0  0  0  0  0  0  0  0  0  0  0
   -3.0870   -0.9840   -0.3490 C   0  0  1  0  0  0  0  0  0  0  0  0
   -4.4880   -1.0480   -0.3340 O   0  0  0  0  0  0  0  0  0  0  0  0
   -2.6220    0.2270   -1.0880 C   0  0  0  0  0  0  0  0  0  0  0  0
   -3.1150    0.2060   -2.9770 Br  0  0  0  0  0  0  0  0  0  0  0  0
   -1.9320    1.2480   -0.6130 C   0  0  0  0  0  0  0  0  0  0  0  0
   -0.0170    1.3660    0.8420 C   0  0  0  0  0  0  0  0  0  0  0  0
    0.6820    0.1790    0.3510 C   0  0  0  0  0  0  0  0  0  0  0  0
    0.1080   -0.9360    0.0230 N   0  0  0  0  0  0  0  0  0  0  0  0
    0.9540   -2.0830   -0.3350 C   0  0  0  0  0  0  0  0  0  0  0  0
    2.4180   -1.8740   -0.8060 C   0  0  0  0  0  0  0  0  0  0  0  0
    2.9810   -0.6320   -0.2570 C   0  0  0  0  0  0  0  0  0  0  0  0
    4.2520   -0.0790   -0.1530 C   0  0  0  0  0  0  0  0  0  0  0  0
    5.9120   -0.8230   -0.6510 Br  0  0  0  0  0  0  0  0  0  0  0  0
    4.1720    1.1880    0.4110 N   0  0  0  0  0  0  0  0  0  0  0  0
    4.9470    1.8090    0.5950 H   0  0  0  0  0  0  0  0  0  0  0  0
    2.8320    1.4480    0.6710 C   0  0  0  0  0  0  0  0  0  0  0  0
    2.1090    0.3380    0.2680 C   0  0  0  0  0  0  0  0  0  0  0  0
    0.5010    4.4000    2.0560 H   0  0  0  0  0  0  0  0  0  0  0  0
   -1.8530    4.4640    2.3110 H   0  0  0  0  0  0  0  0  0  0  0  0
   -3.2270    2.5140    1.5500 H   0  0  0  0  0  0  0  0  0  0  0  0
   -1.6670    0.0960    2.6810 H   0  0  0  0  0  0  0  0  0  0  0  0
   -2.6250   -1.9040   -0.8100 H   0  0  0  0  0  0  0  0  0  0  0  0
   -4.7860   -1.0920   -1.2510 H   0  0  0  0  0  0  0  0  0  0  0  0
   -1.6270    2.0960   -1.2330 H   0  0  0  0  0  0  0  0  0  0  0  0
    0.9410   -2.7480    0.5610 H   0  0  0  0  0  0  0  0  0  0  0  0
    0.3840   -2.6320   -1.1190 H   0  0  0  0  0  0  0  0  0  0  0  0
    3.0350   -2.7550   -0.5320 H   0  0  0  0  0  0  0  0  0  0  0  0
    2.4690   -1.8310   -1.9170 H   0  0  0  0  0  0  0  0  0  0  0  0
  1  2  2  0
  2 26  1  0
  2  3  1  0
  3 16  2  0
  3  4  1  0
  4  5  1  0
  4 28  1  0
  5  6  2  0
  5 29  1  0
  6 30  1  0
  7  6  1  1
  7 15  1  0
  7 16  1  0
  7  8  1  0
  8  9  2  0
  8 31  1  0
  9 11  1  0
  9 10  1  0
 11 13  1  0
 11 32  1  6
 11 12  1  0
 12 33  1  0
 13 14  1  0
 13 15  2  0
 15 34  1  0
 16 17  1  0
 17 18  2  0
 17 27  1  0
 18 19  1  0
 19 36  1  0
 19 20  1  0
 19 35  1  0
 20 38  1  0
 20 37  1  0
 20 21  1  0
 21 22  2  0
 21 27  1  0
 22 23  1  0
 22 24  1  0
 24 25  1  0
 24 26  1  0
 26 27  2  0
M  END
>  <id>  (23) 
123

>  <scaffolds>  (23) 
[]

>  <name>  (23) 
14-bromo-7,8-dehydro-3-dihydro-discorhabdin C

>  <formula>  (23) 
C18H12Br3N3O2

>  <SMILES>  (23) 
O=c3c2NC=CC1(C=C(Br)C(O)C(Br)=C1)c2c5=NCCc4c(Br)[nH]c3c45

>  <ChEMBL_id>  (23) 


>  <ZINC_id>  (23) 


>  <PubChem_id>  (23) 


>  <DrugBank_id>  (23) 


>  <CAS_no>  (23) 
721395-37-5

>  <references>  (23) 
[{'journal': {'name': 'Thesis, Rhodes University', 'id': 2}, 'title': 'Pyrroloiminoquinone Metabolites From South African Latrunculid Sponges', 'year': 2003, 'start_page': None, 'volume': None, 'issue': None, 'doi': None, 'isbn': None, 'despositor': {'code': 'rah', 'first_name': 'Rowan', 'last_name': 'Hatherley', 'id': 20}, 'refauthors_set': [{'author': {'first_name': 'Edith ', 'initials': 'EM', 'last_name': 'Antunes', 'id': 447}, 'first_author': True, 'id': 605}], 'id': 226}]

>  <classifications>  (23) 
[{'classification': 'Alkaloid', 'id': 738}, {'classification': 'Discorhabdin', 'id': 770}, {'classification': 'Pyrroloiminoquinone', 'id': 820}, {'classification': 'Phenanthrolines (Classyfire)', 'id': 946}]

>  <molecular_mass>  (23) 
542.02

$$$$
SANC00124_minRM1.pdb
     RDKit          3D

 41 46  0  0  1  0  0  0  0  0999 V2000
   -3.7020    2.3390   -1.0870 O   0  0  0  0  0  0  0  0  0  0  0  0
   -2.9840    1.4730   -0.6200 C   0  0  0  0  0  0  0  0  0  0  0  0
   -1.7000    1.8280    0.0710 C   0  0  0  0  0  0  0  0  0  0  0  0
   -1.4420    3.1780    0.2360 N   0  0  0  0  0  0  0  0  0  0  0  0
   -0.0970    3.5370    0.6530 C   0  0  0  0  0  0  0  0  0  0  0  0
    0.4180    2.6050    1.7530 C   0  0  0  0  0  0  0  0  0  0  0  0
    0.4720    1.1940    1.1860 C   0  0  1  0  0  0  0  0  0  0  0  0
    1.5560    1.0580    0.1560 C   0  0  0  0  0  0  0  0  0  0  0  0
    2.2170   -0.0420   -0.0270 C   0  0  0  0  0  0  0  0  0  0  0  0
    3.5260   -0.0600   -1.3910 Br  0  0  0  0  0  0  0  0  0  0  0  0
    2.0210   -1.3010    0.7620 C   0  0  1  0  0  0  0  0  0  0  0  0
    3.1550   -1.5020    1.6070 O   0  0  0  0  0  0  0  0  0  0  0  0
    0.7640   -1.2380    1.6220 C   0  0  1  0  0  0  0  0  0  0  0  0
    0.6760    0.1440    2.2830 C   0  0  0  0  0  0  0  0  0  0  0  0
   -0.4320   -1.5310    0.8310 N   0  0  0  0  0  0  0  0  0  0  0  0
   -1.1680   -0.5450    0.4140 C   0  0  0  0  0  0  0  0  0  0  0  0
   -0.8560    0.8850    0.5280 C   0  0  0  0  0  0  0  0  0  0  0  0
   -2.4700   -0.8700   -0.1930 C   0  0  0  0  0  0  0  0  0  0  0  0
   -3.0140   -2.1580   -0.2690 C   0  0  0  0  0  0  0  0  0  0  0  0
   -4.1750   -2.0110   -0.9120 C   0  0  0  0  0  0  0  0  0  0  0  0
   -4.3850   -0.6790   -1.1970 N   0  0  0  0  0  0  0  0  0  0  0  0
   -5.1530   -0.3220   -1.6690 H   0  0  0  0  0  0  0  0  0  0  0  0
   -3.3530    0.0600   -0.7140 C   0  0  0  0  0  0  0  0  0  0  0  0
   -2.2360   -3.2730    0.3800 C   0  0  0  0  0  0  0  0  0  0  0  0
   -0.7540   -2.9080    0.4540 C   0  0  0  0  0  0  0  0  0  0  0  0
   -1.7190    3.7010   -0.5820 H   0  0  0  0  0  0  0  0  0  0  0  0
    0.5700    3.4760   -0.2070 H   0  0  0  0  0  0  0  0  0  0  0  0
   -0.1020    4.5600    1.0270 H   0  0  0  0  0  0  0  0  0  0  0  0
    1.4150    2.9160    2.0630 H   0  0  0  0  0  0  0  0  0  0  0  0
   -0.2590    2.6330    2.6070 H   0  0  0  0  0  0  0  0  0  0  0  0
    1.7950    1.9140   -0.4590 H   0  0  0  0  0  0  0  0  0  0  0  0
    1.9370   -2.1420    0.0730 H   0  0  0  0  0  0  0  0  0  0  0  0
    3.9910   -1.5870    1.1300 H   0  0  0  0  0  0  0  0  0  0  0  0
    0.8450   -1.9910    2.4060 H   0  0  0  0  0  0  0  0  0  0  0  0
    1.6000    0.3510    2.8220 H   0  0  0  0  0  0  0  0  0  0  0  0
   -0.1670    0.1660    2.9740 H   0  0  0  0  0  0  0  0  0  0  0  0
   -4.8490   -2.8140   -1.1700 H   0  0  0  0  0  0  0  0  0  0  0  0
   -2.6170   -3.4400    1.3870 H   0  0  0  0  0  0  0  0  0  0  0  0
   -2.3550   -4.1840   -0.2050 H   0  0  0  0  0  0  0  0  0  0  0  0
   -0.3100   -3.1030   -0.5240 H   0  0  0  0  0  0  0  0  0  0  0  0
   -0.2790   -3.5750    1.1730 H   0  0  0  0  0  0  0  0  0  0  0  0
  1  2  2  0
  2 23  1  0
  3  2  1  0
  3  4  1  0
  3 17  1  0
  4 26  1  0
  4  5  1  0
  5 27  1  0
  5 28  1  0
  5  6  1  0
  6  7  1  0
  6 29  1  0
  6 30  1  0
  7  8  1  6
  7 17  1  0
  7 14  1  0
  8 31  1  0
  8  9  2  0
  9 10  1  0
  9 11  1  0
 11 32  1  6
 11 12  1  0
 11 13  1  0
 12 33  1  0
 13 15  1  0
 13 14  1  0
 13 34  1  1
 14 35  1  0
 14 36  1  0
 15 16  1  0
 15 25  1  0
 16 18  1  0
 16 17  2  0
 18 23  2  0
 18 19  1  0
 19 20  2  0
 19 24  1  0
 20 21  1  0
 20 37  1  0
 21 22  1  0
 21 23  1  0
 24 39  1  0
 24 25  1  0
 24 38  1  0
 25 40  1  0
 25 41  1  0
M  END
>  <id>  (24) 
124

>  <scaffolds>  (24) 
['C1=CCCCC1', 'C1=NCCCC1']

>  <name>  (24) 
Discorhabdin V

>  <formula>  (24) 
C18H17BrN3O2

>  <SMILES>  (24) 
O=c4c2NCCC13C=C(Br)C(O)C(C1)[N+]6=c(c23)c5c(c[nH]c45)CC6

>  <ChEMBL_id>  (24) 


>  <ZINC_id>  (24) 


>  <PubChem_id>  (24) 


>  <DrugBank_id>  (24) 


>  <CAS_no>  (24) 
721395-09-1

>  <references>  (24) 
[{'journal': {'name': 'Thesis, Rhodes University', 'id': 2}, 'title': 'Pyrroloiminoquinone Metabolites From South African Latrunculid Sponges', 'year': 2003, 'start_page': None, 'volume': None, 'issue': None, 'doi': None, 'isbn': None, 'despositor': {'code': 'rah', 'first_name': 'Rowan', 'last_name': 'Hatherley', 'id': 20}, 'refauthors_set': [{'author': {'first_name': 'Edith ', 'initials': 'EM', 'last_name': 'Antunes', 'id': 447}, 'first_author': True, 'id': 605}], 'id': 226}]

>  <classifications>  (24) 
[{'classification': 'Alkaloid', 'id': 738}, {'classification': 'Discorhabdin', 'id': 770}, {'classification': 'Pyrroloiminoquinone', 'id': 820}, {'classification': 'Phenanthrolines (Classyfire)', 'id': 946}]

>  <molecular_mass>  (24) 
387.25

$$$$
SANC00125_minRM1.pdb
     RDKit          3D

 42 47  0  0  1  0  0  0  0  0999 V2000
   -1.7740    3.6170   -1.1650 O   0  0  0  0  0  0  0  0  0  0  0  0
   -1.3550    2.6090   -0.6260 C   0  0  0  0  0  0  0  0  0  0  0  0
    0.0610    2.5340   -0.1290 C   0  0  0  0  0  0  0  0  0  0  0  0
    0.8070    3.6950   -0.2190 N   0  0  0  0  0  0  0  0  0  0  0  0
    2.2380    3.5680    0.0030 C   0  0  0  0  0  0  0  0  0  0  0  0
    2.5440    2.6490    1.1890 C   0  0  0  0  0  0  0  0  0  0  0  0
    2.0020    1.2650    0.8620 C   0  0  1  0  0  0  0  0  0  0  0  0
    2.7950    0.6100   -0.2310 C   0  0  0  0  0  0  0  0  0  0  0  0
    2.9800   -0.6730   -0.2920 C   0  0  0  0  0  0  0  0  0  0  0  0
    3.9730   -1.3450   -1.7530 Br  0  0  0  0  0  0  0  0  0  0  0  0
    2.4650   -1.6610    0.7090 C   0  0  1  0  0  0  0  0  0  0  0  0
    3.5650   -2.1780    1.4610 O   0  0  0  0  0  0  0  0  0  0  0  0
    1.4640   -1.0250    1.6670 C   0  0  1  0  0  0  0  0  0  0  0  0
    1.9800    0.3540    2.0940 C   0  0  1  0  0  0  0  0  0  0  0  0
    3.3020    0.2300    2.6230 O   0  0  0  0  0  0  0  0  0  0  0  0
    0.1340   -0.9370    1.0610 N   0  0  0  0  0  0  0  0  0  0  0  0
   -0.2510    0.1960    0.5570 C   0  0  0  0  0  0  0  0  0  0  0  0
    0.5680    1.4040    0.3980 C   0  0  0  0  0  0  0  0  0  0  0  0
   -1.6600    0.3190    0.1440 C   0  0  0  0  0  0  0  0  0  0  0  0
   -2.6360   -0.6630    0.3460 C   0  0  0  0  0  0  0  0  0  0  0  0
   -2.2210   -1.9030    1.0930 C   0  0  0  0  0  0  0  0  0  0  0  0
   -0.7160   -2.1230    0.9550 C   0  0  0  0  0  0  0  0  0  0  0  0
   -3.7520   -0.1640   -0.1960 C   0  0  0  0  0  0  0  0  0  0  0  0
   -5.4170   -1.0590   -0.2780 Br  0  0  0  0  0  0  0  0  0  0  0  0
   -3.5070    1.1000   -0.6870 N   0  0  0  0  0  0  0  0  0  0  0  0
   -4.1590    1.6610   -1.1370 H   0  0  0  0  0  0  0  0  0  0  0  0
   -2.2180    1.4440   -0.4390 C   0  0  0  0  0  0  0  0  0  0  0  0
    0.6180    4.1810   -1.0830 H   0  0  0  0  0  0  0  0  0  0  0  0
    2.7020    3.1590   -0.8930 H   0  0  0  0  0  0  0  0  0  0  0  0
    2.6560    4.5550    0.2000 H   0  0  0  0  0  0  0  0  0  0  0  0
    3.6210    2.5960    1.3450 H   0  0  0  0  0  0  0  0  0  0  0  0
    2.0580    3.0320    2.0870 H   0  0  0  0  0  0  0  0  0  0  0  0
    3.2300    1.2320   -0.9990 H   0  0  0  0  0  0  0  0  0  0  0  0
    1.9780   -2.4820    0.1820 H   0  0  0  0  0  0  0  0  0  0  0  0
    4.2300   -2.6310    0.9240 H   0  0  0  0  0  0  0  0  0  0  0  0
    1.3880   -1.6550    2.5540 H   0  0  0  0  0  0  0  0  0  0  0  0
    1.3180    0.7760    2.8500 H   0  0  0  0  0  0  0  0  0  0  0  0
    3.3640   -0.3480    3.3960 H   0  0  0  0  0  0  0  0  0  0  0  0
   -2.4750   -1.7900    2.1480 H   0  0  0  0  0  0  0  0  0  0  0  0
   -2.7510   -2.7640    0.6870 H   0  0  0  0  0  0  0  0  0  0  0  0
   -0.5310   -2.5870   -0.0140 H   0  0  0  0  0  0  0  0  0  0  0  0
   -0.4070   -2.8300    1.7270 H   0  0  0  0  0  0  0  0  0  0  0  0
  1  2  2  0
  2 27  1  0
  3  2  1  0
  3  4  1  0
  3 18  1  0
  4 28  1  0
  4  5  1  0
  5 29  1  0
  5 30  1  0
  5  6  1  0
  6  7  1  0
  6 31  1  0
  6 32  1  0
  7  8  1  6
  7 18  1  0
  7 14  1  0
  8 33  1  0
  8  9  2  0
  9 10  1  0
  9 11  1  0
 11 34  1  6
 11 12  1  0
 11 13  1  0
 12 35  1  0
 13 16  1  0
 13 14  1  0
 13 36  1  1
 14 15  1  0
 14 37  1  1
 15 38  1  0
 16 17  1  0
 16 22  1  0
 17 19  1  0
 17 18  2  0
 19 27  2  0
 19 20  1  0
 20 23  2  0
 20 21  1  0
 21 40  1  0
 21 22  1  0
 21 39  1  0
 22 41  1  0
 22 42  1  0
 23 25  1  0
 23 24  1  0
 25 26  1  0
 25 27  1  0
M  END
>  <id>  (25) 
125

>  <scaffolds>  (25) 
['C1=CCCCC1', 'C1=NCCCC1']

>  <name>  (25) 
14-bromo-1-hydroxy-discorhabdin V

>  <formula>  (25) 
C18H16Br2N3O3

>  <SMILES>  (25) 
O=c5c2NCCC13C=C(Br)C(O)C(C1O)[N+]4=c(c23)c6c(CC4)c(Br)[nH]c56

>  <ChEMBL_id>  (25) 


>  <ZINC_id>  (25) 


>  <PubChem_id>  (25) 


>  <DrugBank_id>  (25) 


>  <CAS_no>  (25) 
721395-38-6

>  <references>  (25) 
[{'journal': {'name': 'Thesis, Rhodes University', 'id': 2}, 'title': 'Pyrroloiminoquinone Metabolites From South African Latrunculid Sponges', 'year': 2003, 'start_page': None, 'volume': None, 'issue': None, 'doi': None, 'isbn': None, 'despositor': {'code': 'rah', 'first_name': 'Rowan', 'last_name': 'Hatherley', 'id': 20}, 'refauthors_set': [{'author': {'first_name': 'Edith ', 'initials': 'EM', 'last_name': 'Antunes', 'id': 447}, 'first_author': True, 'id': 605}], 'id': 226}]

>  <classifications>  (25) 
[{'classification': 'Alkaloid', 'id': 738}, {'classification': 'Discorhabdin', 'id': 770}, {'classification': 'Pyrroloiminoquinone', 'id': 820}, {'classification': 'Phenanthrolines (Classyfire)', 'id': 946}]

>  <molecular_mass>  (25) 
482.15

$$$$
SANC00126_minRM1.pdb
     RDKit          3D

 42 47  0  0  1  0  0  0  0  0999 V2000
   -3.9680    2.5040   -0.0090 O   0  0  0  0  0  0  0  0  0  0  0  0
   -3.1560    1.5980    0.0180 C   0  0  0  0  0  0  0  0  0  0  0  0
   -1.6820    1.8830   -0.0180 C   0  0  0  0  0  0  0  0  0  0  0  0
   -1.3120    3.2160    0.0240 N   0  0  0  0  0  0  0  0  0  0  0  0
    0.0770    3.5150   -0.2800 C   0  0  0  0  0  0  0  0  0  0  0  0
    1.0270    2.5220    0.3950 C   0  0  0  0  0  0  0  0  0  0  0  0
    0.7230    1.1360   -0.1540 C   0  0  1  0  0  0  0  0  0  0  0  0
    1.1390    1.0110   -1.5910 C   0  0  0  0  0  0  0  0  0  0  0  0
    1.5650   -0.0990   -2.1040 C   0  0  0  0  0  0  0  0  0  0  0  0
    1.7270   -1.3860   -1.3520 C   0  0  1  0  0  0  0  0  0  0  0  0
    3.1210   -1.6600   -1.1950 O   0  0  0  0  0  0  0  0  0  0  0  0
    1.0750   -1.3210    0.0240 C   0  0  1  0  0  0  0  0  0  0  0  0
    1.6340   -2.3540    0.8380 O   0  0  0  0  0  0  0  0  0  0  0  0
    1.3960    0.0330    0.6700 C   0  0  1  0  0  0  0  0  0  0  0  0
    3.3420    0.3140    0.6860 Br  0  0  0  0  0  0  0  0  0  0  0  0
   -0.3720   -1.5310   -0.0660 N   0  0  0  0  0  0  0  0  0  0  0  0
   -1.1580   -0.4990   -0.0350 C   0  0  0  0  0  0  0  0  0  0  0  0
   -0.7700    0.8950   -0.0640 C   0  0  0  0  0  0  0  0  0  0  0  0
   -2.6060   -0.7450    0.0840 C   0  0  0  0  0  0  0  0  0  0  0  0
   -3.1870   -2.0070    0.2610 C   0  0  0  0  0  0  0  0  0  0  0  0
   -4.5040   -1.7850    0.2890 C   0  0  0  0  0  0  0  0  0  0  0  0
   -4.7520   -0.4330    0.1770 N   0  0  0  0  0  0  0  0  0  0  0  0
   -5.6320   -0.0260    0.1630 H   0  0  0  0  0  0  0  0  0  0  0  0
   -3.5900    0.2020    0.0940 C   0  0  0  0  0  0  0  0  0  0  0  0
   -2.2540   -3.1800    0.4060 C   0  0  0  0  0  0  0  0  0  0  0  0
   -0.9160   -2.8750   -0.2640 C   0  0  0  0  0  0  0  0  0  0  0  0
   -1.9340    3.7830   -0.5330 H   0  0  0  0  0  0  0  0  0  0  0  0
    0.2230    3.4700   -1.3590 H   0  0  0  0  0  0  0  0  0  0  0  0
    0.3090    4.5210    0.0680 H   0  0  0  0  0  0  0  0  0  0  0  0
    2.0600    2.7890    0.1710 H   0  0  0  0  0  0  0  0  0  0  0  0
    0.8680    2.5340    1.4740 H   0  0  0  0  0  0  0  0  0  0  0  0
    1.0810    1.8840   -2.2230 H   0  0  0  0  0  0  0  0  0  0  0  0
    1.8230   -0.0990   -3.1530 H   0  0  0  0  0  0  0  0  0  0  0  0
    1.2690   -2.1920   -1.9240 H   0  0  0  0  0  0  0  0  0  0  0  0
    3.6010   -1.7500   -2.0290 H   0  0  0  0  0  0  0  0  0  0  0  0
    1.4980   -3.2460    0.4890 H   0  0  0  0  0  0  0  0  0  0  0  0
    1.0140    0.0520    1.6900 H   0  0  0  0  0  0  0  0  0  0  0  0
   -5.2610   -2.5490    0.3830 H   0  0  0  0  0  0  0  0  0  0  0  0
   -2.0900   -3.3810    1.4650 H   0  0  0  0  0  0  0  0  0  0  0  0
   -2.7010   -4.0570   -0.0610 H   0  0  0  0  0  0  0  0  0  0  0  0
   -1.0300   -3.0380   -1.3350 H   0  0  0  0  0  0  0  0  0  0  0  0
   -0.1830   -3.5930    0.1050 H   0  0  0  0  0  0  0  0  0  0  0  0
  1  2  2  0
  2 24  1  0
  3  2  1  0
  3 18  1  0
  3  4  1  0
  4 27  1  0
  4  5  1  0
  5 28  1  0
  5 29  1  0
  5  6  1  0
  6  7  1  0
  6 30  1  0
  6 31  1  0
  7  8  1  6
  7 18  1  0
  7 14  1  0
  8 32  1  0
  8  9  2  0
  9 33  1  0
  9 10  1  0
 10 34  1  6
 10 11  1  0
 10 12  1  0
 11 35  1  0
 12 16  1  0
 12 14  1  0
 12 13  1  1
 13 36  1  0
 14 15  1  0
 14 37  1  1
 16 26  1  0
 16 17  1  0
 17 18  2  0
 17 19  1  0
 19 24  2  0
 19 20  1  0
 20 21  2  0
 20 25  1  0
 21 22  1  0
 21 38  1  0
 22 24  1  0
 22 23  1  0
 25 26  1  0
 25 40  1  0
 25 39  1  0
 26 41  1  0
 26 42  1  0
M  END
>  <id>  (26) 
126

>  <scaffolds>  (26) 
['C1=CCCCC1', 'C1=NCCCC1']

>  <name>  (26) 
1-Bromo-4-debromo-2-hydroxy-discorhabdin V

>  <formula>  (26) 
C18H18N3O3Br

>  <SMILES>  (26) 
O=c4c2NCCC13C=CC(O)C(O)(C1Br)[N+]6=c(c23)c5c(c[nH]c45)CC6

>  <ChEMBL_id>  (26) 


>  <ZINC_id>  (26) 


>  <PubChem_id>  (26) 


>  <DrugBank_id>  (26) 


>  <CAS_no>  (26) 


>  <references>  (26) 
[{'journal': {'name': 'Thesis, Rhodes University', 'id': 2}, 'title': 'Pyrroloiminoquinone Metabolites From South African Latrunculid Sponges', 'year': 2003, 'start_page': None, 'volume': None, 'issue': None, 'doi': None, 'isbn': None, 'despositor': {'code': 'rah', 'first_name': 'Rowan', 'last_name': 'Hatherley', 'id': 20}, 'refauthors_set': [{'author': {'first_name': 'Edith ', 'initials': 'EM', 'last_name': 'Antunes', 'id': 447}, 'first_author': True, 'id': 605}], 'id': 226}]

>  <classifications>  (26) 
[{'classification': 'Alkaloid', 'id': 738}, {'classification': 'Discorhabdin', 'id': 770}, {'classification': 'Pyrroloiminoquinone', 'id': 820}, {'classification': 'Phenanthrolines (Classyfire)', 'id': 946}]

>  <molecular_mass>  (26) 
404.26

$$$$
SANC00127_minRM1.pdb
     RDKit          3D

 41 45  0  0  1  0  0  0  0  0999 V2000
   -2.6160    2.8990   -0.0670 O   0  0  0  0  0  0  0  0  0  0  0  0
   -2.0470    1.8230   -0.0400 C   0  0  0  0  0  0  0  0  0  0  0  0
   -0.5560    1.7720   -0.1010 C   0  0  0  0  0  0  0  0  0  0  0  0
    0.0870    3.0000   -0.1440 N   0  0  0  0  0  0  0  0  0  0  0  0
    1.4880    2.9450    0.2730 C   0  0  0  0  0  0  0  0  0  0  0  0
    2.1980    1.8720   -0.5640 C   0  0  0  0  0  0  0  0  0  0  0  0
    1.6190    0.5130   -0.1590 C   0  0  1  0  0  0  0  0  0  0  0  0
    2.0320   -0.5200   -1.1670 C   0  0  0  0  0  0  0  0  0  0  0  0
    3.0100   -1.3490   -0.9670 C   0  0  0  0  0  0  0  0  0  0  0  0
    3.8260   -1.3600    0.2900 C   0  0  1  0  0  0  0  0  0  0  0  0
    5.0630   -0.6840    0.0530 O   0  0  0  0  0  0  0  0  0  0  0  0
    3.0980   -0.6770    1.4080 C   0  0  0  0  0  0  0  0  0  0  0  0
    2.1200    0.1520    1.2100 C   0  0  0  0  0  0  0  0  0  0  0  0
    0.1100    0.5950   -0.1240 C   0  0  0  0  0  0  0  0  0  0  0  0
   -0.6460   -0.6590   -0.1340 C   0  0  0  0  0  0  0  0  0  0  0  0
   -0.1850   -1.8670   -0.2470 N   0  0  0  0  0  0  0  0  0  0  0  0
    0.7730   -2.0040   -0.1790 H   0  0  0  0  0  0  0  0  0  0  0  0
   -1.0380   -3.0300   -0.4690 C   0  0  0  0  0  0  0  0  0  0  0  0
   -2.3810   -3.0430    0.2590 C   0  0  0  0  0  0  0  0  0  0  0  0
   -2.9990   -1.6720    0.1920 C   0  0  0  0  0  0  0  0  0  0  0  0
   -4.2220   -1.1470    0.2580 C   0  0  0  0  0  0  0  0  0  0  0  0
   -4.1390    0.2200    0.1770 N   0  0  0  0  0  0  0  0  0  0  0  0
   -4.8920    0.8300    0.2040 H   0  0  0  0  0  0  0  0  0  0  0  0
   -2.8240    0.5910    0.0580 C   0  0  0  0  0  0  0  0  0  0  0  0
   -2.1160   -0.5800    0.0260 C   0  0  0  0  0  0  0  0  0  0  0  0
   -0.0020    3.4230   -1.0550 H   0  0  0  0  0  0  0  0  0  0  0  0
    1.9590    3.9130    0.1080 H   0  0  0  0  0  0  0  0  0  0  0  0
    1.5460    2.6830    1.3300 H   0  0  0  0  0  0  0  0  0  0  0  0
    2.0170    2.0520   -1.6250 H   0  0  0  0  0  0  0  0  0  0  0  0
    3.2680    1.8940   -0.3630 H   0  0  0  0  0  0  0  0  0  0  0  0
    1.4910   -0.5770   -2.0990 H   0  0  0  0  0  0  0  0  0  0  0  0
    3.2470   -2.0630   -1.7420 H   0  0  0  0  0  0  0  0  0  0  0  0
    4.0310   -2.3910    0.5740 H   0  0  0  0  0  0  0  0  0  0  0  0
    5.6470   -0.6500    0.8230 H   0  0  0  0  0  0  0  0  0  0  0  0
    3.4010   -0.8840    2.4240 H   0  0  0  0  0  0  0  0  0  0  0  0
    1.6460    0.6040    2.0690 H   0  0  0  0  0  0  0  0  0  0  0  0
   -1.2320   -3.1050   -1.5390 H   0  0  0  0  0  0  0  0  0  0  0  0
   -0.4820   -3.9170   -0.1680 H   0  0  0  0  0  0  0  0  0  0  0  0
   -3.0450   -3.7650   -0.2170 H   0  0  0  0  0  0  0  0  0  0  0  0
   -2.2270   -3.3220    1.3020 H   0  0  0  0  0  0  0  0  0  0  0  0
   -5.1370   -1.7110    0.3600 H   0  0  0  0  0  0  0  0  0  0  0  0
  1  2  2  0
  2 24  1  0
  3  2  1  0
  3  4  1  0
  3 14  1  0
  4 26  1  0
  4  5  1  0
  5  6  1  0
  5 27  1  0
  5 28  1  0
  6 29  1  0
  6 30  1  0
  6  7  1  0
  7  8  1  6
  7 14  1  0
  7 13  1  0
  8 31  1  0
  8  9  2  0
  9 32  1  0
  9 10  1  0
 10 11  1  0
 10 33  1  1
 10 12  1  0
 11 34  1  0
 12 13  2  0
 12 35  1  0
 13 36  1  0
 14 15  2  0
 15 16  1  0
 15 25  1  0
 16 18  1  0
 16 17  1  0
 18 37  1  0
 18 38  1  0
 18 19  1  0
 19 39  1  0
 19 20  1  0
 19 40  1  0
 20 25  1  0
 20 21  2  0
 21 22  1  0
 21 41  1  0
 22 24  1  0
 22 23  1  0
 24 25  2  0
M  END
>  <id>  (27) 
127

>  <scaffolds>  (27) 
[]

>  <name>  (27) 
2,4-Debromo-3-dihydro-discorhabdin C

>  <formula>  (27) 
C18H18N3O2

>  <SMILES>  (27) 
O=c3c2NCCC1(C=CC(O)C=C1)c2c5=[NH+]CCc4c[nH]c3c45

>  <ChEMBL_id>  (27) 


>  <ZINC_id>  (27) 


>  <PubChem_id>  (27) 


>  <DrugBank_id>  (27) 


>  <CAS_no>  (27) 


>  <references>  (27) 
[{'journal': {'name': 'Thesis, Rhodes University', 'id': 2}, 'title': 'Pyrroloiminoquinone Metabolites From South African Latrunculid Sponges', 'year': 2003, 'start_page': None, 'volume': None, 'issue': None, 'doi': None, 'isbn': None, 'despositor': {'code': 'rah', 'first_name': 'Rowan', 'last_name': 'Hatherley', 'id': 20}, 'refauthors_set': [{'author': {'first_name': 'Edith ', 'initials': 'EM', 'last_name': 'Antunes', 'id': 447}, 'first_author': True, 'id': 605}], 'id': 226}]

>  <classifications>  (27) 
[{'classification': 'Alkaloid', 'id': 738}, {'classification': 'Discorhabdin', 'id': 770}, {'classification': 'Pyrroloiminoquinone', 'id': 820}, {'classification': 'Phenanthrolines (Classyfire)', 'id': 946}]

>  <molecular_mass>  (27) 
308.35

$$$$
SANC00128_minRM1.pdb
     RDKit          3D

 26 28  0  0  0  0  0  0  0  0999 V2000
   -2.0420   -2.7950    0.1490 C   0  0  0  0  0  0  0  0  0  0  0  0
   -1.7810   -1.3540    0.0870 N   0  0  0  0  0  0  0  0  0  0  0  0
   -2.8940   -0.4310    0.4470 C   0  0  0  0  0  0  0  0  0  0  0  0
   -2.7640    0.9950   -0.1340 C   0  0  0  0  0  0  0  0  0  0  0  0
   -1.3780    1.4710   -0.0310 C   0  0  0  0  0  0  0  0  0  0  0  0
   -0.7350    2.7030   -0.0650 C   0  0  0  0  0  0  0  0  0  0  0  0
    0.6650    2.5490   -0.0340 N   0  0  0  0  0  0  0  0  0  0  0  0
    0.8830    1.2120    0.0110 C   0  0  0  0  0  0  0  0  0  0  0  0
    2.1180    0.4640    0.0230 C   0  0  0  0  0  0  0  0  0  0  0  0
    3.2440    0.9220    0.0540 O   0  0  0  0  0  0  0  0  0  0  0  0
    1.9220   -1.0570   -0.0140 C   0  0  0  0  0  0  0  0  0  0  0  0
    3.0620   -1.7950   -0.0650 N   0  0  0  0  0  0  0  0  0  0  0  0
    0.6900   -1.6710    0.0090 C   0  0  0  0  0  0  0  0  0  0  0  0
   -0.5010   -0.8740    0.0510 C   0  0  0  0  0  0  0  0  0  0  0  0
   -0.3490    0.4980    0.0290 C   0  0  0  0  0  0  0  0  0  0  0  0
   -1.6530   -3.2590    1.0750 H   0  0  0  0  0  0  0  0  0  0  0  0
   -3.1220   -3.0210    0.1080 H   0  0  0  0  0  0  0  0  0  0  0  0
   -1.5830   -3.3190   -0.7080 H   0  0  0  0  0  0  0  0  0  0  0  0
   -3.8570   -0.8760    0.1060 H   0  0  0  0  0  0  0  0  0  0  0  0
   -2.9590   -0.3780    1.5600 H   0  0  0  0  0  0  0  0  0  0  0  0
   -3.0790    1.0170   -1.2000 H   0  0  0  0  0  0  0  0  0  0  0  0
   -3.4760    1.6670    0.3900 H   0  0  0  0  0  0  0  0  0  0  0  0
   -1.1710    3.6950   -0.1100 H   0  0  0  0  0  0  0  0  0  0  0  0
    3.9720   -1.3660   -0.0670 H   0  0  0  0  0  0  0  0  0  0  0  0
    3.0350   -2.7980   -0.1000 H   0  0  0  0  0  0  0  0  0  0  0  0
    0.6110   -2.7600   -0.0010 H   0  0  0  0  0  0  0  0  0  0  0  0
  1 18  1  0
  1  2  1  0
  1 17  1  0
  1 16  1  0
  2 14  1  0
  2  3  1  0
  3  4  1  0
  3 19  1  0
  3 20  1  0
  4 21  1  0
  4  5  1  0
  4 22  1  0
  5  6  2  0
  5 15  1  0
  6 23  1  0
  6  7  1  0
  7  8  2  0
  8  9  1  0
  8 15  1  0
  9 11  1  0
  9 10  2  0
 11 12  1  0
 11 13  2  0
 12 25  1  0
 12 24  1  0
 13 26  1  0
 13 14  1  0
 14 15  2  0
M  END
>  <id>  (28) 
128

>  <scaffolds>  (28) 
[]

>  <name>  (28) 
Makaluvamine C

>  <formula>  (28) 
C11H12N3O

>  <SMILES>  (28) 
CN1CCc2cnc3c(=O)c(N)cc1c23

>  <ChEMBL_id>  (28) 


>  <ZINC_id>  (28) 


>  <PubChem_id>  (28) 


>  <DrugBank_id>  (28) 


>  <CAS_no>  (28) 
146555-80-8

>  <references>  (28) 
[{'journal': {'name': 'Thesis, Rhodes University', 'id': 2}, 'title': 'Pyrroloiminoquinone Metabolites From South African Latrunculid Sponges', 'year': 2003, 'start_page': None, 'volume': None, 'issue': None, 'doi': None, 'isbn': None, 'despositor': {'code': 'rah', 'first_name': 'Rowan', 'last_name': 'Hatherley', 'id': 20}, 'refauthors_set': [{'author': {'first_name': 'Edith ', 'initials': 'EM', 'last_name': 'Antunes', 'id': 447}, 'first_author': True, 'id': 605}], 'id': 226}]

>  <classifications>  (28) 
[{'classification': 'Alkaloid', 'id': 738}, {'classification': 'Makaluvamine', 'id': 793}, {'classification': 'Pyrroloiminoquinone', 'id': 820}, {'classification': 'Indoles and derivatives (Classyfire)', 'id': 947}]

>  <molecular_mass>  (28) 
202.23

$$$$
SANC00129_minRM1.pdb
     RDKit          3D

 25 27  0  0  0  0  0  0  0  0999 V2000
   -2.3350   -2.5940   -0.1610 C   0  0  0  0  0  0  0  0  0  0  0  0
   -1.9490   -1.1800   -0.2750 N   0  0  0  0  0  0  0  0  0  0  0  0
   -2.9100   -0.2100    0.3190 C   0  0  0  0  0  0  0  0  0  0  0  0
   -2.6820    1.2370   -0.1710 C   0  0  0  0  0  0  0  0  0  0  0  0
   -1.2570    1.5750   -0.0440 C   0  0  0  0  0  0  0  0  0  0  0  0
   -0.5410    2.7660    0.0480 C   0  0  0  0  0  0  0  0  0  0  0  0
    0.8200    2.4530    0.0970 N   0  0  0  0  0  0  0  0  0  0  0  0
    1.5850    3.1100    0.1700 H   0  0  0  0  0  0  0  0  0  0  0  0
    0.9600    1.0780    0.0300 C   0  0  0  0  0  0  0  0  0  0  0  0
    2.1460    0.2340    0.0120 C   0  0  0  0  0  0  0  0  0  0  0  0
    3.2800    0.6670    0.0830 O   0  0  0  0  0  0  0  0  0  0  0  0
    1.8420   -1.2610   -0.1080 C   0  0  0  0  0  0  0  0  0  0  0  0
    2.7910   -2.0250   -0.1340 O   0  0  0  0  0  0  0  0  0  0  0  0
    0.4630   -1.7360   -0.1620 C   0  0  0  0  0  0  0  0  0  0  0  0
   -0.5890   -0.8760   -0.1410 C   0  0  0  0  0  0  0  0  0  0  0  0
   -0.3120    0.5310   -0.0510 C   0  0  0  0  0  0  0  0  0  0  0  0
   -2.0960   -3.0550    0.8130 H   0  0  0  0  0  0  0  0  0  0  0  0
   -3.4190   -2.7270   -0.3280 H   0  0  0  0  0  0  0  0  0  0  0  0
   -1.8320   -3.1920   -0.9460 H   0  0  0  0  0  0  0  0  0  0  0  0
   -3.9440   -0.5230    0.0490 H   0  0  0  0  0  0  0  0  0  0  0  0
   -2.8720   -0.2390    1.4340 H   0  0  0  0  0  0  0  0  0  0  0  0
   -2.9990    1.3500   -1.2290 H   0  0  0  0  0  0  0  0  0  0  0  0
   -3.3280    1.9320    0.4040 H   0  0  0  0  0  0  0  0  0  0  0  0
   -0.8990    3.7910    0.0820 H   0  0  0  0  0  0  0  0  0  0  0  0
    0.3480   -2.8210   -0.2220 H   0  0  0  0  0  0  0  0  0  0  0  0
  1 19  1  0
  1 18  1  0
  1  2  1  0
  1 17  1  0
  2 15  1  0
  2  3  1  0
  3  4  1  0
  3 20  1  0
  3 21  1  0
  4 22  1  0
  4  5  1  0
  4 23  1  0
  5 16  1  0
  5  6  2  0
  6 24  1  0
  6  7  1  0
  7  9  1  0
  7  8  1  0
  9 16  2  0
  9 10  1  0
 10 12  1  0
 10 11  2  0
 12 14  1  0
 12 13  2  0
 14 25  1  0
 14 15  2  0
 15 16  1  0
M  END
>  <id>  (29) 
129

>  <scaffolds>  (29) 
[]

>  <name>  (29) 
Damirone B

>  <formula>  (29) 
C11H10N2O2

>  <SMILES>  (29) 
CN1CCc2c[nH]c3c(=O)c(=O)cc1c23

>  <ChEMBL_id>  (29) 


>  <ZINC_id>  (29) 


>  <PubChem_id>  (29) 


>  <DrugBank_id>  (29) 


>  <CAS_no>  (29) 
138683-67-7

>  <references>  (29) 
[{'journal': {'name': 'Thesis, Rhodes University', 'id': 2}, 'title': 'Pyrroloiminoquinone Metabolites From South African Latrunculid Sponges', 'year': 2003, 'start_page': None, 'volume': None, 'issue': None, 'doi': None, 'isbn': None, 'despositor': {'code': 'rah', 'first_name': 'Rowan', 'last_name': 'Hatherley', 'id': 20}, 'refauthors_set': [{'author': {'first_name': 'Edith ', 'initials': 'EM', 'last_name': 'Antunes', 'id': 447}, 'first_author': True, 'id': 605}], 'id': 226}]

>  <classifications>  (29) 
[{'classification': 'Alkaloid', 'id': 738}, {'classification': 'Damirone', 'id': 767}, {'classification': 'Pyrroloiminoquinone', 'id': 820}, {'classification': 'Quinolines and derivatives (Classyfire)', 'id': 948}]

>  <molecular_mass>  (29) 
202.21

$$$$
SANC00130_minRM1.pdb
     RDKit          3D

 24 25  0  0  0  0  0  0  0  0999 V2000
   -3.2340   -1.7250    0.1030 C   0  0  0  0  0  0  0  0  0  0  0  0
   -2.2550   -0.6330    0.1110 N   0  0  0  0  0  0  0  0  0  0  0  0
   -2.7120    0.6480   -0.4530 C   0  0  0  0  0  0  0  0  0  0  0  0
   -1.9840    1.8350    0.2040 C   0  0  0  0  0  0  0  0  0  0  0  0
   -0.5360    1.5880    0.1280 C   0  0  0  0  0  0  0  0  0  0  0  0
    0.5360    2.4710    0.0770 C   0  0  0  0  0  0  0  0  0  0  0  0
    1.6980    1.7160   -0.0120 N   0  0  0  0  0  0  0  0  0  0  0  0
    2.6410    2.0800   -0.0540 H   0  0  0  0  0  0  0  0  0  0  0  0
    1.3660    0.3640   -0.0190 C   0  0  0  0  0  0  0  0  0  0  0  0
    2.3500   -0.6990   -0.1730 C   0  0  0  0  0  0  0  0  0  0  0  0
    2.1600   -1.8620   -0.4700 O   0  0  0  0  0  0  0  0  0  0  0  0
    3.6220   -0.2610    0.0210 O   0  0  0  0  0  0  0  0  0  0  0  0
   -0.0190    0.2690    0.0870 C   0  0  0  0  0  0  0  0  0  0  0  0
   -0.8800   -0.9060    0.2170 C   0  0  0  0  0  0  0  0  0  0  0  0
   -0.4670   -2.0260    0.4910 O   0  0  0  0  0  0  0  0  0  0  0  0
   -2.8270   -2.6590    0.5290 H   0  0  0  0  0  0  0  0  0  0  0  0
   -4.1160   -1.4580    0.7170 H   0  0  0  0  0  0  0  0  0  0  0  0
   -3.6000   -1.9650   -0.9140 H   0  0  0  0  0  0  0  0  0  0  0  0
   -2.5610    0.6750   -1.5600 H   0  0  0  0  0  0  0  0  0  0  0  0
   -3.8130    0.7540   -0.3110 H   0  0  0  0  0  0  0  0  0  0  0  0
   -2.2670    2.7830   -0.2980 H   0  0  0  0  0  0  0  0  0  0  0  0
   -2.2970    1.9620    1.2630 H   0  0  0  0  0  0  0  0  0  0  0  0
    0.5400    3.5580    0.0980 H   0  0  0  0  0  0  0  0  0  0  0  0
    4.2570   -0.9830   -0.0790 H   0  0  0  0  0  0  0  0  0  0  0  0
  1 18  1  0
  1  2  1  0
  1 16  1  0
  1 17  1  0
  2  3  1  0
  2 14  1  0
  3 19  1  0
  3 20  1  0
  3  4  1  0
  4 21  1  0
  4  5  1  0
  4 22  1  0
  5  6  2  0
  5 13  1  0
  6  7  1  0
  6 23  1  0
  7  8  1  0
  7  9  1  0
  9 10  1  0
  9 13  2  0
 10 11  2  0
 10 12  1  0
 12 24  1  0
 13 14  1  0
 14 15  2  0
M  END
>  <id>  (30) 
130

>  <scaffolds>  (30) 
[]

>  <name>  (30) 
Makaluvic acid A

>  <formula>  (30) 
C9H10N2O3

>  <SMILES>  (30) 
CN2CCc1c[nH]c(C(=O)O)c1C2=O

>  <ChEMBL_id>  (30) 


>  <ZINC_id>  (30) 


>  <PubChem_id>  (30) 


>  <DrugBank_id>  (30) 


>  <CAS_no>  (30) 
184023-18-5

>  <references>  (30) 
[{'journal': {'name': 'Thesis, Rhodes University', 'id': 2}, 'title': 'Pyrroloiminoquinone Metabolites From South African Latrunculid Sponges', 'year': 2003, 'start_page': None, 'volume': None, 'issue': None, 'doi': None, 'isbn': None, 'despositor': {'code': 'rah', 'first_name': 'Rowan', 'last_name': 'Hatherley', 'id': 20}, 'refauthors_set': [{'author': {'first_name': 'Edith ', 'initials': 'EM', 'last_name': 'Antunes', 'id': 447}, 'first_author': True, 'id': 605}], 'id': 226}]

>  <classifications>  (30) 
[{'classification': 'Alkaloid', 'id': 738}, {'classification': 'Makaluvamine', 'id': 793}, {'classification': 'Pyrroloiminoquinone', 'id': 820}, {'classification': 'Pyrrolopyridines (Classyfire)', 'id': 949}]

>  <molecular_mass>  (30) 
194.19

$$$$
SANC00131_minRM1.pdb
     RDKit          3D

 37 42  0  0  1  0  0  0  0  0999 V2000
   -2.9520    2.9830    1.1480 O   0  0  0  0  0  0  0  0  0  0  0  0
   -2.7680    1.9480    0.5330 C   0  0  0  0  0  0  0  0  0  0  0  0
   -2.5310    1.9260   -0.9230 C   0  0  0  0  0  0  0  0  0  0  0  0
   -1.9410    0.8830   -1.5060 C   0  0  0  0  0  0  0  0  0  0  0  0
   -1.5420   -0.3320   -0.7340 C   0  0  1  0  0  0  0  0  0  0  0  0
   -1.9610   -1.6120   -1.4870 C   0  0  0  0  0  0  0  0  0  0  0  0
   -1.6510   -2.7150   -0.4700 C   0  0  1  0  0  0  0  0  0  0  0  0
   -0.2240   -2.8140   -0.3100 N   0  0  0  0  0  0  0  0  0  0  0  0
    0.5150   -1.6330   -0.2390 C   0  0  0  0  0  0  0  0  0  0  0  0
   -0.0610   -0.4120   -0.4600 C   0  0  0  0  0  0  0  0  0  0  0  0
    0.7390    0.8120   -0.3980 C   0  0  0  0  0  0  0  0  0  0  0  0
    0.3140    2.0030   -0.6870 N   0  0  0  0  0  0  0  0  0  0  0  0
    1.2480    3.1340   -0.6290 C   0  0  0  0  0  0  0  0  0  0  0  0
    2.5750    3.0280    0.1620 C   0  0  0  0  0  0  0  0  0  0  0  0
    3.0260    1.6320    0.2560 C   0  0  0  0  0  0  0  0  0  0  0  0
    4.2280    1.0130    0.6100 C   0  0  0  0  0  0  0  0  0  0  0  0
    4.0320   -0.3680    0.5830 N   0  0  0  0  0  0  0  0  0  0  0  0
    4.7200   -1.0760    0.7930 H   0  0  0  0  0  0  0  0  0  0  0  0
    2.7160   -0.6200    0.2220 C   0  0  0  0  0  0  0  0  0  0  0  0
    1.9730   -1.8500    0.0720 C   0  0  0  0  0  0  0  0  0  0  0  0
    2.4680   -2.9580    0.1980 O   0  0  0  0  0  0  0  0  0  0  0  0
    2.1020    0.6020    0.0150 C   0  0  0  0  0  0  0  0  0  0  0  0
   -2.4270   -2.0740    1.1050 S   0  0  0  0  0  0  0  0  0  0  0  0
   -2.2730   -0.4190    0.5780 C   0  0  0  0  0  0  0  0  0  0  0  0
   -2.8110    0.6270    1.1940 C   0  0  0  0  0  0  0  0  0  0  0  0
   -2.8240    2.8200   -1.4820 H   0  0  0  0  0  0  0  0  0  0  0  0
   -1.7070    0.8710   -2.5750 H   0  0  0  0  0  0  0  0  0  0  0  0
   -3.0330   -1.5990   -1.7680 H   0  0  0  0  0  0  0  0  0  0  0  0
   -1.4140   -1.7430   -2.4410 H   0  0  0  0  0  0  0  0  0  0  0  0
   -2.1120   -3.7020   -0.6950 H   0  0  0  0  0  0  0  0  0  0  0  0
    0.1720   -3.6820    0.0370 H   0  0  0  0  0  0  0  0  0  0  0  0
    1.4600    3.3970   -1.6920 H   0  0  0  0  0  0  0  0  0  0  0  0
    0.6430    3.9810   -0.2320 H   0  0  0  0  0  0  0  0  0  0  0  0
    3.3470    3.6740   -0.3040 H   0  0  0  0  0  0  0  0  0  0  0  0
    2.4490    3.4370    1.1880 H   0  0  0  0  0  0  0  0  0  0  0  0
    5.1850    1.4580    0.8700 H   0  0  0  0  0  0  0  0  0  0  0  0
   -3.3170    0.5620    2.1610 H   0  0  0  0  0  0  0  0  0  0  0  0
  1  2  2  0
  2  3  1  0
  2 25  1  0
  3  4  2  0
  3 26  1  0
  4 27  1  0
  5  4  1  6
  5  6  1  0
  5 10  1  0
  5 24  1  0
  6 29  1  0
  6 28  1  0
  6  7  1  0
  7 30  1  6
  7  8  1  0
  7 23  1  0
  8  9  1  0
  8 31  1  0
  9 10  2  0
  9 20  1  0
 10 11  1  0
 11 12  2  0
 11 22  1  0
 12 13  1  0
 13 32  1  0
 13 33  1  0
 13 14  1  0
 14 34  1  0
 14 15  1  0
 14 35  1  0
 15 22  1  0
 15 16  2  0
 16 17  1  0
 16 36  1  0
 17 19  1  0
 17 18  1  0
 19 22  2  0
 19 20  1  0
 20 21  2  0
 23 24  1  0
 24 25  2  0
 25 37  1  0
M  END
>  <id>  (31) 
131

>  <scaffolds>  (31) 
[]

>  <name>  (31) 
11H-8,13a-Methanopyrrolo[4',3',2':4,5]quino[7,8-d][1,3]benzothiazepine-6,11(2H)-dione, 3,5,7,8-tetrahydro-, (8R,13aR)-

>  <formula>  (31) 
C18H13N3O2S

>  <SMILES>  (31) 
O=C6C=CC15CC(Nc2c1c4=NCCc3c[nH]c(c2=O)c34)SC5=C6

>  <ChEMBL_id>  (31) 


>  <ZINC_id>  (31) 


>  <PubChem_id>  (31) 


>  <DrugBank_id>  (31) 


>  <CAS_no>  (31) 
1082581-79-0

>  <references>  (31) 
[{'journal': {'name': 'Thesis, Rhodes University', 'id': 2}, 'title': 'Pyrroloiminoquinone Metabolites From South African Latrunculid Sponges', 'year': 2003, 'start_page': None, 'volume': None, 'issue': None, 'doi': None, 'isbn': None, 'despositor': {'code': 'rah', 'first_name': 'Rowan', 'last_name': 'Hatherley', 'id': 20}, 'refauthors_set': [{'author': {'first_name': 'Edith ', 'initials': 'EM', 'last_name': 'Antunes', 'id': 447}, 'first_author': True, 'id': 605}], 'id': 226}]

>  <classifications>  (31) 
[{'classification': 'Alkaloid', 'id': 738}, {'classification': 'Pyrroloiminoquinone', 'id': 820}, {'classification': 'Phenanthrolines (Classyfire)', 'id': 946}]

>  <molecular_mass>  (31) 
335.38

$$$$
SANC00132_minRM1.pdb
     RDKit          3D

 46 52  0  0  1  0  0  0  0  0999 V2000
    3.4350    1.4030    2.4120 O   0  0  0  0  0  0  0  0  0  0  0  0
    0.8570   -0.6830   -3.8770 O   0  0  0  0  0  0  0  0  0  0  0  0
   -3.4810    0.2920    2.4450 O   0  0  0  0  0  0  0  0  0  0  0  0
    5.4900    1.2530    1.6130 O   0  0  0  0  0  0  0  0  0  0  0  0
   -0.0990   -2.0660   -2.3660 C   0  0  0  0  0  0  0  0  0  0  0  0
   -2.6210    3.6790   -0.2060 C   0  0  0  0  0  0  0  0  0  0  0  0
    3.6390    0.0900    0.4660 C   0  0  0  0  0  0  0  0  0  0  0  0
   -0.6840    3.2320   -1.9620 C   0  0  0  0  0  0  0  0  0  0  0  0
    0.5700    2.3760   -1.8170 C   0  0  0  0  0  0  0  0  0  0  0  0
    0.4710   -2.4320    1.3000 C   0  0  0  0  0  0  0  0  0  0  0  0
    2.1890   -0.0750    0.6400 N   0  0  0  0  0  0  0  0  0  0  0  0
   -1.8580   -1.9270    1.7810 N   0  0  0  0  0  0  0  0  0  0  0  0
   -3.1740    2.8920    0.7820 N   0  0  0  0  0  0  0  0  0  0  0  0
   -1.3090   -3.5210   -0.3140 S   0  0  0  0  0  0  0  0  0  0  0  0
    4.1800    0.9640    1.5680 C   0  0  0  0  0  0  0  0  0  0  0  0
    0.6830   -0.9460   -2.7030 C   0  0  0  0  0  0  0  0  0  0  0  0
   -0.3120   -2.3460   -1.0620 C   0  0  0  0  0  0  0  0  0  0  0  0
   -1.6250    3.0220   -0.8070 C   0  0  0  0  0  0  0  0  0  0  0  0
   -1.6980   -0.6650    1.2190 C   0  0  0  0  0  0  0  0  0  0  0  0
   -0.6810   -0.4650    0.3550 C   0  0  0  0  0  0  0  0  0  0  0  0
   -2.6430    0.4370    1.5740 C   0  0  0  0  0  0  0  0  0  0  0  0
   -0.5080    0.7810   -0.3860 C   0  0  0  0  0  0  0  0  0  0  0  0
   -2.5260    1.7010    0.8350 C   0  0  0  0  0  0  0  0  0  0  0  0
   -1.5280    1.8090   -0.1170 C   0  0  0  0  0  0  0  0  0  0  0  0
   -0.9610   -3.0400    1.4190 C   0  0  1  0  0  0  0  0  0  0  0  0
    1.6250   -0.9230   -0.4190 C   0  0  2  0  0  0  0  0  0  0  0  0
    1.3090   -0.0650   -1.6590 C   0  0  2  0  0  0  0  0  0  0  0  0
    0.4120    1.0320   -1.2680 N   0  0  0  0  0  0  0  0  0  0  0  0
    0.3310   -1.5530    0.0640 C   0  0  1  0  0  0  0  0  0  0  0  0
    5.7910    1.8180    2.3380 H   0  0  0  0  0  0  0  0  0  0  0  0
   -0.5270   -2.6900   -3.1370 H   0  0  0  0  0  0  0  0  0  0  0  0
   -2.9460    4.6780   -0.4550 H   0  0  0  0  0  0  0  0  0  0  0  0
    4.1230   -0.8850    0.5050 H   0  0  0  0  0  0  0  0  0  0  0  0
    3.8380    0.5570   -0.4980 H   0  0  0  0  0  0  0  0  0  0  0  0
   -0.3960    4.2830   -2.0030 H   0  0  0  0  0  0  0  0  0  0  0  0
   -1.1930    2.9660   -2.8890 H   0  0  0  0  0  0  0  0  0  0  0  0
    1.0260    2.2820   -2.8030 H   0  0  0  0  0  0  0  0  0  0  0  0
    1.2710    2.9150   -1.1790 H   0  0  0  0  0  0  0  0  0  0  0  0
    0.7150   -1.8350    2.1790 H   0  0  0  0  0  0  0  0  0  0  0  0
    1.2140   -3.2130    1.1420 H   0  0  0  0  0  0  0  0  0  0  0  0
    1.9740   -0.4460    1.5530 H   0  0  0  0  0  0  0  0  0  0  0  0
   -2.5700   -2.0770    2.4220 H   0  0  0  0  0  0  0  0  0  0  0  0
   -3.9140    3.1500    1.3530 H   0  0  0  0  0  0  0  0  0  0  0  0
   -1.0140   -3.8710    2.1220 H   0  0  0  0  0  0  0  0  0  0  0  0
    2.3390   -1.7040   -0.6840 H   0  0  0  0  0  0  0  0  0  0  0  0
    2.2350    0.3570   -2.0500 H   0  0  0  0  0  0  0  0  0  0  0  0
  1 15  2  0
  2 16  2  0
  3 21  2  0
  4 15  1  0
  4 30  1  0
  5 31  1  0
  5 16  1  0
  5 17  2  0
  6 18  2  0
  6 32  1  0
  6 13  1  0
  7 34  1  0
  7 33  1  0
  7 11  1  0
  7 15  1  0
  8 36  1  0
  8 35  1  0
  8  9  1  0
  8 18  1  0
  9 37  1  0
  9 28  1  0
  9 38  1  0
 10 29  1  0
 10 40  1  0
 10 25  1  0
 10 39  1  0
 11 26  1  0
 11 41  1  0
 12 19  1  0
 12 25  1  0
 12 42  1  0
 13 23  1  0
 13 43  1  0
 14 17  1  0
 14 25  1  0
 16 27  1  0
 18 24  1  0
 19 20  1  0
 19 21  1  0
 20 22  2  0
 20 29  1  0
 21 23  1  0
 22 28  1  0
 22 24  1  0
 23 24  2  0
 25 44  1  1
 26 27  1  0
 26 45  1  6
 26 29  1  0
 27 46  1  6
 27 28  1  0
 29 17  1  6
M  END
>  <id>  (32) 
132

>  <scaffolds>  (32) 
['C1=CCCCC1', 'O=C1C=CCCC1', 'C1=NCCCC1']

>  <name>  (32) 
Discorhabdin N

>  <formula>  (32) 
C20H17N4SO4

>  <SMILES>  (32) 
O=C(O)CN[C@@H]1C4C(=O)C=C2S[C@@H]3C[C@@]12c5c(N3)c(=O)c7[nH]cc6CC[N+]4=c5c67

>  <ChEMBL_id>  (32) 


>  <ZINC_id>  (32) 


>  <PubChem_id>  (32) 


>  <DrugBank_id>  (32) 


>  <CAS_no>  (32) 
721395-10-4

>  <references>  (32) 
[{'journal': {'name': 'Thesis, Rhodes University', 'id': 2}, 'title': 'Pyrroloiminoquinone Metabolites From South African Latrunculid Sponges', 'year': 2003, 'start_page': None, 'volume': None, 'issue': None, 'doi': None, 'isbn': None, 'despositor': {'code': 'rah', 'first_name': 'Rowan', 'last_name': 'Hatherley', 'id': 20}, 'refauthors_set': [{'author': {'first_name': 'Edith ', 'initials': 'EM', 'last_name': 'Antunes', 'id': 447}, 'first_author': True, 'id': 605}], 'id': 226}]

>  <classifications>  (32) 
[{'classification': 'Alkaloid', 'id': 738}, {'classification': 'Discorhabdin', 'id': 770}, {'classification': 'Pyrroloiminoquinone', 'id': 820}, {'classification': 'Phenanthrolines (Classyfire)', 'id': 946}]

>  <molecular_mass>  (32) 
409.44

$$$$
SANC00133_minRM1.pdb
     RDKit          3D

 40 46  0  0  1  0  0  0  0  0999 V2000
   -1.1350    1.0160   -2.3670 H   0  0  0  0  0  0  0  0  0  0  0  0
   -3.0140    1.5330   -1.5740 N   0  0  0  0  0  0  0  0  0  0  0  0
   -1.4970    3.3210    1.3920 O   0  0  0  0  0  0  0  0  0  0  0  0
    2.0260   -3.4110    0.0060 O   0  0  0  0  0  0  0  0  0  0  0  0
   -2.1370    1.1530    1.3980 C   0  0  0  0  0  0  0  0  0  0  0  0
    4.3560    0.2920    0.3110 C   0  0  0  0  0  0  0  0  0  0  0  0
    2.9050    2.5120    0.2250 C   0  0  0  0  0  0  0  0  0  0  0  0
    1.6140    2.7910   -0.5400 C   0  0  0  0  0  0  0  0  0  0  0  0
   -2.2510   -1.3600   -1.3550 C   0  0  0  0  0  0  0  0  0  0  0  0
   -0.7390   -2.8370   -0.1540 N   0  0  0  0  0  0  0  0  0  0  0  0
    4.0120   -1.0410    0.2430 N   0  0  0  0  0  0  0  0  0  0  0  0
   -2.6660   -1.5820    1.2400 S   0  0  0  0  0  0  0  0  0  0  0  0
   -1.5130    2.2610    0.7970 C   0  0  0  0  0  0  0  0  0  0  0  0
   -2.1340   -0.0310    0.7490 C   0  0  0  0  0  0  0  0  0  0  0  0
    3.2650    1.0520    0.1730 C   0  0  0  0  0  0  0  0  0  0  0  0
    0.2510   -1.8610   -0.2030 C   0  0  0  0  0  0  0  0  0  0  0  0
   -0.1160   -0.5760   -0.3960 C   0  0  0  0  0  0  0  0  0  0  0  0
    1.6870   -2.2430   -0.0450 C   0  0  0  0  0  0  0  0  0  0  0  0
    0.8310    0.5330   -0.3340 C   0  0  0  0  0  0  0  0  0  0  0  0
    2.6750   -1.1610    0.0470 C   0  0  0  0  0  0  0  0  0  0  0  0
    2.2240    0.1440   -0.0510 C   0  0  0  0  0  0  0  0  0  0  0  0
   -2.1640   -2.4820   -0.2750 C   0  0  1  0  0  0  0  0  0  0  0  0
   -0.8660    2.1770   -0.5580 C   0  0  1  0  0  0  0  0  0  0  0  0
    0.5510    1.7940   -0.4580 N   0  0  0  0  0  0  0  0  0  0  0  0
   -1.6150    1.1220   -1.3950 C   0  0  1  0  0  0  0  0  0  0  0  0
   -1.5600   -0.2000   -0.6480 C   0  0  1  0  0  0  0  0  0  0  0  0
   -3.0710    2.4160   -2.0600 H   0  0  0  0  0  0  0  0  0  0  0  0
   -3.5400    0.8210   -2.0560 H   0  0  0  0  0  0  0  0  0  0  0  0
   -2.6060    1.2460    2.3660 H   0  0  0  0  0  0  0  0  0  0  0  0
    5.3580    0.6670    0.4550 H   0  0  0  0  0  0  0  0  0  0  0  0
    3.7140    3.0940   -0.2150 H   0  0  0  0  0  0  0  0  0  0  0  0
    2.7740    2.8100    1.2640 H   0  0  0  0  0  0  0  0  0  0  0  0
    1.2120    3.7380   -0.1820 H   0  0  0  0  0  0  0  0  0  0  0  0
    1.8710    2.9180   -1.5920 H   0  0  0  0  0  0  0  0  0  0  0  0
   -1.7090   -1.6450   -2.2570 H   0  0  0  0  0  0  0  0  0  0  0  0
   -3.2880   -1.1160   -1.5840 H   0  0  0  0  0  0  0  0  0  0  0  0
   -0.4860   -3.7660   -0.0380 H   0  0  0  0  0  0  0  0  0  0  0  0
    4.6330   -1.7820    0.3220 H   0  0  0  0  0  0  0  0  0  0  0  0
   -2.7960   -3.3410   -0.5010 H   0  0  0  0  0  0  0  0  0  0  0  0
   -0.9450    3.1430   -1.0560 H   0  0  0  0  0  0  0  0  0  0  0  0
  2 27  1  0
  2 28  1  0
  2 25  1  0
  3 13  2  0
  4 18  2  0
  5 14  2  0
  5 13  1  0
  5 29  1  0
  6 15  2  0
  6 11  1  0
  6 30  1  0
  7  8  1  0
  7 31  1  0
  7 15  1  0
  7 32  1  0
  8 34  1  0
  8 24  1  0
  8 33  1  0
  9 35  1  0
  9 36  1  0
  9 26  1  0
  9 22  1  0
 10 22  1  0
 10 16  1  0
 10 37  1  0
 11 20  1  0
 11 38  1  0
 12 22  1  0
 12 14  1  0
 13 23  1  0
 15 21  1  0
 16 17  1  0
 16 18  1  0
 17 26  1  0
 17 19  2  0
 18 20  1  0
 19 24  1  0
 19 21  1  0
 20 21  2  0
 22 39  1  6
 23 25  1  0
 23 40  1  6
 23 24  1  0
 25  1  1  6
 25 26  1  0
 26 14  1  1
M  END
>  <id>  (33) 
133

>  <scaffolds>  (33) 
['C1=CCCCC1', 'O=C1C=CCCC1', 'C1=NCCCC1']

>  <name>  (33) 
1-Amino discorhabdin D

>  <formula>  (33) 
C18H15N4SO2

>  <SMILES>  (33) 
NC1[C@@H]4C(=O)C=C2S[C@@H]3C[C@@]12c5c(N3)c(=O)c7[nH]cc6CC[N+]4=c5c67

>  <ChEMBL_id>  (33) 


>  <ZINC_id>  (33) 


>  <PubChem_id>  (33) 


>  <DrugBank_id>  (33) 


>  <CAS_no>  (33) 
721395-40-0

>  <references>  (33) 
[{'journal': {'name': 'Thesis, Rhodes University', 'id': 2}, 'title': 'Pyrroloiminoquinone Metabolites From South African Latrunculid Sponges', 'year': 2003, 'start_page': None, 'volume': None, 'issue': None, 'doi': None, 'isbn': None, 'despositor': {'code': 'rah', 'first_name': 'Rowan', 'last_name': 'Hatherley', 'id': 20}, 'refauthors_set': [{'author': {'first_name': 'Edith ', 'initials': 'EM', 'last_name': 'Antunes', 'id': 447}, 'first_author': True, 'id': 605}], 'id': 226}]

>  <classifications>  (33) 
[{'classification': 'Alkaloid', 'id': 738}, {'classification': 'Discorhabdin', 'id': 770}, {'classification': 'Pyrroloiminoquinone', 'id': 820}, {'classification': 'Phenanthrolines (Classyfire)', 'id': 946}]

>  <molecular_mass>  (33) 
351.4

$$$$
SANC00134_minRM1.pdb
     RDKit          3D

 42 48  0  0  1  0  0  0  0  0999 V2000
   -2.0320   -3.8390   -0.4500 H   0  0  0  0  0  0  0  0  0  0  0  0
   -1.3420    0.8560   -2.0980 H   0  0  0  0  0  0  0  0  0  0  0  0
   -1.4250    2.8990   -0.6410 H   0  0  0  0  0  0  0  0  0  0  0  0
   -3.6370    1.7580   -2.2240 C   0  0  0  0  0  0  0  0  0  0  0  0
   -1.8060    2.8140    1.8420 O   0  0  0  0  0  0  0  0  0  0  0  0
    2.7630   -3.0300   -0.3540 O   0  0  0  0  0  0  0  0  0  0  0  0
   -2.0320    0.5680    1.7280 C   0  0  0  0  0  0  0  0  0  0  0  0
    4.3940    1.0110    0.1280 C   0  0  0  0  0  0  0  0  0  0  0  0
    2.5530    2.9120    0.3190 C   0  0  0  0  0  0  0  0  0  0  0  0
    1.1760    2.9880   -0.3340 C   0  0  0  0  0  0  0  0  0  0  0  0
   -1.9210   -1.7450   -1.1940 C   0  0  0  0  0  0  0  0  0  0  0  0
   -0.0680   -2.9990   -0.2420 N   0  0  0  0  0  0  0  0  0  0  0  0
    4.2930   -0.3630   -0.0300 N   0  0  0  0  0  0  0  0  0  0  0  0
   -3.1710    0.9580   -1.1350 O   0  0  0  0  0  0  0  0  0  0  0  0
   -2.0610   -2.2040    1.4000 S   0  0  0  0  0  0  0  0  0  0  0  0
   -1.6750    1.8090    1.1710 C   0  0  0  0  0  0  0  0  0  0  0  0
   -1.8670   -0.5520    0.9920 C   0  0  0  0  0  0  0  0  0  0  0  0
    3.1740    1.5550    0.1260 C   0  0  0  0  0  0  0  0  0  0  0  0
    0.7200   -1.8410   -0.2710 C   0  0  0  0  0  0  0  0  0  0  0  0
    0.1110   -0.6370   -0.3340 C   0  0  0  0  0  0  0  0  0  0  0  0
    2.2100   -1.9500   -0.2600 C   0  0  0  0  0  0  0  0  0  0  0  0
    0.8420    0.6230   -0.2520 C   0  0  0  0  0  0  0  0  0  0  0  0
    2.9890   -0.7160   -0.1340 C   0  0  0  0  0  0  0  0  0  0  0  0
    2.3010    0.4840   -0.0970 C   0  0  0  0  0  0  0  0  0  0  0  0
    0.3260    1.8030   -0.2580 N   0  0  0  0  0  0  0  0  0  0  0  0
   -1.5390   -2.8970   -0.2130 C   0  0  1  0  0  0  0  0  0  0  0  0
   -1.7510    0.8100   -1.0880 C   0  0  1  0  0  0  0  0  0  0  0  0
   -1.1400    1.9310   -0.2290 C   0  0  1  0  0  0  0  0  0  0  0  0
   -1.3940   -0.5230   -0.4520 C   0  0  1  0  0  0  0  0  0  0  0  0
   -4.7240    1.8220   -2.1890 H   0  0  0  0  0  0  0  0  0  0  0  0
   -3.2110    2.7590   -2.1470 H   0  0  0  0  0  0  0  0  0  0  0  0
   -3.3290    1.3040   -3.1660 H   0  0  0  0  0  0  0  0  0  0  0  0
   -2.4270    0.5100    2.7320 H   0  0  0  0  0  0  0  0  0  0  0  0
    5.3210    1.5580    0.2310 H   0  0  0  0  0  0  0  0  0  0  0  0
    3.2010    3.6680   -0.1260 H   0  0  0  0  0  0  0  0  0  0  0  0
    2.4530    3.1120    1.3860 H   0  0  0  0  0  0  0  0  0  0  0  0
    0.6340    3.8160    0.1230 H   0  0  0  0  0  0  0  0  0  0  0  0
    1.3180    3.2290   -1.3870 H   0  0  0  0  0  0  0  0  0  0  0  0
   -1.4180   -1.8670   -2.1530 H   0  0  0  0  0  0  0  0  0  0  0  0
   -3.0010   -1.6870   -1.3250 H   0  0  0  0  0  0  0  0  0  0  0  0
    0.3610   -3.8680   -0.2210 H   0  0  0  0  0  0  0  0  0  0  0  0
    5.0430   -0.9790   -0.0550 H   0  0  0  0  0  0  0  0  0  0  0  0
  4 32  1  0
  4 30  1  0
  4 31  1  0
  4 14  1  0
  5 16  2  0
  6 21  2  0
  7 17  2  0
  7 16  1  0
  7 33  1  0
  8 13  1  0
  8 18  2  0
  8 34  1  0
  9 10  1  0
  9 35  1  0
  9 18  1  0
  9 36  1  0
 10 38  1  0
 10 25  1  0
 10 37  1  0
 11 39  1  0
 11 40  1  0
 11 29  1  0
 11 26  1  0
 12 19  1  0
 12 41  1  0
 12 26  1  0
 13 23  1  0
 13 42  1  0
 14 27  1  0
 15 26  1  0
 15 17  1  0
 16 28  1  0
 18 24  1  0
 19 20  1  0
 19 21  1  0
 20 29  1  0
 20 22  2  0
 21 23  1  0
 22 25  1  0
 22 24  1  0
 23 24  2  0
 25 28  1  0
 26  1  1  6
 27  2  1  6
 27 29  1  0
 27 28  1  0
 28  3  1  6
 29 17  1  1
M  END
>  <id>  (34) 
134

>  <scaffolds>  (34) 
['C1=CCCCC1', 'O=C1C=CCCC1', 'C1=NCCCC1']

>  <name>  (34) 
1-Methoxy discorhabdin D

>  <formula>  (34) 
C19H16N3SO3

>  <SMILES>  (34) 
COC1[C@@H]4C(=O)C=C2S[C@@H]3C[C@@]12c5c(N3)c(=O)c7[nH]cc6CC[N+]4=c5c67

>  <ChEMBL_id>  (34) 


>  <ZINC_id>  (34) 


>  <PubChem_id>  (34) 


>  <DrugBank_id>  (34) 


>  <CAS_no>  (34) 
721395-39-7

>  <references>  (34) 
[{'journal': {'name': 'Thesis, Rhodes University', 'id': 2}, 'title': 'Pyrroloiminoquinone Metabolites From South African Latrunculid Sponges', 'year': 2003, 'start_page': None, 'volume': None, 'issue': None, 'doi': None, 'isbn': None, 'despositor': {'code': 'rah', 'first_name': 'Rowan', 'last_name': 'Hatherley', 'id': 20}, 'refauthors_set': [{'author': {'first_name': 'Edith ', 'initials': 'EM', 'last_name': 'Antunes', 'id': 447}, 'first_author': True, 'id': 605}], 'id': 226}]

>  <classifications>  (34) 
[{'classification': 'Alkaloid', 'id': 738}, {'classification': 'Discorhabdin', 'id': 770}, {'classification': 'Pyrroloiminoquinone', 'id': 820}, {'classification': 'Phenanthrolines (Classyfire)', 'id': 946}]

>  <molecular_mass>  (34) 
366.41

$$$$
SANC00135_minRM1.pdb
     RDKit          3D

 49 55  0  0  1  0  0  0  0  0999 V2000
   -3.5180   -2.0020    0.2640 N   0  0  0  0  0  0  0  0  0  0  0  0
   -3.6650   -0.7480    1.0160 C   0  0  1  0  0  0  0  0  0  0  0  0
   -2.7620    0.3230    0.4010 C   0  0  0  0  0  0  0  0  0  0  0  0
   -1.2960   -0.0590    0.6180 C   0  0  1  0  0  0  0  0  0  0  0  0
   -0.9530   -1.3030   -0.2240 C   0  0  1  0  0  0  0  0  0  0  0  0
   -1.1530   -0.9710   -1.6780 C   0  0  0  0  0  0  0  0  0  0  0  0
   -1.5020   -1.8500   -2.4420 O   0  0  0  0  0  0  0  0  0  0  0  0
   -0.9480    0.3280   -2.1780 C   0  0  0  0  0  0  0  0  0  0  0  0
   -0.5400    1.2930   -1.3280 C   0  0  0  0  0  0  0  0  0  0  0  0
    0.0080    2.8880   -1.6270 S   0  0  0  0  0  0  0  0  0  0  0  0
    0.3720    3.3280    0.1110 C   0  0  1  0  0  0  0  0  0  0  0  0
   -0.6000    2.4000    0.8980 C   0  0  0  0  0  0  0  0  0  0  0  0
   -0.3990    1.0770    0.1700 C   0  0  1  0  0  0  0  0  0  0  0  0
    1.0520    0.6720    0.3370 C   0  0  0  0  0  0  0  0  0  0  0  0
    2.0270    1.5910    0.4870 C   0  0  0  0  0  0  0  0  0  0  0  0
    1.7460    2.9450    0.4350 N   0  0  0  0  0  0  0  0  0  0  0  0
    3.4530    1.1710    0.6880 C   0  0  0  0  0  0  0  0  0  0  0  0
    4.3170    1.9890    0.9450 O   0  0  0  0  0  0  0  0  0  0  0  0
    3.7740   -0.2550    0.5680 C   0  0  0  0  0  0  0  0  0  0  0  0
    4.8810   -1.0390    0.6200 N   0  0  0  0  0  0  0  0  0  0  0  0
    5.7750   -0.7280    0.8300 H   0  0  0  0  0  0  0  0  0  0  0  0
    4.5400   -2.3420    0.3300 C   0  0  0  0  0  0  0  0  0  0  0  0
    3.2260   -2.4310    0.1120 C   0  0  0  0  0  0  0  0  0  0  0  0
    2.2340   -3.4730   -0.3300 C   0  0  0  0  0  0  0  0  0  0  0  0
    0.8210   -3.1060    0.1160 C   0  0  0  0  0  0  0  0  0  0  0  0
    0.4390   -1.6980    0.0430 N   0  0  0  0  0  0  0  0  0  0  0  0
    1.3160   -0.7620    0.2460 C   0  0  0  0  0  0  0  0  0  0  0  0
    2.7380   -1.1380    0.3300 C   0  0  0  0  0  0  0  0  0  0  0  0
   -5.1000   -0.2910    0.9540 C   0  0  0  0  0  0  0  0  0  0  0  0
   -5.8300   -0.7060    0.0850 O   0  0  0  0  0  0  0  0  0  0  0  0
   -5.5670    0.5770    1.8650 O   0  0  0  0  0  0  0  0  0  0  0  0
   -4.0560   -2.7430    0.6890 H   0  0  0  0  0  0  0  0  0  0  0  0
   -3.7770   -1.8770   -0.7030 H   0  0  0  0  0  0  0  0  0  0  0  0
   -3.3800   -0.9110    2.0550 H   0  0  0  0  0  0  0  0  0  0  0  0
   -2.9630    0.3990   -0.6680 H   0  0  0  0  0  0  0  0  0  0  0  0
   -2.9610    1.2830    0.8770 H   0  0  0  0  0  0  0  0  0  0  0  0
   -1.1240   -0.2700    1.6740 H   0  0  0  0  0  0  0  0  0  0  0  0
   -1.6200   -2.1200    0.0500 H   0  0  0  0  0  0  0  0  0  0  0  0
   -1.1140    0.5480   -3.2220 H   0  0  0  0  0  0  0  0  0  0  0  0
    0.1930    4.3850    0.3060 H   0  0  0  0  0  0  0  0  0  0  0  0
   -0.3050    2.3200    1.9440 H   0  0  0  0  0  0  0  0  0  0  0  0
   -1.6310    2.7440    0.8090 H   0  0  0  0  0  0  0  0  0  0  0  0
    2.4050    3.4280   -0.1580 H   0  0  0  0  0  0  0  0  0  0  0  0
    5.2350   -3.1680    0.2840 H   0  0  0  0  0  0  0  0  0  0  0  0
    2.2570   -3.5510   -1.4170 H   0  0  0  0  0  0  0  0  0  0  0  0
    2.5070   -4.4350    0.1030 H   0  0  0  0  0  0  0  0  0  0  0  0
    0.1190   -3.6760   -0.4920 H   0  0  0  0  0  0  0  0  0  0  0  0
    0.7020   -3.4310    1.1510 H   0  0  0  0  0  0  0  0  0  0  0  0
   -6.4940    0.8420    1.7840 H   0  0  0  0  0  0  0  0  0  0  0  0
  1 33  1  0
  1 32  1  0
  1  2  1  0
  2  3  1  0
  2 29  1  0
  2 34  1  1
  3 35  1  0
  3  4  1  0
  3 36  1  0
  4  5  1  0
  4 13  1  0
  4 37  1  1
  5  6  1  0
  5 26  1  0
  5 38  1  1
  6  7  2  0
  6  8  1  0
  8 39  1  0
  8  9  2  0
  9 10  1  0
 10 11  1  0
 11 40  1  6
 11 16  1  0
 11 12  1  0
 12 13  1  0
 12 42  1  0
 12 41  1  0
 13  9  1  6
 13 14  1  0
 14 27  2  0
 15 14  1  0
 15 16  1  0
 15 17  1  0
 16 43  1  0
 17 19  1  0
 17 18  2  0
 19 28  2  0
 19 20  1  0
 20 22  1  0
 20 21  1  0
 22 23  2  0
 22 44  1  0
 23 24  1  0
 23 28  1  0
 24 45  1  0
 24 46  1  0
 24 25  1  0
 25 47  1  0
 25 26  1  0
 25 48  1  0
 26 27  1  0
 27 28  1  0
 29 30  2  0
 29 31  1  0
 31 49  1  0
M  END
>  <id>  (35) 
135

>  <scaffolds>  (35) 
['C1=CCCCC1', 'O=C1C=CCCC1', 'C1=NCCCC1']

>  <name>  (35) 
1-Alanyl discorhabdin D

>  <formula>  (35) 
C21H19N4SO4

>  <SMILES>  (35) 
NC(CC2C4C(=O)C=C1SC3CC12c5c(N3)c(=O)c7[nH]cc6CC[N+]4=c5c67)C(=O)O

>  <ChEMBL_id>  (35) 


>  <ZINC_id>  (35) 


>  <PubChem_id>  (35) 


>  <DrugBank_id>  (35) 


>  <CAS_no>  (35) 


>  <references>  (35) 
[{'journal': {'name': 'Thesis, Rhodes University', 'id': 2}, 'title': 'Pyrroloiminoquinone Metabolites From South African Latrunculid Sponges', 'year': 2003, 'start_page': None, 'volume': None, 'issue': None, 'doi': None, 'isbn': None, 'despositor': {'code': 'rah', 'first_name': 'Rowan', 'last_name': 'Hatherley', 'id': 20}, 'refauthors_set': [{'author': {'first_name': 'Edith ', 'initials': 'EM', 'last_name': 'Antunes', 'id': 447}, 'first_author': True, 'id': 605}], 'id': 226}]

>  <classifications>  (35) 
[{'classification': 'Alkaloid', 'id': 738}, {'classification': 'Discorhabdin', 'id': 770}, {'classification': 'Pyrroloiminoquinone', 'id': 820}, {'classification': 'Phenanthrolines (Classyfire)', 'id': 946}]

>  <molecular_mass>  (35) 
423.46

$$$$
SANC00136_minRM1.pdb
     RDKit          3D

 36 40  0  0  0  0  0  0  0  0999 V2000
   -3.4890   -2.6370   -0.0540 O   0  0  0  0  0  0  0  0  0  0  0  0
   -2.7250   -1.6860   -0.0430 C   0  0  0  0  0  0  0  0  0  0  0  0
   -3.1310   -0.2880   -0.0150 C   0  0  0  0  0  0  0  0  0  0  0  0
   -4.3860    0.2960   -0.0470 N   0  0  0  0  0  0  0  0  0  0  0  0
   -5.2580   -0.2110   -0.0610 H   0  0  0  0  0  0  0  0  0  0  0  0
   -4.2380    1.6850   -0.0310 C   0  0  0  0  0  0  0  0  0  0  0  0
   -2.8730    1.9750    0.0200 C   0  0  0  0  0  0  0  0  0  0  0  0
   -2.0810    3.2140   -0.0220 C   0  0  0  0  0  0  0  0  0  0  0  0
   -0.6280    2.9660    0.4540 C   0  0  0  0  0  0  0  0  0  0  0  0
    0.0060    1.6560    0.2450 N   0  0  0  0  0  0  0  0  0  0  0  0
   -0.7610    0.6230    0.0900 C   0  0  0  0  0  0  0  0  0  0  0  0
   -2.2000    0.7410    0.0350 C   0  0  0  0  0  0  0  0  0  0  0  0
   -0.3240   -0.7580   -0.0220 C   0  0  0  0  0  0  0  0  0  0  0  0
    0.9590   -1.3480   -0.0540 C   0  0  0  0  0  0  0  0  0  0  0  0
    2.2390   -0.6810   -0.0450 C   0  0  0  0  0  0  0  0  0  0  0  0
    2.4840    0.4090   -0.8790 C   0  0  0  0  0  0  0  0  0  0  0  0
    3.7190    1.0420   -0.8490 C   0  0  0  0  0  0  0  0  0  0  0  0
    4.7010    0.5620    0.0180 C   0  0  0  0  0  0  0  0  0  0  0  0
    5.9520    1.1030    0.0720 O   0  0  0  0  0  0  0  0  0  0  0  0
    4.4770   -0.5400    0.8430 C   0  0  0  0  0  0  0  0  0  0  0  0
    3.2380   -1.1610    0.8010 C   0  0  0  0  0  0  0  0  0  0  0  0
    0.7800   -2.7390   -0.1100 C   0  0  0  0  0  0  0  0  0  0  0  0
   -0.5770   -3.0040   -0.1110 N   0  0  0  0  0  0  0  0  0  0  0  0
   -1.0160   -3.9140   -0.1430 H   0  0  0  0  0  0  0  0  0  0  0  0
   -1.2680   -1.8050   -0.0580 C   0  0  0  0  0  0  0  0  0  0  0  0
   -5.0890    2.3590   -0.0520 H   0  0  0  0  0  0  0  0  0  0  0  0
   -2.0910    3.6130   -1.0570 H   0  0  0  0  0  0  0  0  0  0  0  0
   -2.5460    4.0130    0.5930 H   0  0  0  0  0  0  0  0  0  0  0  0
    0.0520    3.6960   -0.0400 H   0  0  0  0  0  0  0  0  0  0  0  0
   -0.5420    3.1750    1.5450 H   0  0  0  0  0  0  0  0  0  0  0  0
    1.7050    0.7620   -1.5610 H   0  0  0  0  0  0  0  0  0  0  0  0
    3.9110    1.9120   -1.4830 H   0  0  0  0  0  0  0  0  0  0  0  0
    5.8140    2.0900    0.1490 H   0  0  0  0  0  0  0  0  0  0  0  0
    5.2630   -0.8960    1.5140 H   0  0  0  0  0  0  0  0  0  0  0  0
    3.0420   -2.0190    1.4510 H   0  0  0  0  0  0  0  0  0  0  0  0
    1.5370   -3.5170   -0.1570 H   0  0  0  0  0  0  0  0  0  0  0  0
  1  2  2  0
  2 25  1  0
  2  3  1  0
  3  4  1  0
  3 12  2  0
  4  5  1  0
  4  6  1  0
  6 26  1  0
  6  7  2  0
  7  8  1  0
  7 12  1  0
  8 27  1  0
  8  9  1  0
  8 28  1  0
  9 29  1  0
  9 10  1  0
  9 30  1  0
 10 11  2  0
 11 13  1  0
 11 12  1  0
 13 25  2  0
 13 14  1  0
 14 22  2  0
 14 15  1  0
 15 16  2  0
 15 21  1  0
 16 31  1  0
 16 17  1  0
 17 32  1  0
 17 18  2  0
 18 19  1  0
 18 20  1  0
 19 33  1  0
 20 21  2  0
 20 34  1  0
 21 35  1  0
 22 36  1  0
 22 23  1  0
 23 24  1  0
 23 25  1  0
M  END
>  <id>  (36) 
136

>  <scaffolds>  (36) 
['c1ccccc1']

>  <name>  (36) 
Tsitsikammamine A

>  <formula>  (36) 
C18H13N3O2

>  <SMILES>  (36) 
O=c4c2[nH]cc1CCN=c(c12)c5c(c3ccc(O)cc3)c[nH]c45

>  <ChEMBL_id>  (36) 


>  <ZINC_id>  (36) 


>  <PubChem_id>  (36) 


>  <DrugBank_id>  (36) 


>  <CAS_no>  (36) 
183114-86-5

>  <references>  (36) 
[{'journal': {'name': 'Thesis, Rhodes University', 'id': 2}, 'title': 'Pyrroloiminoquinone Metabolites From South African Latrunculid Sponges', 'year': 2003, 'start_page': None, 'volume': None, 'issue': None, 'doi': None, 'isbn': None, 'despositor': {'code': 'rah', 'first_name': 'Rowan', 'last_name': 'Hatherley', 'id': 20}, 'refauthors_set': [{'author': {'first_name': 'Edith ', 'initials': 'EM', 'last_name': 'Antunes', 'id': 447}, 'first_author': True, 'id': 605}], 'id': 226}, {'journal': {'name': 'Thesis, Rhodes University', 'id': 2}, 'title': 'Biologically Active Natural Products From South African Marine Invertebrates', 'year': 1996, 'start_page': None, 'volume': None, 'issue': None, 'doi': None, 'isbn': None, 'despositor': {'code': 'rah', 'first_name': 'Rowan', 'last_name': 'Hatherley', 'id': 20}, 'refauthors_set': [{'author': {'first_name': 'Gregory', 'initials': 'GJ', 'last_name': 'Hooper', 'id': 448}, 'first_author': True, 'id': 606}], 'id': 227}, {'journal': {'name': 'Tetrahedron Letters', 'id': 3}, 'title': 'New Alkaloids from a South African Latrunculid Sponge', 'year': 1996, 'start_page': 7135, 'volume': 37, 'issue': 39, 'doi': '10.1016/0040-4039(96)01560-2', 'isbn': '', 'despositor': {'code': 'rah', 'first_name': 'Rowan', 'last_name': 'Hatherley', 'id': 20}, 'refauthors_set': [{'author': {'first_name': 'Gregory', 'initials': 'GJ', 'last_name': 'Hooper', 'id': 448}, 'first_author': True, 'id': 607}, {'author': {'first_name': 'Michael', 'initials': 'MT', 'last_name': 'Davies-Coleman', 'id': 449}, 'first_author': None, 'id': 608}, {'author': {'first_name': 'Michelle', 'initials': 'M', 'last_name': 'Kelly-Borges', 'id': 450}, 'first_author': None, 'id': 609}, {'author': {'first_name': 'Philip', 'initials': 'PS', 'last_name': 'Coetzee', 'id': 451}, 'first_author': None, 'id': 610}], 'id': 228}]

>  <classifications>  (36) 
[{'classification': 'Alkaloid', 'id': 738}, {'classification': 'Pyrroloiminoquinone', 'id': 820}, {'classification': 'Tsitsikammamine', 'id': 843}, {'classification': 'Quinolines and derivatives (Classyfire)', 'id': 948}]

>  <molecular_mass>  (36) 
303.31

$$$$
SANC00137_minRM1.pdb
     RDKit          3D

 39 43  0  0  0  0  0  0  0  0999 V2000
   -5.4150   -0.3070   -0.0290 C   0  0  0  0  0  0  0  0  0  0  0  0
   -4.1360    0.3930   -0.0370 N   0  0  0  0  0  0  0  0  0  0  0  0
   -3.9640    1.7810   -0.0260 C   0  0  0  0  0  0  0  0  0  0  0  0
   -2.5940    2.0420    0.0200 C   0  0  0  0  0  0  0  0  0  0  0  0
   -1.7840    3.2690   -0.0260 C   0  0  0  0  0  0  0  0  0  0  0  0
   -0.3380    2.9990    0.4540 C   0  0  0  0  0  0  0  0  0  0  0  0
    0.2760    1.6810    0.2400 N   0  0  0  0  0  0  0  0  0  0  0  0
   -0.5060    0.6580    0.0840 C   0  0  0  0  0  0  0  0  0  0  0  0
   -0.0830   -0.7280   -0.0280 C   0  0  0  0  0  0  0  0  0  0  0  0
    1.1910   -1.3360   -0.0630 C   0  0  0  0  0  0  0  0  0  0  0  0
    2.4860   -0.6970   -0.0320 C   0  0  0  0  0  0  0  0  0  0  0  0
    2.7460    0.4040   -0.8450 C   0  0  0  0  0  0  0  0  0  0  0  0
    3.9890    1.0200   -0.8070 C   0  0  0  0  0  0  0  0  0  0  0  0
    4.9630    0.5190    0.0590 C   0  0  0  0  0  0  0  0  0  0  0  0
    6.2160    1.0460    0.1240 O   0  0  0  0  0  0  0  0  0  0  0  0
    4.7260   -0.5990    0.8600 C   0  0  0  0  0  0  0  0  0  0  0  0
    3.4790   -1.2040    0.8050 C   0  0  0  0  0  0  0  0  0  0  0  0
    0.9920   -2.7240   -0.1140 C   0  0  0  0  0  0  0  0  0  0  0  0
   -0.3690   -2.9700   -0.1090 N   0  0  0  0  0  0  0  0  0  0  0  0
   -0.8180   -3.8760   -0.1120 H   0  0  0  0  0  0  0  0  0  0  0  0
   -1.0420   -1.7600   -0.0570 C   0  0  0  0  0  0  0  0  0  0  0  0
   -2.4990   -1.6200   -0.0280 C   0  0  0  0  0  0  0  0  0  0  0  0
   -3.2690   -2.5680   -0.0380 O   0  0  0  0  0  0  0  0  0  0  0  0
   -2.8900   -0.2190    0.0050 C   0  0  0  0  0  0  0  0  0  0  0  0
   -1.9440    0.7970    0.0420 C   0  0  0  0  0  0  0  0  0  0  0  0
   -5.7000   -0.6180    0.9910 H   0  0  0  0  0  0  0  0  0  0  0  0
   -6.2160    0.3330   -0.4340 H   0  0  0  0  0  0  0  0  0  0  0  0
   -5.3720   -1.2160   -0.6610 H   0  0  0  0  0  0  0  0  0  0  0  0
   -4.7980    2.4740   -0.0610 H   0  0  0  0  0  0  0  0  0  0  0  0
   -1.7830    3.6660   -1.0630 H   0  0  0  0  0  0  0  0  0  0  0  0
   -2.2380    4.0760    0.5850 H   0  0  0  0  0  0  0  0  0  0  0  0
    0.3560    3.7210   -0.0360 H   0  0  0  0  0  0  0  0  0  0  0  0
   -0.2570    3.2060    1.5470 H   0  0  0  0  0  0  0  0  0  0  0  0
    1.9780    0.7780   -1.5290 H   0  0  0  0  0  0  0  0  0  0  0  0
    4.1980    1.8730   -1.4550 H   0  0  0  0  0  0  0  0  0  0  0  0
    6.1320    2.0100   -0.0320 H   0  0  0  0  0  0  0  0  0  0  0  0
    5.5130   -0.9920    1.5090 H   0  0  0  0  0  0  0  0  0  0  0  0
    3.2740   -2.0760    1.4340 H   0  0  0  0  0  0  0  0  0  0  0  0
    1.7370   -3.5130   -0.1590 H   0  0  0  0  0  0  0  0  0  0  0  0
  1 28  1  0
  1 27  1  0
  1  2  1  0
  1 26  1  0
  2  3  1  0
  2 24  1  0
  3 29  1  0
  3  4  2  0
  4  5  1  0
  4 25  1  0
  5 30  1  0
  5  6  1  0
  5 31  1  0
  6 32  1  0
  6  7  1  0
  6 33  1  0
  7  8  2  0
  8  9  1  0
  8 25  1  0
  9 10  1  0
  9 21  2  0
 10 18  2  0
 10 11  1  0
 11 12  2  0
 11 17  1  0
 12 34  1  0
 12 13  1  0
 13 35  1  0
 13 14  2  0
 14 15  1  0
 14 16  1  0
 15 36  1  0
 16 17  2  0
 16 37  1  0
 17 38  1  0
 18 39  1  0
 18 19  1  0
 19 20  1  0
 19 21  1  0
 21 22  1  0
 22 23  2  0
 22 24  1  0
 24 25  2  0
M  END
>  <id>  (37) 
137

>  <scaffolds>  (37) 
['c1ccccc1']

>  <name>  (37) 
Tsitsikammamine B

>  <formula>  (37) 
C19H15N3O2

>  <SMILES>  (37) 
Cn3cc4CCN=c5c2c(c1ccc(O)cc1)c[nH]c2c(=O)c3c45

>  <ChEMBL_id>  (37) 


>  <ZINC_id>  (37) 


>  <PubChem_id>  (37) 


>  <DrugBank_id>  (37) 


>  <CAS_no>  (37) 
183114-88-7

>  <references>  (37) 
[{'journal': {'name': 'Thesis, Rhodes University', 'id': 2}, 'title': 'Pyrroloiminoquinone Metabolites From South African Latrunculid Sponges', 'year': 2003, 'start_page': None, 'volume': None, 'issue': None, 'doi': None, 'isbn': None, 'despositor': {'code': 'rah', 'first_name': 'Rowan', 'last_name': 'Hatherley', 'id': 20}, 'refauthors_set': [{'author': {'first_name': 'Edith ', 'initials': 'EM', 'last_name': 'Antunes', 'id': 447}, 'first_author': True, 'id': 605}], 'id': 226}, {'journal': {'name': 'Thesis, Rhodes University', 'id': 2}, 'title': 'Biologically Active Natural Products From South African Marine Invertebrates', 'year': 1996, 'start_page': None, 'volume': None, 'issue': None, 'doi': None, 'isbn': None, 'despositor': {'code': 'rah', 'first_name': 'Rowan', 'last_name': 'Hatherley', 'id': 20}, 'refauthors_set': [{'author': {'first_name': 'Gregory', 'initials': 'GJ', 'last_name': 'Hooper', 'id': 448}, 'first_author': True, 'id': 606}], 'id': 227}, {'journal': {'name': 'Tetrahedron Letters', 'id': 3}, 'title': 'New Alkaloids from a South African Latrunculid Sponge', 'year': 1996, 'start_page': 7135, 'volume': 37, 'issue': 39, 'doi': '10.1016/0040-4039(96)01560-2', 'isbn': '', 'despositor': {'code': 'rah', 'first_name': 'Rowan', 'last_name': 'Hatherley', 'id': 20}, 'refauthors_set': [{'author': {'first_name': 'Gregory', 'initials': 'GJ', 'last_name': 'Hooper', 'id': 448}, 'first_author': True, 'id': 607}, {'author': {'first_name': 'Michael', 'initials': 'MT', 'last_name': 'Davies-Coleman', 'id': 449}, 'first_author': None, 'id': 608}, {'author': {'first_name': 'Michelle', 'initials': 'M', 'last_name': 'Kelly-Borges', 'id': 450}, 'first_author': None, 'id': 609}, {'author': {'first_name': 'Philip', 'initials': 'PS', 'last_name': 'Coetzee', 'id': 451}, 'first_author': None, 'id': 610}], 'id': 228}]

>  <classifications>  (37) 
[{'classification': 'Alkaloid', 'id': 738}, {'classification': 'Pyrroloiminoquinone', 'id': 820}, {'classification': 'Tsitsikammamine', 'id': 843}, {'classification': 'Quinolines and derivatives (Classyfire)', 'id': 948}]

>  <molecular_mass>  (37) 
317.34

$$$$
SANC00138_minRM1.pdb
     RDKit          3D

 38 42  0  0  1  0  0  0  0  0999 V2000
   -3.6110    2.5580   -0.1460 O   0  0  0  0  0  0  0  0  0  0  0  0
   -2.8050    1.6450   -0.0700 C   0  0  0  0  0  0  0  0  0  0  0  0
   -3.2730    0.2600    0.0110 C   0  0  0  0  0  0  0  0  0  0  0  0
   -4.4760   -0.3990    0.0610 N   0  0  0  0  0  0  0  0  0  0  0  0
   -5.3480    0.0230    0.0130 H   0  0  0  0  0  0  0  0  0  0  0  0
   -4.2530   -1.7480    0.1890 C   0  0  0  0  0  0  0  0  0  0  0  0
   -2.9450   -1.9820    0.2060 C   0  0  0  0  0  0  0  0  0  0  0  0
   -2.0400   -3.1760    0.3720 C   0  0  0  0  0  0  0  0  0  0  0  0
   -0.6970   -2.8890   -0.2950 C   0  0  0  0  0  0  0  0  0  0  0  0
   -0.1390   -1.5560   -0.1040 N   0  0  0  0  0  0  0  0  0  0  0  0
    1.2660   -1.4270    0.0020 O   0  0  0  0  0  0  0  0  0  0  0  0
   -0.8610   -0.4820   -0.0280 C   0  0  0  0  0  0  0  0  0  0  0  0
   -2.3190   -0.7200    0.0510 C   0  0  0  0  0  0  0  0  0  0  0  0
   -0.4120    0.9150   -0.0400 C   0  0  0  0  0  0  0  0  0  0  0  0
    0.8590    1.5380   -0.0370 C   0  0  0  0  0  0  0  0  0  0  0  0
    2.1730    0.8520   -0.0140 C   0  0  0  0  0  0  0  0  0  0  0  0
    2.5840    0.0900   -1.1070 C   0  0  0  0  0  0  0  0  0  0  0  0
    3.8070   -0.5460   -1.0830 C   0  0  0  0  0  0  0  0  0  0  0  0
    4.6290   -0.4290    0.0290 C   0  0  0  0  0  0  0  0  0  0  0  0
    5.8340   -1.0580    0.0500 O   0  0  0  0  0  0  0  0  0  0  0  0
    4.2240    0.3280    1.1190 C   0  0  0  0  0  0  0  0  0  0  0  0
    3.0050    0.9720    1.0990 C   0  0  0  0  0  0  0  0  0  0  0  0
    0.6520    2.8860   -0.0590 C   0  0  0  0  0  0  0  0  0  0  0  0
   -0.6810    3.1280   -0.0760 N   0  0  0  0  0  0  0  0  0  0  0  0
   -1.0900    4.0080   -0.0950 H   0  0  0  0  0  0  0  0  0  0  0  0
   -1.3650    1.9330   -0.0670 C   0  0  0  0  0  0  0  0  0  0  0  0
   -5.0220   -2.5020    0.2640 H   0  0  0  0  0  0  0  0  0  0  0  0
   -1.8860   -3.3680    1.4330 H   0  0  0  0  0  0  0  0  0  0  0  0
   -2.4990   -4.0480   -0.0940 H   0  0  0  0  0  0  0  0  0  0  0  0
    0.0270   -3.6130    0.0810 H   0  0  0  0  0  0  0  0  0  0  0  0
   -0.8100   -3.0570   -1.3660 H   0  0  0  0  0  0  0  0  0  0  0  0
    1.7450   -2.2650   -0.0640 H   0  0  0  0  0  0  0  0  0  0  0  0
    1.9440   -0.0020   -1.9720 H   0  0  0  0  0  0  0  0  0  0  0  0
    4.1240   -1.1360   -1.9290 H   0  0  0  0  0  0  0  0  0  0  0  0
    6.5620   -0.5250   -0.2990 H   0  0  0  0  0  0  0  0  0  0  0  0
    4.8660    0.4170    1.9840 H   0  0  0  0  0  0  0  0  0  0  0  0
    2.6900    1.5610    1.9480 H   0  0  0  0  0  0  0  0  0  0  0  0
    1.4260    3.6390   -0.0620 H   0  0  0  0  0  0  0  0  0  0  0  0
  1  2  2  0
  2 26  1  0
  2  3  1  0
  3 13  2  0
  3  4  1  0
  4  5  1  0
  4  6  1  0
  6  7  2  0
  6 27  1  0
  7 13  1  0
  7  8  1  0
  8  9  1  0
  8 29  1  0
  8 28  1  0
  9 31  1  0
  9 10  1  0
  9 30  1  0
 10 12  1  0
 10 11  1  0
 11 32  1  0
 12 14  1  0
 12 13  1  0
 14 26  2  0
 14 15  1  0
 15 23  2  0
 15 16  1  0
 16 17  2  0
 16 22  1  0
 17 33  1  0
 17 18  1  0
 18 34  1  0
 18 19  2  0
 19 20  1  0
 19 21  1  0
 20 35  1  0
 21 22  2  0
 21 36  1  0
 22 37  1  0
 23 24  1  0
 23 38  1  0
 24 25  1  0
 24 26  1  0
M  END
>  <id>  (38) 
138

>  <scaffolds>  (38) 
['c1ccccc1']

>  <name>  (38) 
Tsitsikammamine A N-oxime

>  <formula>  (38) 
C18H14N3O3

>  <SMILES>  (38) 
O=c4c2[nH]cc1CC[N+](O)=c(c12)c5c(c3ccc(O)cc3)c[nH]c45

>  <ChEMBL_id>  (38) 


>  <ZINC_id>  (38) 


>  <PubChem_id>  (38) 


>  <DrugBank_id>  (38) 


>  <CAS_no>  (38) 
719289-04-0

>  <references>  (38) 
[{'journal': {'name': 'Thesis, Rhodes University', 'id': 2}, 'title': 'Pyrroloiminoquinone Metabolites From South African Latrunculid Sponges', 'year': 2003, 'start_page': None, 'volume': None, 'issue': None, 'doi': None, 'isbn': None, 'despositor': {'code': 'rah', 'first_name': 'Rowan', 'last_name': 'Hatherley', 'id': 20}, 'refauthors_set': [{'author': {'first_name': 'Edith ', 'initials': 'EM', 'last_name': 'Antunes', 'id': 447}, 'first_author': True, 'id': 605}], 'id': 226}]

>  <classifications>  (38) 
[{'classification': 'Alkaloid', 'id': 738}, {'classification': 'Pyrroloiminoquinone', 'id': 820}, {'classification': 'Tsitsikammamine', 'id': 843}, {'classification': 'Quinolines and derivatives (Classyfire)', 'id': 948}]

>  <molecular_mass>  (38) 
320.32

$$$$
SANC00139_minRM1.pdb
     RDKit          3D

 41 45  0  0  1  0  0  0  0  0999 V2000
   -5.5470   -0.1760   -0.0330 C   0  0  0  0  0  0  0  0  0  0  0  0
   -4.2240    0.4500   -0.0840 N   0  0  0  0  0  0  0  0  0  0  0  0
   -3.9870    1.7990   -0.2030 C   0  0  0  0  0  0  0  0  0  0  0  0
   -2.6770    2.0220   -0.2080 C   0  0  0  0  0  0  0  0  0  0  0  0
   -1.7610    3.2070   -0.3580 C   0  0  0  0  0  0  0  0  0  0  0  0
   -0.4240    2.9040    0.3160 C   0  0  0  0  0  0  0  0  0  0  0  0
    0.1220    1.5680    0.1200 N   0  0  0  0  0  0  0  0  0  0  0  0
    1.5280    1.4260    0.0220 O   0  0  0  0  0  0  0  0  0  0  0  0
   -0.6090    0.5000    0.0310 C   0  0  0  0  0  0  0  0  0  0  0  0
   -0.1740   -0.9010    0.0420 C   0  0  0  0  0  0  0  0  0  0  0  0
    1.0920   -1.5370    0.0360 C   0  0  0  0  0  0  0  0  0  0  0  0
    2.4130   -0.8630    0.0100 C   0  0  0  0  0  0  0  0  0  0  0  0
    2.8350   -0.1110    1.1050 C   0  0  0  0  0  0  0  0  0  0  0  0
    4.0640    0.5130    1.0780 C   0  0  0  0  0  0  0  0  0  0  0  0
    4.8810    0.3940   -0.0390 C   0  0  0  0  0  0  0  0  0  0  0  0
    6.0920    1.0110   -0.0630 O   0  0  0  0  0  0  0  0  0  0  0  0
    4.4630   -0.3540   -1.1300 C   0  0  0  0  0  0  0  0  0  0  0  0
    3.2370   -0.9860   -1.1080 C   0  0  0  0  0  0  0  0  0  0  0  0
    0.8710   -2.8820    0.0580 C   0  0  0  0  0  0  0  0  0  0  0  0
   -0.4640   -3.1120    0.0780 N   0  0  0  0  0  0  0  0  0  0  0  0
   -0.8820   -3.9870    0.0970 H   0  0  0  0  0  0  0  0  0  0  0  0
   -1.1360   -1.9110    0.0670 C   0  0  0  0  0  0  0  0  0  0  0  0
   -2.5740   -1.6080    0.0810 C   0  0  0  0  0  0  0  0  0  0  0  0
   -3.3880   -2.5110    0.1770 O   0  0  0  0  0  0  0  0  0  0  0  0
   -3.0270   -0.2190   -0.0150 C   0  0  0  0  0  0  0  0  0  0  0  0
   -2.0640    0.7520   -0.0570 C   0  0  0  0  0  0  0  0  0  0  0  0
   -5.8820   -0.2350    1.0030 H   0  0  0  0  0  0  0  0  0  0  0  0
   -6.2540    0.4210   -0.6090 H   0  0  0  0  0  0  0  0  0  0  0  0
   -5.4910   -1.1790   -0.4540 H   0  0  0  0  0  0  0  0  0  0  0  0
   -4.7500    2.5600   -0.2830 H   0  0  0  0  0  0  0  0  0  0  0  0
   -1.5980    3.4070   -1.4170 H   0  0  0  0  0  0  0  0  0  0  0  0
   -2.2150    4.0800    0.1120 H   0  0  0  0  0  0  0  0  0  0  0  0
    0.3070    3.6240   -0.0500 H   0  0  0  0  0  0  0  0  0  0  0  0
   -0.5430    3.0650    1.3870 H   0  0  0  0  0  0  0  0  0  0  0  0
    2.0130    2.2600    0.0960 H   0  0  0  0  0  0  0  0  0  0  0  0
    2.2000   -0.0170    1.9730 H   0  0  0  0  0  0  0  0  0  0  0  0
    4.3930    1.0970    1.9250 H   0  0  0  0  0  0  0  0  0  0  0  0
    6.8160    0.4700    0.2810 H   0  0  0  0  0  0  0  0  0  0  0  0
    5.1010   -0.4450   -1.9980 H   0  0  0  0  0  0  0  0  0  0  0  0
    2.9120   -1.5680   -1.9580 H   0  0  0  0  0  0  0  0  0  0  0  0
    1.6370   -3.6430    0.0600 H   0  0  0  0  0  0  0  0  0  0  0  0
  1 28  1  0
  1 29  1  0
  1  2  1  0
  1 27  1  0
  2  3  1  0
  2 25  1  0
  3 30  1  0
  3  4  2  0
  4  5  1  0
  4 26  1  0
  5 31  1  0
  5 32  1  0
  5  6  1  0
  6 33  1  0
  6  7  1  0
  6 34  1  0
  7  8  1  0
  7  9  1  0
  8 35  1  0
  9 26  1  0
  9 10  1  0
 10 11  1  0
 10 22  2  0
 11 12  1  0
 11 19  2  0
 12 18  2  0
 12 13  1  0
 13 14  2  0
 13 36  1  0
 14 15  1  0
 14 37  1  0
 15 17  2  0
 15 16  1  0
 16 38  1  0
 17 39  1  0
 17 18  1  0
 18 40  1  0
 19 41  1  0
 19 20  1  0
 20 22  1  0
 20 21  1  0
 22 23  1  0
 23 25  1  0
 23 24  2  0
 25 26  2  0
M  END
>  <id>  (39) 
139

>  <scaffolds>  (39) 
['c1ccccc1']

>  <name>  (39) 
Tsitsikammamine B N-oxime

>  <formula>  (39) 
C19H16N3O3

>  <SMILES>  (39) 
Cn3cc4CC[N+](O)=c5c2c(c1ccc(O)cc1)c[nH]c2c(=O)c3c45

>  <ChEMBL_id>  (39) 


>  <ZINC_id>  (39) 


>  <PubChem_id>  (39) 


>  <DrugBank_id>  (39) 


>  <CAS_no>  (39) 
719289-06-2

>  <references>  (39) 
[{'journal': {'name': 'Thesis, Rhodes University', 'id': 2}, 'title': 'Pyrroloiminoquinone Metabolites From South African Latrunculid Sponges', 'year': 2003, 'start_page': None, 'volume': None, 'issue': None, 'doi': None, 'isbn': None, 'despositor': {'code': 'rah', 'first_name': 'Rowan', 'last_name': 'Hatherley', 'id': 20}, 'refauthors_set': [{'author': {'first_name': 'Edith ', 'initials': 'EM', 'last_name': 'Antunes', 'id': 447}, 'first_author': True, 'id': 605}], 'id': 226}]

>  <classifications>  (39) 
[{'classification': 'Alkaloid', 'id': 738}, {'classification': 'Pyrroloiminoquinone', 'id': 820}, {'classification': 'Tsitsikammamine', 'id': 843}, {'classification': 'Quinolines and derivatives (Classyfire)', 'id': 948}]

>  <molecular_mass>  (39) 
334.35

$$$$
SANC00140_minRM1.pdb
     RDKit          3D

 39 44  0  0  1  0  0  0  0  0999 V2000
   -0.8240    4.2640   -1.1840 H   0  0  0  0  0  0  0  0  0  0  0  0
    0.1610    1.1330    1.8190 H   0  0  0  0  0  0  0  0  0  0  0  0
    3.6590    0.2810    1.8660 O   0  0  0  0  0  0  0  0  0  0  0  0
   -4.5390    1.3480   -0.8220 O   0  0  0  0  0  0  0  0  0  0  0  0
    3.8630   -1.1620   -0.9180 Br  0  0  0  0  0  0  0  0  0  0  0  0
    1.3790    0.1930   -0.8560 C   0  0  0  0  0  0  0  0  0  0  0  0
   -4.1980   -2.8060    0.4800 C   0  0  0  0  0  0  0  0  0  0  0  0
   -0.3350   -3.1260    0.5130 C   0  0  0  0  0  0  0  0  0  0  0  0
   -1.7330   -3.6420    0.9420 C   0  0  0  0  0  0  0  0  0  0  0  0
    2.0830    1.9770    1.2700 C   0  0  0  0  0  0  0  0  0  0  0  0
    0.2630    2.3180   -1.3720 C   0  0  0  0  0  0  0  0  0  0  0  0
   -0.1050   -1.7030    0.2360 N   0  0  0  0  0  0  0  0  0  0  0  0
   -2.0810    2.5900   -0.8480 N   0  0  0  0  0  0  0  0  0  0  0  0
   -4.6940   -1.5710    0.0610 N   0  0  0  0  0  0  0  0  0  0  0  0
   -0.2490    3.3740    1.0100 S   0  0  0  0  0  0  0  0  0  0  0  0
    2.5180    0.0250   -0.1970 C   0  0  0  0  0  0  0  0  0  0  0  0
    2.8490    0.6920    1.0630 C   0  0  0  0  0  0  0  0  0  0  0  0
   -2.8030   -2.7270    0.5210 C   0  0  0  0  0  0  0  0  0  0  0  0
   -2.1580    1.2310   -0.5560 C   0  0  0  0  0  0  0  0  0  0  0  0
   -1.0330    0.4890   -0.3300 C   0  0  0  0  0  0  0  0  0  0  0  0
   -3.5600    0.6770   -0.5430 C   0  0  0  0  0  0  0  0  0  0  0  0
   -1.1220   -0.9280    0.0180 C   0  0  0  0  0  0  0  0  0  0  0  0
   -3.6230   -0.7140   -0.1550 C   0  0  0  0  0  0  0  0  0  0  0  0
   -2.4680   -1.4250    0.1160 C   0  0  0  0  0  0  0  0  0  0  0  0
   -0.7950    3.2350   -0.7600 C   0  0  1  0  0  0  0  0  0  0  0  0
    0.6100    1.7450    1.0050 C   0  0  1  0  0  0  0  0  0  0  0  0
    0.3240    1.1400   -0.3790 C   0  0  1  0  0  0  0  0  0  0  0  0
    1.1620   -0.3400   -1.7880 H   0  0  0  0  0  0  0  0  0  0  0  0
   -4.8500   -3.6430    0.7150 H   0  0  0  0  0  0  0  0  0  0  0  0
    0.4170   -3.3910    1.2920 H   0  0  0  0  0  0  0  0  0  0  0  0
   -0.0000   -3.6590   -0.4090 H   0  0  0  0  0  0  0  0  0  0  0  0
   -1.8980   -4.6650    0.5420 H   0  0  0  0  0  0  0  0  0  0  0  0
   -1.7780   -3.7650    2.0470 H   0  0  0  0  0  0  0  0  0  0  0  0
    2.2380    2.3780    2.2960 H   0  0  0  0  0  0  0  0  0  0  0  0
    2.5110    2.7560    0.6030 H   0  0  0  0  0  0  0  0  0  0  0  0
    0.0010    1.9900   -2.3980 H   0  0  0  0  0  0  0  0  0  0  0  0
    1.2400    2.8300   -1.4800 H   0  0  0  0  0  0  0  0  0  0  0  0
   -2.9210    3.1610   -0.8330 H   0  0  0  0  0  0  0  0  0  0  0  0
   -5.6650   -1.3250   -0.0640 H   0  0  0  0  0  0  0  0  0  0  0  0
  3 17  2  0
  4 21  2  0
  5 16  1  0
  6 28  1  0
  6 16  2  0
  7 14  1  0
  7 18  2  0
  7 29  1  0
  8 31  1  0
  8 12  1  0
  8  9  1  0
  8 30  1  0
  9 18  1  0
  9 32  1  0
  9 33  1  0
 10 35  1  0
 10 26  1  0
 10 17  1  0
 10 34  1  0
 11 36  1  0
 11 37  1  0
 11 25  1  0
 11 27  1  0
 12 22  2  0
 13 38  1  0
 13 25  1  0
 13 19  1  0
 14 23  1  0
 14 39  1  0
 15 25  1  0
 15 26  1  0
 16 17  1  0
 18 24  1  0
 19 21  1  0
 19 20  2  0
 20 27  1  0
 20 22  1  0
 21 23  1  0
 22 24  1  0
 23 24  2  0
 25  1  1  6
 26  2  1  1
 26 27  1  0
 27  6  1  6
M  END
>  <id>  (40) 
140

>  <scaffolds>  (40) 
['C1=CCCCC1', 'O=C1C=CCCC1']

>  <name>  (40) 
Discorhabdin A

>  <formula>  (40) 
C18H14BrN3O2S

>  <SMILES>  (40) 
[H][C@@]16CC(=O)C(Br)=C[C@]12C[C@H](Nc3c2c5=NCCc4c[nH]c(c3=O)c45)S6

>  <ChEMBL_id>  (40) 


>  <ZINC_id>  (40) 


>  <PubChem_id>  (40) 


>  <DrugBank_id>  (40) 


>  <CAS_no>  (40) 
112515-41-0

>  <references>  (40) 
[{'journal': {'name': 'Thesis, Rhodes University', 'id': 2}, 'title': 'Pyrroloiminoquinone Metabolites From South African Latrunculid Sponges', 'year': 2003, 'start_page': None, 'volume': None, 'issue': None, 'doi': None, 'isbn': None, 'despositor': {'code': 'rah', 'first_name': 'Rowan', 'last_name': 'Hatherley', 'id': 20}, 'refauthors_set': [{'author': {'first_name': 'Edith ', 'initials': 'EM', 'last_name': 'Antunes', 'id': 447}, 'first_author': True, 'id': 605}], 'id': 226}]

>  <classifications>  (40) 
[{'classification': 'Alkaloid', 'id': 738}, {'classification': 'Discorhabdin', 'id': 770}, {'classification': 'Pyrroloiminoquinone', 'id': 820}, {'classification': 'Phenanthrolines (Classyfire)', 'id': 946}]

>  <molecular_mass>  (40) 
416.29

$$$$
SANC00141_minRM1.pdb
     RDKit          3D

 38 44  0  0  1  0  0  0  0  0999 V2000
    0.4840    3.2830    1.3260 H   0  0  0  0  0  0  0  0  0  0  0  0
    1.1280    3.6750   -1.0720 O   0  0  0  0  0  0  0  0  0  0  0  0
   -1.3250   -3.6000   -0.1710 O   0  0  0  0  0  0  0  0  0  0  0  0
    2.1060    1.6380   -1.1400 C   0  0  0  0  0  0  0  0  0  0  0  0
   -4.2050   -0.3020   -0.4580 C   0  0  0  0  0  0  0  0  0  0  0  0
   -3.1350    2.1070   -0.1980 C   0  0  0  0  0  0  0  0  0  0  0  0
   -1.9420    2.5510    0.6430 C   0  0  0  0  0  0  0  0  0  0  0  0
    2.4970   -0.9650    1.5000 C   0  0  0  0  0  0  0  0  0  0  0  0
    1.4640    1.3780    1.6150 C   0  0  0  0  0  0  0  0  0  0  0  0
    1.2990   -2.6010    0.1590 N   0  0  0  0  0  0  0  0  0  0  0  0
   -3.6530   -1.5660   -0.4290 N   0  0  0  0  0  0  0  0  0  0  0  0
    3.0570   -0.9850   -1.0770 S   0  0  0  0  0  0  0  0  0  0  0  0
    1.2850    2.6000   -0.5260 C   0  0  0  0  0  0  0  0  0  0  0  0
    2.2620    0.4360   -0.5460 C   0  0  0  0  0  0  0  0  0  0  0  0
   -3.2580    0.6120   -0.2300 C   0  0  0  0  0  0  0  0  0  0  0  0
    0.1640   -1.7990    0.1970 C   0  0  0  0  0  0  0  0  0  0  0  0
    0.3090   -0.4840    0.4630 C   0  0  0  0  0  0  0  0  0  0  0  0
   -1.1820   -2.3960   -0.0560 C   0  0  0  0  0  0  0  0  0  0  0  0
   -0.8010    0.4620    0.3960 C   0  0  0  0  0  0  0  0  0  0  0  0
   -2.3260   -1.4810   -0.1610 C   0  0  0  0  0  0  0  0  0  0  0  0
   -2.0960   -0.1290    0.0160 C   0  0  0  0  0  0  0  0  0  0  0  0
    2.6420   -2.0290    0.3690 C   0  0  1  0  0  0  0  0  0  0  0  0
   -0.7300    1.7390    0.5780 N   0  0  0  0  0  0  0  0  0  0  0  0
    0.5950    2.3420    0.7860 C   0  0  1  0  0  0  0  0  0  0  0  0
    1.6600    0.1050    0.8100 C   0  0  1  0  0  0  0  0  0  0  0  0
    2.5990    1.8540   -2.0770 H   0  0  0  0  0  0  0  0  0  0  0  0
   -5.2460   -0.0850   -0.6450 H   0  0  0  0  0  0  0  0  0  0  0  0
   -4.0460    2.5370    0.2190 H   0  0  0  0  0  0  0  0  0  0  0  0
   -3.0060    2.4670   -1.2190 H   0  0  0  0  0  0  0  0  0  0  0  0
   -1.6860    3.5690    0.3480 H   0  0  0  0  0  0  0  0  0  0  0  0
   -2.2600    2.5800    1.6850 H   0  0  0  0  0  0  0  0  0  0  0  0
    1.9700   -1.3790    2.3600 H   0  0  0  0  0  0  0  0  0  0  0  0
    3.4690   -0.5710    1.7930 H   0  0  0  0  0  0  0  0  0  0  0  0
    2.4310    1.8370    1.8180 H   0  0  0  0  0  0  0  0  0  0  0  0
    0.9620    1.1440    2.5540 H   0  0  0  0  0  0  0  0  0  0  0  0
    1.2060   -3.5530   -0.0060 H   0  0  0  0  0  0  0  0  0  0  0  0
   -4.1420   -2.3920   -0.5710 H   0  0  0  0  0  0  0  0  0  0  0  0
    3.3940   -2.7870    0.5900 H   0  0  0  0  0  0  0  0  0  0  0  0
  2 13  2  0
  3 18  2  0
  4 26  1  0
  4 14  2  0
  4 13  1  0
  5 27  1  0
  5 11  1  0
  5 15  2  0
  6 29  1  0
  6 15  1  0
  6 28  1  0
  6  7  1  0
  7 30  1  0
  7 23  1  0
  7 31  1  0
  8 22  1  0
  8 25  1  0
  8 33  1  0
  8 32  1  0
  9 24  1  0
  9 25  1  0
  9 34  1  0
  9 35  1  0
 10 36  1  0
 10 16  1  0
 10 22  1  0
 11 37  1  0
 11 20  1  0
 12 14  1  0
 12 22  1  0
 13 24  1  0
 15 21  1  0
 16 18  1  0
 16 17  1  0
 17 19  2  0
 17 25  1  0
 18 20  1  0
 19 21  1  0
 19 23  1  0
 20 21  2  0
 22 38  1  1
 23 24  1  0
 24  1  1  1
 25 14  1  6
M  END
>  <id>  (41) 
141

>  <scaffolds>  (41) 
['C1=CCCCC1', 'O=C1C=CCCC1', 'C1=NCCCC1']

>  <name>  (41) 
Discorhabdin D

>  <formula>  (41) 
C18H14N3O2S

>  <SMILES>  (41) 
[H][C@@]27C[C@@]16C[C@H](Nc3c1c5=[N+]2CCc4c[nH]c(c3=O)c45)SC6=CC7=O

>  <ChEMBL_id>  (41) 
CHEMBL516335

>  <ZINC_id>  (41) 


>  <PubChem_id>  (41) 


>  <DrugBank_id>  (41) 


>  <CAS_no>  (41) 
115384-95-7

>  <references>  (41) 
[{'journal': {'name': 'Thesis, Rhodes University', 'id': 2}, 'title': 'Pyrroloiminoquinone Metabolites From South African Latrunculid Sponges', 'year': 2003, 'start_page': None, 'volume': None, 'issue': None, 'doi': None, 'isbn': None, 'despositor': {'code': 'rah', 'first_name': 'Rowan', 'last_name': 'Hatherley', 'id': 20}, 'refauthors_set': [{'author': {'first_name': 'Edith ', 'initials': 'EM', 'last_name': 'Antunes', 'id': 447}, 'first_author': True, 'id': 605}], 'id': 226}, {'journal': {'name': 'Journal of Natural Products', 'id': 5}, 'title': 'Cytotoxic Pyrroloiminoquinones from Four New Species of South African Latrunculid Sponges', 'year': 2004, 'start_page': 1268, 'volume': 67, 'issue': 8, 'doi': '10.1021/np034084b', 'isbn': '', 'despositor': {'code': 'DLP', 'first_name': 'David', 'last_name': 'Penkler', 'id': 23}, 'refauthors_set': [{'author': {'first_name': 'Edith ', 'initials': 'EM', 'last_name': 'Antunes', 'id': 447}, 'first_author': True, 'id': 681}, {'author': {'first_name': 'Denzil', 'initials': 'DR', 'last_name': 'Beukes', 'id': 453}, 'first_author': False, 'id': 682}, {'author': {'first_name': 'Michelle', 'initials': 'M', 'last_name': 'Kelly', 'id': 516}, 'first_author': False, 'id': 683}, {'author': {'first_name': 'Toufiek', 'initials': 'T', 'last_name': 'Samaai', 'id': 517}, 'first_author': False, 'id': 684}, {'author': {'first_name': 'Louis ', 'initials': 'LR', 'last_name': 'Barrows', 'id': 518}, 'first_author': False, 'id': 685}, {'author': {'first_name': 'Kathryn ', 'initials': 'KM', 'last_name': 'Marshall', 'id': 519}, 'first_author': False, 'id': 686}, {'author': {'first_name': 'Catherine ', 'initials': 'C', 'last_name': 'Sincich', 'id': 520}, 'first_author': False, 'id': 687}, {'author': {'first_name': 'Michael', 'initials': 'MT', 'last_name': 'Davies-Coleman', 'id': 449}, 'first_author': False, 'id': 688}], 'id': 253}]

>  <classifications>  (41) 
[{'classification': 'Alkaloid', 'id': 738}, {'classification': 'Discorhabdin', 'id': 770}, {'classification': 'Pyrroloiminoquinone', 'id': 820}, {'classification': 'Phenanthrolines (Classyfire)', 'id': 946}]

>  <molecular_mass>  (41) 
336.39

$$$$
SANC00142_minRM1.pdb
     RDKit          3D

 53 52  0  0  1  0  0  0  0  0999 V2000
    9.5030   -1.2390   -0.3550 C   0  0  0  0  0  0  0  0  0  0  0  0
    8.7410   -0.1560   -0.4220 C   0  0  0  0  0  0  0  0  0  0  0  0
    7.3430   -0.1760   -0.9430 C   0  0  0  0  0  0  0  0  0  0  0  0
    6.3910    0.4470    0.0790 C   0  0  0  0  0  0  0  0  0  0  0  0
    4.9550    0.4280   -0.4390 C   0  0  0  0  0  0  0  0  0  0  0  0
    4.0070    1.0630    0.5760 C   0  0  0  0  0  0  0  0  0  0  0  0
    2.5680    1.0290    0.0660 C   0  0  0  0  0  0  0  0  0  0  0  0
    1.6200    1.6740    1.0770 C   0  0  0  0  0  0  0  0  0  0  0  0
    0.2160    1.6220    0.5760 C   0  0  0  0  0  0  0  0  0  0  0  0
   -0.7970    1.1940    1.3250 C   0  0  0  0  0  0  0  0  0  0  0  0
   -2.2060    1.1700    0.8360 C   0  0  0  0  0  0  0  0  0  0  0  0
   -2.7570   -0.2650    0.8990 C   0  0  2  0  0  0  0  0  0  0  0  0
   -2.5690   -0.6950    1.9200 H   0  0  0  0  0  0  0  0  0  0  0  0
   -2.0920   -0.9600   -0.1390 O   0  0  0  0  0  0  0  0  0  0  0  0
   -1.6670   -2.2330    0.0670 C   0  0  0  0  0  0  0  0  0  0  0  0
   -0.9550   -2.7640   -1.1360 C   0  0  0  0  0  0  0  0  0  0  0  0
   -1.8710   -2.8120    1.1180 O   0  0  0  0  0  0  0  0  0  0  0  0
   -4.2870   -0.3090    0.6180 C   0  0  2  0  0  0  0  0  0  0  0  0
   -4.7960    0.2660    1.4420 H   0  0  0  0  0  0  0  0  0  0  0  0
   -4.7790   -1.7600    0.6550 C   0  0  0  0  0  0  0  0  0  0  0  0
   -4.5890    0.2900   -0.6820 N   0  0  0  0  0  0  0  0  0  0  0  0
   -5.5310    1.2940   -0.8500 C   0  0  0  0  0  0  0  0  0  0  0  0
   -5.7180    1.7820   -2.2650 C   0  0  0  0  0  0  0  0  0  0  0  0
   -6.1690    1.7520    0.0940 O   0  0  0  0  0  0  0  0  0  0  0  0
   10.5240   -1.2250    0.0150 H   0  0  0  0  0  0  0  0  0  0  0  0
    9.1850   -2.2310   -0.6570 H   0  0  0  0  0  0  0  0  0  0  0  0
    9.1130    0.8230   -0.1010 H   0  0  0  0  0  0  0  0  0  0  0  0
    7.3060    0.3800   -1.9050 H   0  0  0  0  0  0  0  0  0  0  0  0
    7.0140   -1.2040   -1.2030 H   0  0  0  0  0  0  0  0  0  0  0  0
    6.4630   -0.0970    1.0440 H   0  0  0  0  0  0  0  0  0  0  0  0
    6.7040    1.4850    0.3170 H   0  0  0  0  0  0  0  0  0  0  0  0
    4.8900    0.9580   -1.4130 H   0  0  0  0  0  0  0  0  0  0  0  0
    4.6380   -0.6120   -0.6630 H   0  0  0  0  0  0  0  0  0  0  0  0
    4.0840    0.5430    1.5540 H   0  0  0  0  0  0  0  0  0  0  0  0
    4.3140    2.1090    0.7900 H   0  0  0  0  0  0  0  0  0  0  0  0
    2.4940    1.5400   -0.9160 H   0  0  0  0  0  0  0  0  0  0  0  0
    2.2520   -0.0170   -0.1350 H   0  0  0  0  0  0  0  0  0  0  0  0
    1.7250    1.1880    2.0710 H   0  0  0  0  0  0  0  0  0  0  0  0
    1.9000    2.7350    1.2580 H   0  0  0  0  0  0  0  0  0  0  0  0
    0.0670    1.9720   -0.4500 H   0  0  0  0  0  0  0  0  0  0  0  0
   -0.6490    0.8470    2.3530 H   0  0  0  0  0  0  0  0  0  0  0  0
   -2.8300    1.8370    1.4700 H   0  0  0  0  0  0  0  0  0  0  0  0
   -2.2990    1.5910   -0.1880 H   0  0  0  0  0  0  0  0  0  0  0  0
   -0.0610   -2.1660   -1.3680 H   0  0  0  0  0  0  0  0  0  0  0  0
   -0.6320   -3.8030   -0.9790 H   0  0  0  0  0  0  0  0  0  0  0  0
   -1.5980   -2.7460   -2.0280 H   0  0  0  0  0  0  0  0  0  0  0  0
   -4.3720   -2.3760   -0.1600 H   0  0  0  0  0  0  0  0  0  0  0  0
   -4.5060   -2.2590    1.5980 H   0  0  0  0  0  0  0  0  0  0  0  0
   -5.8740   -1.8180    0.5730 H   0  0  0  0  0  0  0  0  0  0  0  0
   -4.0860   -0.0750   -1.4830 H   0  0  0  0  0  0  0  0  0  0  0  0
   -4.7710    2.0980   -2.7330 H   0  0  0  0  0  0  0  0  0  0  0  0
   -6.1670    1.0100   -2.9050 H   0  0  0  0  0  0  0  0  0  0  0  0
   -6.3920    2.6530   -2.2980 H   0  0  0  0  0  0  0  0  0  0  0  0
  1 26  1  0
  1  2  2  0
  1 25  1  0
  2  3  1  0
  2 27  1  0
  3 28  1  0
  3 29  1  0
  3  4  1  0
  4  5  1  0
  4 31  1  0
  4 30  1  0
  5 32  1  0
  5 33  1  0
  5  6  1  0
  6  7  1  0
  6 35  1  0
  6 34  1  0
  7 36  1  0
  7 37  1  0
  7  8  1  0
  8  9  1  0
  8 39  1  0
  8 38  1  0
  9 40  1  0
  9 10  2  0
 10 11  1  0
 10 41  1  0
 11 43  1  0
 11 12  1  0
 11 42  1  0
 12 14  1  0
 12 18  1  0
 12 13  1  1
 14 15  1  0
 15 16  1  0
 15 17  2  0
 16 46  1  0
 16 44  1  0
 16 45  1  0
 18 21  1  0
 18 20  1  0
 18 19  1  1
 20 47  1  0
 20 49  1  0
 20 48  1  0
 21 50  1  0
 21 22  1  0
 22 23  1  0
 22 24  2  0
 23 52  1  0
 23 51  1  0
 23 53  1  0
M  END
>  <id>  (42) 
142

>  <scaffolds>  (42) 
[]

>  <name>  (42) 
2-acetamido-3-acetoxy-5,13-tetradecadiene

>  <formula>  (42) 
C18H31NO3

>  <SMILES>  (42) 
C=CCCCCCC/C=C/C[C@H](OC(C)=O)[C@H](C)NC(C)=O

>  <ChEMBL_id>  (42) 


>  <ZINC_id>  (42) 


>  <PubChem_id>  (42) 


>  <DrugBank_id>  (42) 


>  <CAS_no>  (42) 
181523-09-1

>  <references>  (42) 
[{'journal': {'name': 'Thesis, Rhodes University', 'id': 2}, 'title': 'Biologically Active Natural Products From South African Marine Invertebrates', 'year': 1996, 'start_page': None, 'volume': None, 'issue': None, 'doi': None, 'isbn': None, 'despositor': {'code': 'rah', 'first_name': 'Rowan', 'last_name': 'Hatherley', 'id': 20}, 'refauthors_set': [{'author': {'first_name': 'Gregory', 'initials': 'GJ', 'last_name': 'Hooper', 'id': 448}, 'first_author': True, 'id': 606}], 'id': 227}]

>  <classifications>  (42) 
[{'classification': 'Acyclic', 'id': 736}, {'classification': 'Carboxylic acids and derivatives (Classyfire)', 'id': 950}]

>  <molecular_mass>  (42) 
309.44

$$$$
SANC00143_minRM1.pdb
     RDKit          3D

 55 54  0  0  1  0  0  0  0  0999 V2000
    9.6700    0.8920    1.1350 C   0  0  0  0  0  0  0  0  0  0  0  0
    8.7040    0.2350    0.1620 C   0  0  0  0  0  0  0  0  0  0  0  0
    7.2820    0.2540    0.7160 C   0  0  0  0  0  0  0  0  0  0  0  0
    6.3110   -0.4080   -0.2590 C   0  0  0  0  0  0  0  0  0  0  0  0
    4.8880   -0.3830    0.2950 C   0  0  0  0  0  0  0  0  0  0  0  0
    3.9170   -1.0520   -0.6760 C   0  0  0  0  0  0  0  0  0  0  0  0
    2.4920   -1.0110   -0.1300 C   0  0  0  0  0  0  0  0  0  0  0  0
    1.5250   -1.7030   -1.0900 C   0  0  0  0  0  0  0  0  0  0  0  0
    0.1320   -1.6300   -0.5620 C   0  0  0  0  0  0  0  0  0  0  0  0
   -0.8930   -1.2090   -1.2980 C   0  0  0  0  0  0  0  0  0  0  0  0
   -2.2920   -1.1720   -0.7840 C   0  0  0  0  0  0  0  0  0  0  0  0
   -2.8560    0.2550   -0.8930 C   0  0  2  0  0  0  0  0  0  0  0  0
   -2.6870    0.6490   -1.9320 H   0  0  0  0  0  0  0  0  0  0  0  0
   -2.1910    0.9950    0.1130 O   0  0  0  0  0  0  0  0  0  0  0  0
   -1.7260    2.2410   -0.1570 C   0  0  0  0  0  0  0  0  0  0  0  0
   -1.0340    2.8280    1.0300 C   0  0  0  0  0  0  0  0  0  0  0  0
   -1.8920    2.7630   -1.2420 O   0  0  0  0  0  0  0  0  0  0  0  0
   -4.3830    0.2930   -0.5940 C   0  0  2  0  0  0  0  0  0  0  0  0
   -4.8970   -0.3140   -1.3910 H   0  0  0  0  0  0  0  0  0  0  0  0
   -4.8910    1.7380   -0.6700 C   0  0  0  0  0  0  0  0  0  0  0  0
   -4.6610   -0.2640    0.7310 N   0  0  0  0  0  0  0  0  0  0  0  0
   -5.5480   -1.3090    0.9410 C   0  0  0  0  0  0  0  0  0  0  0  0
   -5.7130   -1.7400    2.3780 C   0  0  0  0  0  0  0  0  0  0  0  0
   -6.1530   -1.8460    0.0180 O   0  0  0  0  0  0  0  0  0  0  0  0
    9.4110    1.9420    1.3350 H   0  0  0  0  0  0  0  0  0  0  0  0
    9.6940    0.3800    2.1080 H   0  0  0  0  0  0  0  0  0  0  0  0
   10.7010    0.8890    0.7530 H   0  0  0  0  0  0  0  0  0  0  0  0
    8.7450    0.7490   -0.8220 H   0  0  0  0  0  0  0  0  0  0  0  0
    9.0260   -0.8060   -0.0520 H   0  0  0  0  0  0  0  0  0  0  0  0
    7.2480   -0.2570    1.7020 H   0  0  0  0  0  0  0  0  0  0  0  0
    6.9660    1.2970    0.9290 H   0  0  0  0  0  0  0  0  0  0  0  0
    6.3500    0.0990   -1.2460 H   0  0  0  0  0  0  0  0  0  0  0  0
    6.6250   -1.4530   -0.4670 H   0  0  0  0  0  0  0  0  0  0  0  0
    4.8500   -0.8840    1.2850 H   0  0  0  0  0  0  0  0  0  0  0  0
    4.5710    0.6630    0.4960 H   0  0  0  0  0  0  0  0  0  0  0  0
    3.9640   -0.5590   -1.6700 H   0  0  0  0  0  0  0  0  0  0  0  0
    4.2260   -2.1010   -0.8690 H   0  0  0  0  0  0  0  0  0  0  0  0
    2.4480   -1.4870    0.8720 H   0  0  0  0  0  0  0  0  0  0  0  0
    2.1720    0.0380    0.0420 H   0  0  0  0  0  0  0  0  0  0  0  0
    1.6080   -1.2610   -2.1060 H   0  0  0  0  0  0  0  0  0  0  0  0
    1.8030   -2.7700   -1.2280 H   0  0  0  0  0  0  0  0  0  0  0  0
    0.0030   -1.9580    0.4750 H   0  0  0  0  0  0  0  0  0  0  0  0
   -0.7630   -0.8800   -2.3350 H   0  0  0  0  0  0  0  0  0  0  0  0
   -2.9230   -1.8690   -1.3790 H   0  0  0  0  0  0  0  0  0  0  0  0
   -2.3650   -1.5510    0.2580 H   0  0  0  0  0  0  0  0  0  0  0  0
   -0.3920    2.1000    1.5490 H   0  0  0  0  0  0  0  0  0  0  0  0
   -0.4010    3.6790    0.7360 H   0  0  0  0  0  0  0  0  0  0  0  0
   -1.7680    3.1980    1.7620 H   0  0  0  0  0  0  0  0  0  0  0  0
   -4.4890    2.3800    0.1260 H   0  0  0  0  0  0  0  0  0  0  0  0
   -4.6230    2.2120   -1.6260 H   0  0  0  0  0  0  0  0  0  0  0  0
   -5.9860    1.7860   -0.5880 H   0  0  0  0  0  0  0  0  0  0  0  0
   -4.1780    0.1590    1.5140 H   0  0  0  0  0  0  0  0  0  0  0  0
   -4.7650   -2.0770    2.8220 H   0  0  0  0  0  0  0  0  0  0  0  0
   -6.1040   -0.9290    3.0090 H   0  0  0  0  0  0  0  0  0  0  0  0
   -6.4200   -2.5790    2.4620 H   0  0  0  0  0  0  0  0  0  0  0  0
  1  2  1  0
  1 27  1  0
  1 25  1  0
  1 26  1  0
  2 28  1  0
  2 29  1  0
  2  3  1  0
  3  4  1  0
  3 31  1  0
  3 30  1  0
  4 32  1  0
  4 33  1  0
  4  5  1  0
  5  6  1  0
  5 35  1  0
  5 34  1  0
  6 36  1  0
  6 37  1  0
  6  7  1  0
  7  8  1  0
  7 39  1  0
  7 38  1  0
  8 40  1  0
  8 41  1  0
  8  9  1  0
  9 10  2  0
  9 42  1  0
 10 43  1  0
 10 11  1  0
 11 44  1  0
 11 12  1  0
 11 45  1  0
 12 13  1  6
 12 18  1  0
 12 14  1  0
 14 15  1  0
 15 17  2  0
 15 16  1  0
 16 47  1  0
 16 46  1  0
 16 48  1  0
 18 19  1  6
 18 20  1  0
 18 21  1  0
 20 50  1  0
 20 51  1  0
 20 49  1  0
 21 22  1  0
 21 52  1  0
 22 24  2  0
 22 23  1  0
 23 55  1  0
 23 53  1  0
 23 54  1  0
M  END
>  <id>  (43) 
143

>  <scaffolds>  (43) 
[]

>  <name>  (43) 
2-acetamido-3-acetoxy-5-tetradecene

>  <formula>  (43) 
C18H33NO3

>  <SMILES>  (43) 
CCCCCCCC/C=C/C[C@H](OC(C)=O)[C@H](C)NC(C)=O

>  <ChEMBL_id>  (43) 


>  <ZINC_id>  (43) 


>  <PubChem_id>  (43) 


>  <DrugBank_id>  (43) 


>  <CAS_no>  (43) 
181523-11-5

>  <references>  (43) 
[{'journal': {'name': 'Thesis, Rhodes University', 'id': 2}, 'title': 'Biologically Active Natural Products From South African Marine Invertebrates', 'year': 1996, 'start_page': None, 'volume': None, 'issue': None, 'doi': None, 'isbn': None, 'despositor': {'code': 'rah', 'first_name': 'Rowan', 'last_name': 'Hatherley', 'id': 20}, 'refauthors_set': [{'author': {'first_name': 'Gregory', 'initials': 'GJ', 'last_name': 'Hooper', 'id': 448}, 'first_author': True, 'id': 606}], 'id': 227}]

>  <classifications>  (43) 
[{'classification': 'Acyclic', 'id': 736}, {'classification': 'Carboxylic acids and derivatives (Classyfire)', 'id': 950}]

>  <molecular_mass>  (43) 
311.46

$$$$
SANC00144_minRM1.pdb
     RDKit          3D

 50 49  0  0  1  0  0  0  0  0999 V2000
    9.2460   -1.9790    0.4330 C   0  0  0  0  0  0  0  0  0  0  0  0
    8.6200   -0.8920   -0.0010 C   0  0  0  0  0  0  0  0  0  0  0  0
    7.2420   -0.9220   -0.5710 C   0  0  0  0  0  0  0  0  0  0  0  0
    6.3550    0.1010    0.1400 C   0  0  0  0  0  0  0  0  0  0  0  0
    4.9440    0.0900   -0.4430 C   0  0  0  0  0  0  0  0  0  0  0  0
    4.0600    1.1120    0.2680 C   0  0  0  0  0  0  0  0  0  0  0  0
    2.6510    1.1120   -0.3190 C   0  0  0  0  0  0  0  0  0  0  0  0
    1.7700    2.1370    0.3930 C   0  0  0  0  0  0  0  0  0  0  0  0
    0.3920    2.1300   -0.1770 C   0  0  0  0  0  0  0  0  0  0  0  0
   -0.6980    2.0700    0.5830 C   0  0  0  0  0  0  0  0  0  0  0  0
   -2.0750    2.1030    0.0160 C   0  0  0  0  0  0  0  0  0  0  0  0
   -2.8520    0.8380    0.4230 C   0  0  1  0  0  0  0  0  0  0  0  0
   -4.3360    0.9740    0.0020 C   0  0  0  0  0  0  0  0  0  0  0  0
   -5.1000   -0.2020    0.4080 N   0  0  0  0  0  0  0  0  0  0  0  0
   -6.1310   -0.7140   -0.3670 C   0  0  0  0  0  0  0  0  0  0  0  0
   -6.8380   -1.9170    0.2040 C   0  0  0  0  0  0  0  0  0  0  0  0
   -6.4390   -0.2170   -1.4490 O   0  0  0  0  0  0  0  0  0  0  0  0
   -2.2680   -0.1980   -0.3410 O   0  0  0  0  0  0  0  0  0  0  0  0
   -2.2840   -1.4690    0.1280 C   0  0  0  0  0  0  0  0  0  0  0  0
   -1.6630   -2.4120   -0.8520 C   0  0  0  0  0  0  0  0  0  0  0  0
   -2.7330   -1.7410    1.2280 O   0  0  0  0  0  0  0  0  0  0  0  0
   10.2540   -1.9600    0.8370 H   0  0  0  0  0  0  0  0  0  0  0  0
    8.8170   -2.9770    0.4280 H   0  0  0  0  0  0  0  0  0  0  0  0
    9.1010    0.0930    0.0280 H   0  0  0  0  0  0  0  0  0  0  0  0
    7.2970   -0.7060   -1.6610 H   0  0  0  0  0  0  0  0  0  0  0  0
    6.7900   -1.9350   -0.5100 H   0  0  0  0  0  0  0  0  0  0  0  0
    6.3290   -0.1130    1.2290 H   0  0  0  0  0  0  0  0  0  0  0  0
    6.7970    1.1170    0.0630 H   0  0  0  0  0  0  0  0  0  0  0  0
    4.9770    0.2980   -1.5340 H   0  0  0  0  0  0  0  0  0  0  0  0
    4.4990   -0.9240   -0.3630 H   0  0  0  0  0  0  0  0  0  0  0  0
    4.0260    0.8990    1.3580 H   0  0  0  0  0  0  0  0  0  0  0  0
    4.5060    2.1270    0.1940 H   0  0  0  0  0  0  0  0  0  0  0  0
    2.6870    1.3210   -1.4090 H   0  0  0  0  0  0  0  0  0  0  0  0
    2.1960    0.1020   -0.2410 H   0  0  0  0  0  0  0  0  0  0  0  0
    1.7680    1.9500    1.4870 H   0  0  0  0  0  0  0  0  0  0  0  0
    2.1940    3.1600    0.2890 H   0  0  0  0  0  0  0  0  0  0  0  0
    0.3320    2.1900   -1.2680 H   0  0  0  0  0  0  0  0  0  0  0  0
   -0.6390    2.0050    1.6750 H   0  0  0  0  0  0  0  0  0  0  0  0
   -2.6020    3.0050    0.3970 H   0  0  0  0  0  0  0  0  0  0  0  0
   -2.0760    2.2230   -1.0890 H   0  0  0  0  0  0  0  0  0  0  0  0
   -2.7600    0.6720    1.5310 H   0  0  0  0  0  0  0  0  0  0  0  0
   -4.7680    1.8960    0.4620 H   0  0  0  0  0  0  0  0  0  0  0  0
   -4.4060    1.1390   -1.1000 H   0  0  0  0  0  0  0  0  0  0  0  0
   -4.9050   -0.6000    1.3230 H   0  0  0  0  0  0  0  0  0  0  0  0
   -6.1470   -2.7460    0.4190 H   0  0  0  0  0  0  0  0  0  0  0  0
   -7.3650   -1.6740    1.1390 H   0  0  0  0  0  0  0  0  0  0  0  0
   -7.5970   -2.3000   -0.4970 H   0  0  0  0  0  0  0  0  0  0  0  0
   -0.5710   -2.2690   -0.8900 H   0  0  0  0  0  0  0  0  0  0  0  0
   -1.8530   -3.4590   -0.5710 H   0  0  0  0  0  0  0  0  0  0  0  0
   -2.0420   -2.2620   -1.8730 H   0  0  0  0  0  0  0  0  0  0  0  0
  1  2  2  0
  1 23  1  0
  1 22  1  0
  2  3  1  0
  2 24  1  0
  3 25  1  0
  3 26  1  0
  3  4  1  0
  4  5  1  0
  4 28  1  0
  4 27  1  0
  5 29  1  0
  5 30  1  0
  5  6  1  0
  6  7  1  0
  6 32  1  0
  6 31  1  0
  7 33  1  0
  7 34  1  0
  7  8  1  0
  8  9  1  0
  8 36  1  0
  8 35  1  0
  9 37  1  0
  9 10  2  0
 10 11  1  0
 10 38  1  0
 11 40  1  0
 11 39  1  0
 11 12  1  0
 12 18  1  0
 12 13  1  0
 12 41  1  1
 13 43  1  0
 13 14  1  0
 13 42  1  0
 14 15  1  0
 14 44  1  0
 15 17  2  0
 15 16  1  0
 16 47  1  0
 16 45  1  0
 16 46  1  0
 18 19  1  0
 19 20  1  0
 19 21  2  0
 20 50  1  0
 20 48  1  0
 20 49  1  0
M  END
>  <id>  (44) 
144

>  <scaffolds>  (44) 
[]

>  <name>  (44) 
1-acetamido-2-acetoxy-4,12-tridecadiene

>  <formula>  (44) 
C17H29NO3

>  <SMILES>  (44) 
C=CCCCCCC/C=C/CC(CNC(C)=O)OC(C)=O

>  <ChEMBL_id>  (44) 


>  <ZINC_id>  (44) 


>  <PubChem_id>  (44) 


>  <DrugBank_id>  (44) 


>  <CAS_no>  (44) 
181523-13-7

>  <references>  (44) 
[{'journal': {'name': 'Thesis, Rhodes University', 'id': 2}, 'title': 'Biologically Active Natural Products From South African Marine Invertebrates', 'year': 1996, 'start_page': None, 'volume': None, 'issue': None, 'doi': None, 'isbn': None, 'despositor': {'code': 'rah', 'first_name': 'Rowan', 'last_name': 'Hatherley', 'id': 20}, 'refauthors_set': [{'author': {'first_name': 'Gregory', 'initials': 'GJ', 'last_name': 'Hooper', 'id': 448}, 'first_author': True, 'id': 606}], 'id': 227}]

>  <classifications>  (44) 
[{'classification': 'Acyclic', 'id': 736}, {'classification': 'Carboxylic acids and derivatives (Classyfire)', 'id': 950}]

>  <molecular_mass>  (44) 
295.42

$$$$
SANC00145_minRM1.pdb
     RDKit          3D

 52 51  0  0  1  0  0  0  0  0999 V2000
    9.4010    1.9680    0.3000 C   0  0  0  0  0  0  0  0  0  0  0  0
    8.5230    0.8820   -0.3010 C   0  0  0  0  0  0  0  0  0  0  0  0
    7.1220    0.9230    0.3050 C   0  0  0  0  0  0  0  0  0  0  0  0
    6.2370   -0.1630   -0.3020 C   0  0  0  0  0  0  0  0  0  0  0  0
    4.8350   -0.1210    0.3020 C   0  0  0  0  0  0  0  0  0  0  0  0
    3.9540   -1.2130   -0.3010 C   0  0  0  0  0  0  0  0  0  0  0  0
    2.5460   -1.1600    0.2870 C   0  0  0  0  0  0  0  0  0  0  0  0
    1.6740   -2.2670   -0.3050 C   0  0  0  0  0  0  0  0  0  0  0  0
    0.2970   -2.2020    0.2640 C   0  0  0  0  0  0  0  0  0  0  0  0
   -0.7910   -2.1550   -0.4990 C   0  0  0  0  0  0  0  0  0  0  0  0
   -2.1710   -2.1360    0.0650 C   0  0  0  0  0  0  0  0  0  0  0  0
   -2.9130   -0.8640   -0.3840 C   0  0  1  0  0  0  0  0  0  0  0  0
   -4.4010   -0.9440    0.0360 C   0  0  0  0  0  0  0  0  0  0  0  0
   -5.1310    0.2310   -0.4290 N   0  0  0  0  0  0  0  0  0  0  0  0
   -6.1130    0.8400    0.3370 C   0  0  0  0  0  0  0  0  0  0  0  0
   -6.7920    2.0280   -0.2990 C   0  0  0  0  0  0  0  0  0  0  0  0
   -6.4020    0.4360    1.4600 O   0  0  0  0  0  0  0  0  0  0  0  0
   -2.3060    0.1790    0.3520 O   0  0  0  0  0  0  0  0  0  0  0  0
   -2.3080    1.4390   -0.1460 C   0  0  0  0  0  0  0  0  0  0  0  0
   -1.7250    2.4160    0.8230 C   0  0  0  0  0  0  0  0  0  0  0  0
   -2.7340    1.6850   -1.2600 O   0  0  0  0  0  0  0  0  0  0  0  0
    9.5110    1.8610    1.3890 H   0  0  0  0  0  0  0  0  0  0  0  0
   10.4160    1.9530   -0.1220 H   0  0  0  0  0  0  0  0  0  0  0  0
    9.0000    2.9760    0.1190 H   0  0  0  0  0  0  0  0  0  0  0  0
    8.4740    0.9970   -1.4040 H   0  0  0  0  0  0  0  0  0  0  0  0
    8.9860   -0.1150   -0.1430 H   0  0  0  0  0  0  0  0  0  0  0  0
    7.1770    0.8070    1.4090 H   0  0  0  0  0  0  0  0  0  0  0  0
    6.6660    1.9240    0.1510 H   0  0  0  0  0  0  0  0  0  0  0  0
    6.1850   -0.0470   -1.4050 H   0  0  0  0  0  0  0  0  0  0  0  0
    6.6940   -1.1640   -0.1460 H   0  0  0  0  0  0  0  0  0  0  0  0
    4.8860   -0.2310    1.4060 H   0  0  0  0  0  0  0  0  0  0  0  0
    4.3760    0.8780    0.1410 H   0  0  0  0  0  0  0  0  0  0  0  0
    3.9150   -1.1100   -1.4060 H   0  0  0  0  0  0  0  0  0  0  0  0
    4.4070   -2.2120   -0.1280 H   0  0  0  0  0  0  0  0  0  0  0  0
    2.5850   -1.2490    1.3930 H   0  0  0  0  0  0  0  0  0  0  0  0
    2.0820   -0.1700    0.1000 H   0  0  0  0  0  0  0  0  0  0  0  0
    1.6700   -2.2020   -1.4140 H   0  0  0  0  0  0  0  0  0  0  0  0
    2.1070   -3.2680   -0.0890 H   0  0  0  0  0  0  0  0  0  0  0  0
    0.2380   -2.2080    1.3570 H   0  0  0  0  0  0  0  0  0  0  0  0
   -0.7310   -2.1410   -1.5930 H   0  0  0  0  0  0  0  0  0  0  0  0
   -2.7200   -3.0370   -0.2880 H   0  0  0  0  0  0  0  0  0  0  0  0
   -2.1770   -2.2220    1.1730 H   0  0  0  0  0  0  0  0  0  0  0  0
   -2.8110   -0.7340   -1.4960 H   0  0  0  0  0  0  0  0  0  0  0  0
   -4.8560   -1.8720   -0.3890 H   0  0  0  0  0  0  0  0  0  0  0  0
   -4.4810   -1.0620    1.1430 H   0  0  0  0  0  0  0  0  0  0  0  0
   -4.9420    0.5650   -1.3670 H   0  0  0  0  0  0  0  0  0  0  0  0
   -7.3000    1.7660   -1.2390 H   0  0  0  0  0  0  0  0  0  0  0  0
   -7.5590    2.4500    0.3700 H   0  0  0  0  0  0  0  0  0  0  0  0
   -6.0810    2.8390   -0.5160 H   0  0  0  0  0  0  0  0  0  0  0  0
   -1.0830    1.9490    1.5880 H   0  0  0  0  0  0  0  0  0  0  0  0
   -1.1210    3.1680    0.2970 H   0  0  0  0  0  0  0  0  0  0  0  0
   -2.5300    2.9460    1.3570 H   0  0  0  0  0  0  0  0  0  0  0  0
  1  2  1  0
  1 23  1  0
  1 24  1  0
  1 22  1  0
  2 25  1  0
  2 26  1  0
  2  3  1  0
  3  4  1  0
  3 28  1  0
  3 27  1  0
  4 29  1  0
  4 30  1  0
  4  5  1  0
  5  6  1  0
  5 32  1  0
  5 31  1  0
  6 33  1  0
  6 34  1  0
  6  7  1  0
  7  8  1  0
  7 36  1  0
  7 35  1  0
  8 37  1  0
  8 38  1  0
  8  9  1  0
  9 10  2  0
  9 39  1  0
 10 40  1  0
 10 11  1  0
 11 12  1  0
 11 41  1  0
 11 42  1  0
 12 43  1  6
 12 13  1  0
 12 18  1  0
 13 14  1  0
 13 44  1  0
 13 45  1  0
 14 46  1  0
 14 15  1  0
 15 16  1  0
 15 17  2  0
 16 47  1  0
 16 49  1  0
 16 48  1  0
 18 19  1  0
 19 21  2  0
 19 20  1  0
 20 51  1  0
 20 52  1  0
 20 50  1  0
M  END
>  <id>  (45) 
145

>  <scaffolds>  (45) 
[]

>  <name>  (45) 
1-Acetamido-2-acetoxy-4E-tridecene

>  <formula>  (45) 
C17H31NO3

>  <SMILES>  (45) 
CCCCCCCC/C=C/CC(CNC(C)=O)OC(C)=O

>  <ChEMBL_id>  (45) 


>  <ZINC_id>  (45) 


>  <PubChem_id>  (45) 


>  <DrugBank_id>  (45) 


>  <CAS_no>  (45) 
181523-15-9

>  <references>  (45) 
[{'journal': {'name': 'Thesis, Rhodes University', 'id': 2}, 'title': 'Biologically Active Natural Products From South African Marine Invertebrates', 'year': 1996, 'start_page': None, 'volume': None, 'issue': None, 'doi': None, 'isbn': None, 'despositor': {'code': 'rah', 'first_name': 'Rowan', 'last_name': 'Hatherley', 'id': 20}, 'refauthors_set': [{'author': {'first_name': 'Gregory', 'initials': 'GJ', 'last_name': 'Hooper', 'id': 448}, 'first_author': True, 'id': 606}], 'id': 227}]

>  <classifications>  (45) 
[{'classification': 'Acyclic', 'id': 736}, {'classification': 'Carboxylic acids and derivatives (Classyfire)', 'id': 950}]

>  <molecular_mass>  (45) 
297.43

$$$$
SANC00146_minRM1.pdb
     RDKit          3D

 52 55  0  0  1  0  0  0  0  0999 V2000
   -5.4480    1.8930    0.3640 C   0  0  0  0  0  0  0  0  0  0  0  0
   -4.9910    0.7500   -0.1340 C   0  0  0  0  0  0  0  0  0  0  0  0
   -3.9070   -0.0320    0.5280 C   0  0  1  0  0  0  0  0  0  0  0  0
   -4.0470   -1.5590    0.3390 C   0  0  0  0  0  0  0  0  0  0  0  0
   -2.6250   -2.1170    0.1400 C   0  0  0  0  0  0  0  0  0  0  0  0
   -1.7100   -0.9370    0.4550 C   0  0  1  0  0  0  0  0  0  0  0  0
   -0.3110   -0.9320   -0.1470 C   0  0  2  0  0  0  0  0  0  0  0  0
    0.4650   -2.1750    0.2800 C   0  0  0  0  0  0  0  0  0  0  0  0
    1.8900   -2.1190   -0.2570 C   0  0  0  0  0  0  0  0  0  0  0  0
    2.5890   -0.8590    0.2450 C   0  0  1  0  0  0  0  0  0  0  0  0
    4.0340   -0.8180   -0.2430 C   0  0  0  0  0  0  0  0  0  0  0  0
    4.7190    0.4610    0.1640 C   0  0  0  0  0  0  0  0  0  0  0  0
    5.9360    0.5400    0.1840 O   0  0  0  0  0  0  0  0  0  0  0  0
    3.8740    1.6140    0.5200 C   0  0  0  0  0  0  0  0  0  0  0  0
    2.5520    1.5950    0.3600 C   0  0  0  0  0  0  0  0  0  0  0  0
    1.8350    0.4040   -0.2050 C   0  0  1  0  0  0  0  0  0  0  0  0
    1.8430    0.5560   -1.7260 C   0  0  0  0  0  0  0  0  0  0  0  0
    0.3980    0.3380    0.3530 C   0  0  1  0  0  0  0  0  0  0  0  0
   -0.3970    1.5990   -0.0100 C   0  0  0  0  0  0  0  0  0  0  0  0
   -1.8460    1.5360    0.4710 C   0  0  0  0  0  0  0  0  0  0  0  0
   -2.5120    0.2730   -0.0570 C   0  0  2  0  0  0  0  0  0  0  0  0
   -2.5930    0.3170   -1.5800 C   0  0  0  0  0  0  0  0  0  0  0  0
   -5.0890    2.3490    1.2810 H   0  0  0  0  0  0  0  0  0  0  0  0
   -6.2300    2.4770   -0.1110 H   0  0  0  0  0  0  0  0  0  0  0  0
   -5.3980    0.3440   -1.0660 H   0  0  0  0  0  0  0  0  0  0  0  0
   -3.9090    0.1950    1.6250 H   0  0  0  0  0  0  0  0  0  0  0  0
   -4.5480   -2.0190    1.2120 H   0  0  0  0  0  0  0  0  0  0  0  0
   -4.7010   -1.8230   -0.5140 H   0  0  0  0  0  0  0  0  0  0  0  0
   -2.4250   -2.9910    0.7900 H   0  0  0  0  0  0  0  0  0  0  0  0
   -2.4700   -2.5000   -0.8880 H   0  0  0  0  0  0  0  0  0  0  0  0
   -1.6120   -0.8780    1.5730 H   0  0  0  0  0  0  0  0  0  0  0  0
   -0.3900   -0.9150   -1.2660 H   0  0  0  0  0  0  0  0  0  0  0  0
    0.4700   -2.2830    1.3850 H   0  0  0  0  0  0  0  0  0  0  0  0
   -0.0430   -3.0930   -0.0850 H   0  0  0  0  0  0  0  0  0  0  0  0
    2.4540   -3.0250    0.0550 H   0  0  0  0  0  0  0  0  0  0  0  0
    1.8920   -2.1640   -1.3670 H   0  0  0  0  0  0  0  0  0  0  0  0
    2.6060   -0.8820    1.3670 H   0  0  0  0  0  0  0  0  0  0  0  0
    4.6010   -1.6910    0.1470 H   0  0  0  0  0  0  0  0  0  0  0  0
    4.1050   -0.9260   -1.3460 H   0  0  0  0  0  0  0  0  0  0  0  0
    4.3970    2.4900    0.9190 H   0  0  0  0  0  0  0  0  0  0  0  0
    1.9380    2.4680    0.6180 H   0  0  0  0  0  0  0  0  0  0  0  0
    2.7980    0.9490   -2.1050 H   0  0  0  0  0  0  0  0  0  0  0  0
    1.6710   -0.3950   -2.2530 H   0  0  0  0  0  0  0  0  0  0  0  0
    1.0640    1.2530   -2.0760 H   0  0  0  0  0  0  0  0  0  0  0  0
    0.4690    0.2930    1.4720 H   0  0  0  0  0  0  0  0  0  0  0  0
    0.1020    2.4930    0.4310 H   0  0  0  0  0  0  0  0  0  0  0  0
   -0.3530    1.7900   -1.1050 H   0  0  0  0  0  0  0  0  0  0  0  0
   -1.8830    1.5730    1.5810 H   0  0  0  0  0  0  0  0  0  0  0  0
   -2.4040    2.4410    0.1520 H   0  0  0  0  0  0  0  0  0  0  0  0
   -1.6140    0.1760   -2.0660 H   0  0  0  0  0  0  0  0  0  0  0  0
   -3.2400   -0.4640   -2.0040 H   0  0  0  0  0  0  0  0  0  0  0  0
   -2.9930    1.2760   -1.9410 H   0  0  0  0  0  0  0  0  0  0  0  0
  1  2  2  0
  1 24  1  0
  1 23  1  0
  2 25  1  0
  2  3  1  0
  3 21  1  0
  3  4  1  0
  3 26  1  1
  4 28  1  0
  4  5  1  0
  4 27  1  0
  5 30  1  0
  5  6  1  0
  5 29  1  0
  6  7  1  0
  6 21  1  0
  6 31  1  1
  7 32  1  6
  7  8  1  0
  7 18  1  0
  8  9  1  0
  8 34  1  0
  8 33  1  0
  9 36  1  0
  9 35  1  0
  9 10  1  0
 10 11  1  0
 10 16  1  0
 10 37  1  1
 11 39  1  0
 11 38  1  0
 11 12  1  0
 12 13  2  0
 12 14  1  0
 14 15  2  0
 14 40  1  0
 15 16  1  0
 15 41  1  0
 16 17  1  6
 16 18  1  0
 17 43  1  0
 17 42  1  0
 17 44  1  0
 18 19  1  0
 18 45  1  1
 19 47  1  0
 19 46  1  0
 19 20  1  0
 20 21  1  0
 20 49  1  0
 20 48  1  0
 21 22  1  6
 22 50  1  0
 22 51  1  0
 22 52  1  0
M  END
>  <id>  (46) 
146

>  <scaffolds>  (46) 
['C1=CC2CCCCC2CC1', 'C1=CCCCC1', 'C1CCC(C2CCCC2)CC1', 'C1CCCCC1', 'O=C1C=CCCC1', 'O=C1C=CC2C(CCC3C4CCCC4CCC23)C1', 'C1=CC2C(CC1)CCC1C3CCCC3CCC21', 'C1CCC2CCCCC2C1']

>  <name>  (46) 
5[alpha]-Pregna-1,20-dien-3-one

>  <formula>  (46) 
C21H30O

>  <SMILES>  (46) 
C=CC3CCC4C2CCC1CC(=O)C=C[C@]1(C)C2CC[C@]34C

>  <ChEMBL_id>  (46) 


>  <ZINC_id>  (46) 


>  <PubChem_id>  (46) 


>  <DrugBank_id>  (46) 


>  <CAS_no>  (46) 
65754-62-3

>  <references>  (46) 
[{'journal': {'name': 'Thesis, Rhodes University', 'id': 2}, 'title': 'Biologically Active Natural Products From South African Marine Invertebrates', 'year': 1996, 'start_page': None, 'volume': None, 'issue': None, 'doi': None, 'isbn': None, 'despositor': {'code': 'rah', 'first_name': 'Rowan', 'last_name': 'Hatherley', 'id': 20}, 'refauthors_set': [{'author': {'first_name': 'Gregory', 'initials': 'GJ', 'last_name': 'Hooper', 'id': 448}, 'first_author': True, 'id': 606}], 'id': 227}, {'journal': {'name': 'Tetrahedron', 'id': 4}, 'title': 'New Metabolites from the South African Soft Coral Capnella thyrsoidea', 'year': 1995, 'start_page': 9973, 'volume': 51, 'issue': 36, 'doi': '10.1016/0040-4020(95)00570-X', 'isbn': '', 'despositor': {'code': 'rah', 'first_name': 'Rowan', 'last_name': 'Hatherley', 'id': 20}, 'refauthors_set': [{'author': {'first_name': 'Gregory', 'initials': 'GJ', 'last_name': 'Hooper', 'id': 448}, 'first_author': True, 'id': 611}, {'author': {'first_name': 'Michael', 'initials': 'MT', 'last_name': 'Davies-Coleman', 'id': 449}, 'first_author': None, 'id': 612}], 'id': 229}]

>  <classifications>  (46) 
[{'classification': 'Pregnadiene', 'id': 812}, {'classification': 'Steroid', 'id': 835}, {'classification': 'Steroids and steroid derivatives (Classyfire)', 'id': 942}]

>  <molecular_mass>  (46) 
298.46

$$$$
SANC00147_minRM1.pdb
     RDKit          3D

 58 61  0  0  1  0  0  0  0  0999 V2000
   -4.0730    3.3060    0.6580 C   0  0  0  0  0  0  0  0  0  0  0  0
   -3.7180    2.1640    0.0800 C   0  0  0  0  0  0  0  0  0  0  0  0
   -2.7970    1.1950    0.7380 C   0  0  1  0  0  0  0  0  0  0  0  0
   -2.6580    1.4950    1.8110 H   0  0  0  0  0  0  0  0  0  0  0  0
   -3.2770   -0.2870    0.7580 C   0  0  1  0  0  0  0  0  0  0  0  0
   -3.7360   -0.5290    1.7520 H   0  0  0  0  0  0  0  0  0  0  0  0
   -4.2430   -0.4560   -0.2570 O   0  0  0  0  0  0  0  0  0  0  0  0
   -4.8590   -1.6620   -0.3490 C   0  0  0  0  0  0  0  0  0  0  0  0
   -5.8790   -1.6770   -1.4410 C   0  0  0  0  0  0  0  0  0  0  0  0
   -4.5720   -2.5720    0.4060 O   0  0  0  0  0  0  0  0  0  0  0  0
   -2.0300   -1.1660    0.4850 C   0  0  0  0  0  0  0  0  0  0  0  0
   -0.8650   -0.1970    0.6530 C   0  0  1  0  0  0  0  0  0  0  0  0
    0.4630   -0.5590   -0.0010 C   0  0  2  0  0  0  0  0  0  0  0  0
    0.9690   -1.9020    0.5170 C   0  0  0  0  0  0  0  0  0  0  0  0
    2.3350   -2.2190   -0.0790 C   0  0  0  0  0  0  0  0  0  0  0  0
    3.3260   -1.1080    0.2580 C   0  0  1  0  0  0  0  0  0  0  0  0
    4.7070   -1.4360   -0.3020 C   0  0  0  0  0  0  0  0  0  0  0  0
    5.6820   -0.3110   -0.0700 C   0  0  0  0  0  0  0  0  0  0  0  0
    6.8840   -0.5010   -0.1460 O   0  0  0  0  0  0  0  0  0  0  0  0
    5.1390    1.0240    0.2330 C   0  0  0  0  0  0  0  0  0  0  0  0
    3.8370    1.2900    0.1470 C   0  0  0  0  0  0  0  0  0  0  0  0
    2.8410    0.2510   -0.2770 C   0  0  1  0  0  0  0  0  0  0  0  0
    2.7900    0.2780   -1.8030 C   0  0  0  0  0  0  0  0  0  0  0  0
    1.4620    0.5560    0.3460 C   0  0  1  0  0  0  0  0  0  0  0  0
    0.9450    1.9290   -0.1020 C   0  0  0  0  0  0  0  0  0  0  0  0
   -0.4500    2.2350    0.4420 C   0  0  0  0  0  0  0  0  0  0  0  0
   -1.4110    1.1160    0.0620 C   0  0  2  0  0  0  0  0  0  0  0  0
   -1.5660    1.0510   -1.4540 C   0  0  0  0  0  0  0  0  0  0  0  0
   -3.7470    3.6300    1.6420 H   0  0  0  0  0  0  0  0  0  0  0  0
   -4.7340    4.0260    0.1860 H   0  0  0  0  0  0  0  0  0  0  0  0
   -4.0930    1.9070   -0.9160 H   0  0  0  0  0  0  0  0  0  0  0  0
   -5.5280   -1.1700   -2.3530 H   0  0  0  0  0  0  0  0  0  0  0  0
   -6.1520   -2.7080   -1.7140 H   0  0  0  0  0  0  0  0  0  0  0  0
   -6.7980   -1.1640   -1.1160 H   0  0  0  0  0  0  0  0  0  0  0  0
   -1.9800   -2.0270    1.1800 H   0  0  0  0  0  0  0  0  0  0  0  0
   -2.0450   -1.6270   -0.5220 H   0  0  0  0  0  0  0  0  0  0  0  0
   -0.6880   -0.0700    1.7560 H   0  0  0  0  0  0  0  0  0  0  0  0
    0.3250   -0.6220   -1.1120 H   0  0  0  0  0  0  0  0  0  0  0  0
    1.0180   -1.9100    1.6270 H   0  0  0  0  0  0  0  0  0  0  0  0
    0.2490   -2.7110    0.2670 H   0  0  0  0  0  0  0  0  0  0  0  0
    2.7040   -3.1940    0.3060 H   0  0  0  0  0  0  0  0  0  0  0  0
    2.2560   -2.3720   -1.1760 H   0  0  0  0  0  0  0  0  0  0  0  0
    3.4150   -1.0370    1.3750 H   0  0  0  0  0  0  0  0  0  0  0  0
    5.0970   -2.3740    0.1510 H   0  0  0  0  0  0  0  0  0  0  0  0
    4.6720   -1.6610   -1.3890 H   0  0  0  0  0  0  0  0  0  0  0  0
    5.8690    1.7860    0.5280 H   0  0  0  0  0  0  0  0  0  0  0  0
    3.4480    2.2940    0.3620 H   0  0  0  0  0  0  0  0  0  0  0  0
    3.7860    0.3980   -2.2550 H   0  0  0  0  0  0  0  0  0  0  0  0
    2.3650   -0.6380   -2.2380 H   0  0  0  0  0  0  0  0  0  0  0  0
    2.1800    1.1150   -2.1820 H   0  0  0  0  0  0  0  0  0  0  0  0
    1.5920    0.5910    1.4600 H   0  0  0  0  0  0  0  0  0  0  0  0
    1.6550    2.7210    0.2310 H   0  0  0  0  0  0  0  0  0  0  0  0
    0.9620    2.0130   -1.2110 H   0  0  0  0  0  0  0  0  0  0  0  0
   -0.4100    2.3720    1.5440 H   0  0  0  0  0  0  0  0  0  0  0  0
   -0.8110    3.2140    0.0620 H   0  0  0  0  0  0  0  0  0  0  0  0
   -0.6730    0.6420   -1.9560 H   0  0  0  0  0  0  0  0  0  0  0  0
   -2.3970    0.4110   -1.7820 H   0  0  0  0  0  0  0  0  0  0  0  0
   -1.7470    2.0430   -1.8920 H   0  0  0  0  0  0  0  0  0  0  0  0
  1  2  2  0
  1 30  1  0
  1 29  1  0
  2 31  1  0
  2  3  1  0
  3 27  1  0
  3  5  1  0
  3  4  1  1
  5  7  1  0
  5 11  1  0
  5  6  1  1
  7  8  1  0
  8  9  1  0
  8 10  2  0
  9 32  1  0
  9 33  1  0
  9 34  1  0
 11 36  1  0
 11 12  1  0
 11 35  1  0
 12 13  1  0
 12 27  1  0
 12 37  1  1
 13 38  1  6
 13 24  1  0
 13 14  1  0
 14 15  1  0
 14 40  1  0
 14 39  1  0
 15 42  1  0
 15 16  1  0
 15 41  1  0
 16 17  1  0
 16 22  1  0
 16 43  1  1
 17 45  1  0
 17 18  1  0
 17 44  1  0
 18 19  2  0
 18 20  1  0
 20 21  2  0
 20 46  1  0
 21 22  1  0
 21 47  1  0
 22 23  1  6
 22 24  1  0
 23 48  1  0
 23 49  1  0
 23 50  1  0
 24 25  1  0
 24 51  1  1
 25 53  1  0
 25 52  1  0
 25 26  1  0
 26 27  1  0
 26 55  1  0
 26 54  1  0
 27 28  1  6
 28 56  1  0
 28 58  1  0
 28 57  1  0
M  END
>  <id>  (47) 
147

>  <scaffolds>  (47) 
['C1=CC2CCCCC2CC1', 'C1=CCCCC1', 'C1CCC(C2CCCC2)CC1', 'C1CCCCC1', 'O=C1C=CCCC1', 'O=C1C=CC2C(CCC3C4CCCC4CCC23)C1', 'C1=CC2C(CC1)CCC1C3CCCC3CCC21', 'C1CCC2CCCCC2C1']

>  <name>  (47) 
16[beta]-Hydroxy-5[alpha]-pregna-1,20-clien-3-one 16-acetate

>  <formula>  (47) 
C23H32O3

>  <SMILES>  (47) 
C=C[C@H]3[C@@H](OC(C)=O)CC4C2CCC1CC(=O)C=C[C@]1(C)C2CC[C@]34C

>  <ChEMBL_id>  (47) 


>  <ZINC_id>  (47) 


>  <PubChem_id>  (47) 


>  <DrugBank_id>  (47) 


>  <CAS_no>  (47) 
168004-85-1

>  <references>  (47) 
[{'journal': {'name': 'Thesis, Rhodes University', 'id': 2}, 'title': 'Biologically Active Natural Products From South African Marine Invertebrates', 'year': 1996, 'start_page': None, 'volume': None, 'issue': None, 'doi': None, 'isbn': None, 'despositor': {'code': 'rah', 'first_name': 'Rowan', 'last_name': 'Hatherley', 'id': 20}, 'refauthors_set': [{'author': {'first_name': 'Gregory', 'initials': 'GJ', 'last_name': 'Hooper', 'id': 448}, 'first_author': True, 'id': 606}], 'id': 227}, {'journal': {'name': 'Tetrahedron', 'id': 4}, 'title': 'New Metabolites from the South African Soft Coral Capnella thyrsoidea', 'year': 1995, 'start_page': 9973, 'volume': 51, 'issue': 36, 'doi': '10.1016/0040-4020(95)00570-X', 'isbn': '', 'despositor': {'code': 'rah', 'first_name': 'Rowan', 'last_name': 'Hatherley', 'id': 20}, 'refauthors_set': [{'author': {'first_name': 'Gregory', 'initials': 'GJ', 'last_name': 'Hooper', 'id': 448}, 'first_author': True, 'id': 611}, {'author': {'first_name': 'Michael', 'initials': 'MT', 'last_name': 'Davies-Coleman', 'id': 449}, 'first_author': None, 'id': 612}], 'id': 229}]

>  <classifications>  (47) 
[{'classification': 'Pregnadiene', 'id': 812}, {'classification': 'Steroid', 'id': 835}, {'classification': 'Steroids and steroid derivatives (Classyfire)', 'id': 942}]

>  <molecular_mass>  (47) 
356.5

$$$$
SANC00148_minRM1.pdb
     RDKit          3D

 65 68  0  0  1  0  0  0  0  0999 V2000
    4.7880    3.0740   -1.4620 C   0  0  0  0  0  0  0  0  0  0  0  0
    4.5030    2.0430   -0.6750 C   0  0  0  0  0  0  0  0  0  0  0  0
    3.4790    1.0250   -1.0400 C   0  0  1  0  0  0  0  0  0  0  0  0
    3.1850    1.1730   -2.1140 H   0  0  0  0  0  0  0  0  0  0  0  0
    3.9260   -0.4620   -0.9100 C   0  0  1  0  0  0  0  0  0  0  0  0
    4.2140   -0.8640   -1.9160 H   0  0  0  0  0  0  0  0  0  0  0  0
    5.0390   -0.5180   -0.0430 O   0  0  0  0  0  0  0  0  0  0  0  0
    5.6540   -1.7150    0.1200 C   0  0  0  0  0  0  0  0  0  0  0  0
    6.8180   -1.6230    1.0530 C   0  0  0  0  0  0  0  0  0  0  0  0
    5.2500   -2.7120   -0.4510 O   0  0  0  0  0  0  0  0  0  0  0  0
    2.7260   -1.2420   -0.3170 C   0  0  0  0  0  0  0  0  0  0  0  0
    1.5620   -0.2670   -0.4660 C   0  0  1  0  0  0  0  0  0  0  0  0
    0.3310   -0.4790    0.4060 C   0  0  2  0  0  0  0  0  0  0  0  0
   -0.2560   -1.8680    0.1710 C   0  0  0  0  0  0  0  0  0  0  0  0
   -1.5530   -2.0470    0.9520 C   0  0  0  0  0  0  0  0  0  0  0  0
   -2.5440   -0.9600    0.5540 C   0  0  1  0  0  0  0  0  0  0  0  0
   -3.8800   -1.1290    1.2720 C   0  0  0  0  0  0  0  0  0  0  0  0
   -4.9010   -0.1260    0.7180 C   0  0  2  0  0  0  0  0  0  0  0  0
   -5.7590   -0.0140    1.4360 H   0  0  0  0  0  0  0  0  0  0  0  0
   -5.3390   -0.7090   -0.5030 O   0  0  0  0  0  0  0  0  0  0  0  0
   -6.4370   -0.2000   -1.1100 C   0  0  0  0  0  0  0  0  0  0  0  0
   -6.7380   -0.9060   -2.3930 C   0  0  0  0  0  0  0  0  0  0  0  0
   -7.0730    0.7090   -0.6080 O   0  0  0  0  0  0  0  0  0  0  0  0
   -4.3030    1.2150    0.4220 C   0  0  0  0  0  0  0  0  0  0  0  0
   -2.9980    1.4620    0.4710 C   0  0  0  0  0  0  0  0  0  0  0  0
   -1.9750    0.4370    0.8620 C   0  0  1  0  0  0  0  0  0  0  0  0
   -1.7050    0.6220    2.3560 C   0  0  0  0  0  0  0  0  0  0  0  0
   -0.6850    0.6170    0.0360 C   0  0  1  0  0  0  0  0  0  0  0  0
   -0.0770    2.0120    0.2270 C   0  0  0  0  0  0  0  0  0  0  0  0
    1.2200    2.1860   -0.5620 C   0  0  0  0  0  0  0  0  0  0  0  0
    2.2100    1.0970   -0.1650 C   0  0  2  0  0  0  0  0  0  0  0  0
    2.5890    1.2440    1.3060 C   0  0  0  0  0  0  0  0  0  0  0  0
    5.5240    3.8290   -1.2050 H   0  0  0  0  0  0  0  0  0  0  0  0
    4.3230    3.2660   -2.4240 H   0  0  0  0  0  0  0  0  0  0  0  0
    5.0190    1.9190    0.2830 H   0  0  0  0  0  0  0  0  0  0  0  0
    6.5270   -1.9670    2.0570 H   0  0  0  0  0  0  0  0  0  0  0  0
    7.6430   -2.2660    0.7100 H   0  0  0  0  0  0  0  0  0  0  0  0
    7.2170   -0.6030    1.1590 H   0  0  0  0  0  0  0  0  0  0  0  0
    2.5600   -2.1990   -0.8480 H   0  0  0  0  0  0  0  0  0  0  0  0
    2.8870   -1.5370    0.7390 H   0  0  0  0  0  0  0  0  0  0  0  0
    1.2340   -0.3000   -1.5410 H   0  0  0  0  0  0  0  0  0  0  0  0
    0.6030   -0.3810    1.4930 H   0  0  0  0  0  0  0  0  0  0  0  0
   -0.4320   -2.0470   -0.9110 H   0  0  0  0  0  0  0  0  0  0  0  0
    0.4750   -2.6510    0.4650 H   0  0  0  0  0  0  0  0  0  0  0  0
   -1.9810   -3.0530    0.7520 H   0  0  0  0  0  0  0  0  0  0  0  0
   -1.3640   -2.0510    2.0450 H   0  0  0  0  0  0  0  0  0  0  0  0
   -2.7310   -1.0410   -0.5500 H   0  0  0  0  0  0  0  0  0  0  0  0
   -4.2560   -2.1700    1.1810 H   0  0  0  0  0  0  0  0  0  0  0  0
   -3.7650   -0.9680    2.3680 H   0  0  0  0  0  0  0  0  0  0  0  0
   -5.8330   -1.2440   -2.9210 H   0  0  0  0  0  0  0  0  0  0  0  0
   -7.3590   -1.7950   -2.2040 H   0  0  0  0  0  0  0  0  0  0  0  0
   -7.2960   -0.2520   -3.0800 H   0  0  0  0  0  0  0  0  0  0  0  0
   -5.0170    2.0020    0.1550 H   0  0  0  0  0  0  0  0  0  0  0  0
   -2.6110    2.4650    0.2490 H   0  0  0  0  0  0  0  0  0  0  0  0
   -2.4900    0.1620    2.9800 H   0  0  0  0  0  0  0  0  0  0  0  0
   -0.7470    0.1770    2.6720 H   0  0  0  0  0  0  0  0  0  0  0  0
   -1.6690    1.6820    2.6500 H   0  0  0  0  0  0  0  0  0  0  0  0
   -0.9560    0.5130   -1.0480 H   0  0  0  0  0  0  0  0  0  0  0  0
   -0.8140    2.7850   -0.0880 H   0  0  0  0  0  0  0  0  0  0  0  0
    0.1010    2.2400    1.2980 H   0  0  0  0  0  0  0  0  0  0  0  0
    1.0140    2.1630   -1.6530 H   0  0  0  0  0  0  0  0  0  0  0  0
    1.6520    3.1940   -0.3920 H   0  0  0  0  0  0  0  0  0  0  0  0
    1.7840    0.9190    1.9860 H   0  0  0  0  0  0  0  0  0  0  0  0
    3.4660    0.6480    1.5940 H   0  0  0  0  0  0  0  0  0  0  0  0
    2.8230    2.2860    1.5690 H   0  0  0  0  0  0  0  0  0  0  0  0
  1 34  1  0
  1 33  1  0
  1  2  2  0
  2  3  1  0
  2 35  1  0
  3  4  1  6
  3  5  1  0
  3 31  1  0
  5  6  1  6
  5 11  1  0
  5  7  1  0
  7  8  1  0
  8 10  2  0
  8  9  1  0
  9 37  1  0
  9 38  1  0
  9 36  1  0
 11 39  1  0
 11 12  1  0
 11 40  1  0
 12 41  1  6
 12 31  1  0
 12 13  1  0
 13 28  1  0
 13 14  1  0
 13 42  1  1
 14 43  1  0
 14 44  1  0
 14 15  1  0
 15 16  1  0
 15 45  1  0
 15 46  1  0
 16 47  1  6
 16 26  1  0
 16 17  1  0
 17 18  1  0
 17 48  1  0
 17 49  1  0
 18 20  1  0
 18 24  1  0
 18 19  1  1
 20 21  1  0
 21 22  1  0
 21 23  2  0
 22 52  1  0
 22 50  1  0
 22 51  1  0
 24 53  1  0
 24 25  2  0
 25 54  1  0
 25 26  1  0
 26 28  1  0
 26 27  1  1
 27 57  1  0
 27 56  1  0
 27 55  1  0
 28 58  1  6
 28 29  1  0
 29 30  1  0
 29 59  1  0
 29 60  1  0
 30 61  1  0
 30 62  1  0
 30 31  1  0
 31 32  1  1
 32 65  1  0
 32 64  1  0
 32 63  1  0
M  END
>  <id>  (48) 
148

>  <scaffolds>  (48) 
['C1=CC2CCCCC2CC1', 'C1=CCCCC1', 'C1CCC(C2CCCC2)CC1', 'C1CCCCC1', 'C1=CC2C(CC1)CCC1C3CCCC3CCC21', 'C1CCC2CCCCC2C1']

>  <name>  (48) 
3[alpha],16[beta]-Dihydroxy-5[alpha]-pregna-1,20-diene 3,16-diacetate

>  <formula>  (48) 
C25H36O4

>  <SMILES>  (48) 
C=C[C@H]3[C@@H](OC(C)=O)CC4C2CCC1C[C@H](OC(C)=O)C=C[C@]1(C)C2CC[C@]34C

>  <ChEMBL_id>  (48) 


>  <ZINC_id>  (48) 


>  <PubChem_id>  (48) 


>  <DrugBank_id>  (48) 


>  <CAS_no>  (48) 
168004-86-2

>  <references>  (48) 
[{'journal': {'name': 'Thesis, Rhodes University', 'id': 2}, 'title': 'Biologically Active Natural Products From South African Marine Invertebrates', 'year': 1996, 'start_page': None, 'volume': None, 'issue': None, 'doi': None, 'isbn': None, 'despositor': {'code': 'rah', 'first_name': 'Rowan', 'last_name': 'Hatherley', 'id': 20}, 'refauthors_set': [{'author': {'first_name': 'Gregory', 'initials': 'GJ', 'last_name': 'Hooper', 'id': 448}, 'first_author': True, 'id': 606}], 'id': 227}, {'journal': {'name': 'Tetrahedron', 'id': 4}, 'title': 'New Metabolites from the South African Soft Coral Capnella thyrsoidea', 'year': 1995, 'start_page': 9973, 'volume': 51, 'issue': 36, 'doi': '10.1016/0040-4020(95)00570-X', 'isbn': '', 'despositor': {'code': 'rah', 'first_name': 'Rowan', 'last_name': 'Hatherley', 'id': 20}, 'refauthors_set': [{'author': {'first_name': 'Gregory', 'initials': 'GJ', 'last_name': 'Hooper', 'id': 448}, 'first_author': True, 'id': 611}, {'author': {'first_name': 'Michael', 'initials': 'MT', 'last_name': 'Davies-Coleman', 'id': 449}, 'first_author': None, 'id': 612}], 'id': 229}]

>  <classifications>  (48) 
[{'classification': 'Pregnadiene', 'id': 812}, {'classification': 'Steroid', 'id': 835}, {'classification': 'Steroids and steroid derivatives (Classyfire)', 'id': 942}]

>  <molecular_mass>  (48) 
400.55

$$$$
SANC00149_minRM1.pdb
     RDKit          3D

 63 64  0  0  1  0  0  0  0  0999 V2000
    0.7780    0.8450   -0.3510 H   0  0  0  0  0  0  0  0  0  0  0  0
    0.7290    0.5340    0.7290 C   0  0  1  0  0  0  0  0  0  0  0  0
    0.3690    1.7450    1.6020 C   0  0  0  0  0  0  0  0  0  0  0  0
    1.2400    2.9690    1.3260 C   0  0  0  0  0  0  0  0  0  0  0  0
    1.0780    3.4660   -0.0710 C   0  0  0  0  0  0  0  0  0  0  0  0
   -0.2080    4.1650   -0.3630 C   0  0  0  0  0  0  0  0  0  0  0  0
    2.0100    3.3800   -1.0230 C   0  0  0  0  0  0  0  0  0  0  0  0
    3.3500    2.7520   -0.8580 C   0  0  0  0  0  0  0  0  0  0  0  0
    3.2230    1.2270   -0.7750 C   0  0  0  0  0  0  0  0  0  0  0  0
    3.2630    0.7350    0.6360 C   0  0  0  0  0  0  0  0  0  0  0  0
    4.3480    0.9140    1.3890 C   0  0  0  0  0  0  0  0  0  0  0  0
    2.0900   -0.0290    1.1670 C   0  0  2  0  0  0  0  0  0  0  0  0
    2.1210   -0.0450    2.2910 H   0  0  0  0  0  0  0  0  0  0  0  0
    2.2580   -1.4990    0.7320 C   0  0  2  0  0  0  0  0  0  0  0  0
    3.1910   -1.9650    1.1520 H   0  0  0  0  0  0  0  0  0  0  0  0
    2.1640   -1.5380   -0.6740 O   0  0  0  0  0  0  0  0  0  0  0  0
    2.6560   -2.6180   -1.3410 C   0  0  0  0  0  0  0  0  0  0  0  0
    2.3380   -2.5430   -2.8000 C   0  0  0  0  0  0  0  0  0  0  0  0
    3.2830   -3.4810   -0.7620 O   0  0  0  0  0  0  0  0  0  0  0  0
    1.2160   -2.3130    1.1900 O   0  0  0  0  0  0  0  0  0  0  0  0
   -0.0420   -1.8160    1.0340 C   0  0  0  0  0  0  0  0  0  0  0  0
   -0.3270   -0.5230    0.8340 C   0  0  0  0  0  0  0  0  0  0  0  0
   -1.7510   -0.1100    0.5830 C   0  0  1  0  0  0  0  0  0  0  0  0
   -2.1290   -0.4460   -0.8730 C   0  0  0  0  0  0  0  0  0  0  0  0
   -3.5070    0.0030   -1.2070 C   0  0  0  0  0  0  0  0  0  0  0  0
   -4.1170   -0.3430   -2.3440 C   0  0  0  0  0  0  0  0  0  0  0  0
   -3.4840   -1.2240   -3.3590 C   0  0  0  0  0  0  0  0  0  0  0  0
   -5.4940    0.1220   -2.6650 C   0  0  0  0  0  0  0  0  0  0  0  0
   -2.5720   -0.9180    1.4140 O   0  0  0  0  0  0  0  0  0  0  0  0
   -3.5270   -0.3590    2.1970 C   0  0  0  0  0  0  0  0  0  0  0  0
   -4.3030   -1.4020    2.9390 C   0  0  0  0  0  0  0  0  0  0  0  0
   -3.6940    0.8460    2.2430 O   0  0  0  0  0  0  0  0  0  0  0  0
   -0.7050    2.0140    1.4620 H   0  0  0  0  0  0  0  0  0  0  0  0
    0.4280    1.4780    2.6810 H   0  0  0  0  0  0  0  0  0  0  0  0
    0.9620    3.7860    2.0310 H   0  0  0  0  0  0  0  0  0  0  0  0
    2.2980    2.7620    1.5850 H   0  0  0  0  0  0  0  0  0  0  0  0
   -0.0930    5.2550   -0.2520 H   0  0  0  0  0  0  0  0  0  0  0  0
   -0.5700    3.9860   -1.3870 H   0  0  0  0  0  0  0  0  0  0  0  0
   -1.0300    3.8710    0.3060 H   0  0  0  0  0  0  0  0  0  0  0  0
    1.8110    3.7900   -2.0210 H   0  0  0  0  0  0  0  0  0  0  0  0
    3.9980    3.0250   -1.7200 H   0  0  0  0  0  0  0  0  0  0  0  0
    3.8900    3.1800    0.0120 H   0  0  0  0  0  0  0  0  0  0  0  0
    2.2960    0.9000   -1.2970 H   0  0  0  0  0  0  0  0  0  0  0  0
    4.0400    0.7360   -1.3450 H   0  0  0  0  0  0  0  0  0  0  0  0
    5.2430    1.4200    1.0400 H   0  0  0  0  0  0  0  0  0  0  0  0
    4.4450    0.5720    2.4140 H   0  0  0  0  0  0  0  0  0  0  0  0
    2.6840   -1.5950   -3.2440 H   0  0  0  0  0  0  0  0  0  0  0  0
    2.8160   -3.3670   -3.3540 H   0  0  0  0  0  0  0  0  0  0  0  0
    1.2520   -2.6060   -2.9720 H   0  0  0  0  0  0  0  0  0  0  0  0
   -0.7560   -2.6400    1.1370 H   0  0  0  0  0  0  0  0  0  0  0  0
   -1.8790    0.9950    0.7720 H   0  0  0  0  0  0  0  0  0  0  0  0
   -1.3960    0.0470   -1.5530 H   0  0  0  0  0  0  0  0  0  0  0  0
   -2.0070   -1.5360   -1.0550 H   0  0  0  0  0  0  0  0  0  0  0  0
   -4.0050    0.6500   -0.4770 H   0  0  0  0  0  0  0  0  0  0  0  0
   -3.4480   -2.2700   -3.0130 H   0  0  0  0  0  0  0  0  0  0  0  0
   -4.0190   -1.2310   -4.3210 H   0  0  0  0  0  0  0  0  0  0  0  0
   -2.4480   -0.9280   -3.5880 H   0  0  0  0  0  0  0  0  0  0  0  0
   -5.9430    0.7510   -1.8800 H   0  0  0  0  0  0  0  0  0  0  0  0
   -5.5120    0.7140   -3.5930 H   0  0  0  0  0  0  0  0  0  0  0  0
   -6.1780   -0.7290   -2.8130 H   0  0  0  0  0  0  0  0  0  0  0  0
   -3.7030   -2.2890    3.1950 H   0  0  0  0  0  0  0  0  0  0  0  0
   -4.7120   -0.9950    3.8770 H   0  0  0  0  0  0  0  0  0  0  0  0
   -5.1510   -1.7480    2.3280 H   0  0  0  0  0  0  0  0  0  0  0  0
  2  1  1  6
  2 22  1  0
  2 12  1  0
  2  3  1  0
  3  4  1  0
  3 33  1  0
  3 34  1  0
  4  5  1  0
  4 36  1  0
  4 35  1  0
  5  7  2  0
  5  6  1  0
  6 38  1  0
  6 37  1  0
  6 39  1  0
  7 40  1  0
  7  8  1  0
  8 41  1  0
  8  9  1  0
  8 42  1  0
  9 44  1  0
  9 43  1  0
  9 10  1  0
 10 12  1  0
 10 11  2  0
 11 45  1  0
 11 46  1  0
 12 14  1  0
 12 13  1  1
 14 16  1  0
 14 15  1  6
 14 20  1  0
 16 17  1  0
 17 18  1  0
 17 19  2  0
 18 48  1  0
 18 47  1  0
 18 49  1  0
 20 21  1  0
 21 22  2  0
 21 50  1  0
 22 23  1  0
 23 24  1  0
 23 51  1  1
 23 29  1  0
 24 52  1  0
 24 25  1  0
 24 53  1  0
 25 26  2  0
 25 54  1  0
 26 27  1  0
 26 28  1  0
 27 56  1  0
 27 57  1  0
 27 55  1  0
 28 59  1  0
 28 60  1  0
 28 58  1  0
 29 30  1  0
 30 32  2  0
 30 31  1  0
 31 63  1  0
 31 61  1  0
 31 62  1  0
M  END
>  <id>  (49) 
149

>  <scaffolds>  (49) 
['C=C1CCC=CCCC2C=COCC12']

>  <name>  (49) 
Tsitsixenicin A

>  <formula>  (49) 
C24H34O5

>  <SMILES>  (49) 
[H][C@]12CCC(C)=CCCC(=C)[C@]1([H])[C@H](OC(C)=O)OC=C2C(C/C=C(C)/C)OC(C)=O

>  <ChEMBL_id>  (49) 


>  <ZINC_id>  (49) 


>  <PubChem_id>  (49) 


>  <DrugBank_id>  (49) 


>  <CAS_no>  (49) 
168113-67-5

>  <references>  (49) 
[{'journal': {'name': 'Thesis, Rhodes University', 'id': 2}, 'title': 'Biologically Active Natural Products From South African Marine Invertebrates', 'year': 1996, 'start_page': None, 'volume': None, 'issue': None, 'doi': None, 'isbn': None, 'despositor': {'code': 'rah', 'first_name': 'Rowan', 'last_name': 'Hatherley', 'id': 20}, 'refauthors_set': [{'author': {'first_name': 'Gregory', 'initials': 'GJ', 'last_name': 'Hooper', 'id': 448}, 'first_author': True, 'id': 606}], 'id': 227}, {'journal': {'name': 'Tetrahedron', 'id': 4}, 'title': 'New Metabolites from the South African Soft Coral Capnella thyrsoidea', 'year': 1995, 'start_page': 9973, 'volume': 51, 'issue': 36, 'doi': '10.1016/0040-4020(95)00570-X', 'isbn': '', 'despositor': {'code': 'rah', 'first_name': 'Rowan', 'last_name': 'Hatherley', 'id': 20}, 'refauthors_set': [{'author': {'first_name': 'Gregory', 'initials': 'GJ', 'last_name': 'Hooper', 'id': 448}, 'first_author': True, 'id': 611}, {'author': {'first_name': 'Michael', 'initials': 'MT', 'last_name': 'Davies-Coleman', 'id': 449}, 'first_author': None, 'id': 612}], 'id': 229}]

>  <classifications>  (49) 
[{'classification': 'Diterpene', 'id': 771}, {'classification': 'Terpenoid', 'id': 839}, {'classification': 'Tsitsixenicin', 'id': 844}, {'classification': 'Xenicane', 'id': 848}, {'classification': 'Phenol lipids (Classyfire)', 'id': 951}]

>  <molecular_mass>  (49) 
402.52

$$$$
SANC00150_minRM1.pdb
     RDKit          3D

 64 66  0  0  1  0  0  0  0  0999 V2000
   -2.4860   -1.9320   -1.7290 H   0  0  0  0  0  0  0  0  0  0  0  0
   -3.2610   -2.2240   -0.9900 C   0  0  1  0  0  0  0  0  0  0  0  0
   -4.5230   -1.4050   -1.0810 C   0  0  0  0  0  0  0  0  0  0  0  0
   -4.2960   -0.1160   -0.2790 C   0  0  0  0  0  0  0  0  0  0  0  0
   -2.9250    0.4320   -0.5380 C   0  0  0  0  0  0  0  0  0  0  0  0
   -2.5670    0.7310   -1.7870 C   0  0  0  0  0  0  0  0  0  0  0  0
   -1.9840    0.5350    0.6260 C   0  0  2  0  0  0  0  0  0  0  0  0
   -2.5290    0.2510    1.5700 H   0  0  0  0  0  0  0  0  0  0  0  0
   -1.5650    1.9990    0.8770 C   0  0  2  0  0  0  0  0  0  0  0  0
   -2.4050    2.6040    1.3170 H   0  0  0  0  0  0  0  0  0  0  0  0
   -1.0400    2.5400   -0.3130 O   0  0  0  0  0  0  0  0  0  0  0  0
   -0.8890    3.8870   -0.4220 C   0  0  0  0  0  0  0  0  0  0  0  0
   -0.2120    4.2540   -1.7020 C   0  0  0  0  0  0  0  0  0  0  0  0
   -1.3010    4.6340    0.4430 O   0  0  0  0  0  0  0  0  0  0  0  0
   -0.5280    2.1040    1.8150 O   0  0  0  0  0  0  0  0  0  0  0  0
    0.5820    1.3670    1.5140 C   0  0  0  0  0  0  0  0  0  0  0  0
    0.5140    0.2040    0.8590 C   0  0  0  0  0  0  0  0  0  0  0  0
    1.7500   -0.5420    0.4450 C   0  0  1  0  0  0  0  0  0  0  0  0
    2.3450    0.1190   -0.8150 C   0  0  0  0  0  0  0  0  0  0  0  0
    3.3930   -0.7330   -1.4380 C   0  0  0  0  0  0  0  0  0  0  0  0
    4.2850   -0.2690   -2.3150 C   0  0  0  0  0  0  0  0  0  0  0  0
    4.3410    1.1570   -2.7340 C   0  0  0  0  0  0  0  0  0  0  0  0
    5.2940   -1.1680   -2.9440 C   0  0  0  0  0  0  0  0  0  0  0  0
    2.6920   -0.3720    1.4940 O   0  0  0  0  0  0  0  0  0  0  0  0
    3.5260   -1.3810    1.8350 C   0  0  0  0  0  0  0  0  0  0  0  0
    4.5250   -0.9270    2.8460 C   0  0  0  0  0  0  0  0  0  0  0  0
    3.4160   -2.4930    1.3520 O   0  0  0  0  0  0  0  0  0  0  0  0
   -0.7860   -0.4320    0.4810 C   0  0  1  0  0  0  0  0  0  0  0  0
   -0.7030   -0.7610   -0.5860 H   0  0  0  0  0  0  0  0  0  0  0  0
   -0.9780   -1.6540    1.4140 C   0  0  0  0  0  0  0  0  0  0  0  0
   -1.4210   -2.9250    0.6890 C   0  0  0  0  0  0  0  0  0  0  0  0
   -2.8850   -2.8360    0.3320 C   0  0  1  0  0  0  0  0  0  0  0  0
   -3.8380   -2.8070    1.4990 C   0  0  0  0  0  0  0  0  0  0  0  0
   -3.3470   -3.6200   -0.7600 O   0  0  0  0  0  0  0  0  0  0  0  0
   -4.7700   -1.1860   -2.1400 H   0  0  0  0  0  0  0  0  0  0  0  0
   -5.4110   -1.9560   -0.7030 H   0  0  0  0  0  0  0  0  0  0  0  0
   -5.0670    0.6440   -0.5320 H   0  0  0  0  0  0  0  0  0  0  0  0
   -4.4560   -0.3240    0.8050 H   0  0  0  0  0  0  0  0  0  0  0  0
   -3.2500    0.6680   -2.6290 H   0  0  0  0  0  0  0  0  0  0  0  0
   -1.5770    1.0580   -2.0980 H   0  0  0  0  0  0  0  0  0  0  0  0
   -0.8860    4.0930   -2.5620 H   0  0  0  0  0  0  0  0  0  0  0  0
    0.0850    5.3160   -1.7050 H   0  0  0  0  0  0  0  0  0  0  0  0
    0.6860    3.6510   -1.8850 H   0  0  0  0  0  0  0  0  0  0  0  0
    1.4780    1.8530    1.9120 H   0  0  0  0  0  0  0  0  0  0  0  0
    1.5060   -1.6210    0.2450 H   0  0  0  0  0  0  0  0  0  0  0  0
    1.5310    0.3010   -1.5560 H   0  0  0  0  0  0  0  0  0  0  0  0
    2.7220    1.1330   -0.5620 H   0  0  0  0  0  0  0  0  0  0  0  0
    3.3910   -1.7920   -1.1570 H   0  0  0  0  0  0  0  0  0  0  0  0
    4.6140    1.8190   -1.8980 H   0  0  0  0  0  0  0  0  0  0  0  0
    5.0690    1.3390   -3.5370 H   0  0  0  0  0  0  0  0  0  0  0  0
    3.3710    1.5050   -3.1260 H   0  0  0  0  0  0  0  0  0  0  0  0
    5.2200   -1.1550   -4.0380 H   0  0  0  0  0  0  0  0  0  0  0  0
    6.3140   -0.8570   -2.6910 H   0  0  0  0  0  0  0  0  0  0  0  0
    5.2040   -2.2180   -2.6430 H   0  0  0  0  0  0  0  0  0  0  0  0
    4.0560   -0.6880    3.8010 H   0  0  0  0  0  0  0  0  0  0  0  0
    5.2710   -1.7090    3.0390 H   0  0  0  0  0  0  0  0  0  0  0  0
    5.0660   -0.0270    2.5170 H   0  0  0  0  0  0  0  0  0  0  0  0
   -0.0440   -1.8780    1.9750 H   0  0  0  0  0  0  0  0  0  0  0  0
   -1.6900   -1.3980    2.2300 H   0  0  0  0  0  0  0  0  0  0  0  0
   -0.7930   -3.1170   -0.2060 H   0  0  0  0  0  0  0  0  0  0  0  0
   -1.2460   -3.8170    1.3290 H   0  0  0  0  0  0  0  0  0  0  0  0
   -4.0980   -1.7720    1.7810 H   0  0  0  0  0  0  0  0  0  0  0  0
   -4.7870   -3.3240    1.2820 H   0  0  0  0  0  0  0  0  0  0  0  0
   -3.4210   -3.2950    2.3930 H   0  0  0  0  0  0  0  0  0  0  0  0
  2  1  1  6
  2  3  1  0
  2 34  1  0
  2 32  1  0
  3 35  1  0
  3 36  1  0
  3  4  1  0
  4  5  1  0
  4 37  1  0
  4 38  1  0
  5  6  2  0
  5  7  1  0
  6 39  1  0
  6 40  1  0
  7 28  1  0
  7  9  1  0
  7  8  1  1
  9 11  1  0
  9 10  1  1
  9 15  1  0
 11 12  1  0
 12 13  1  0
 12 14  2  0
 13 41  1  0
 13 43  1  0
 13 42  1  0
 15 16  1  0
 16 17  2  0
 16 44  1  0
 17 18  1  0
 17 28  1  0
 18 19  1  0
 18 45  1  6
 18 24  1  0
 19 46  1  0
 19 20  1  0
 19 47  1  0
 20 21  2  0
 20 48  1  0
 21 23  1  0
 21 22  1  0
 22 50  1  0
 22 51  1  0
 22 49  1  0
 23 52  1  0
 23 53  1  0
 23 54  1  0
 24 25  1  0
 25 27  2  0
 25 26  1  0
 26 57  1  0
 26 56  1  0
 26 55  1  0
 28 29  1  6
 28 30  1  0
 30 31  1  0
 30 58  1  0
 30 59  1  0
 31 60  1  0
 31 32  1  0
 31 61  1  0
 32 34  1  0
 32 33  1  1
 33 63  1  0
 33 62  1  0
 33 64  1  0
M  END
>  <id>  (50) 
150

>  <scaffolds>  (50) 
['C=C1CCC2OC2CCC2C=COCC12']

>  <name>  (50) 
Tsitsixenicin B

>  <formula>  (50) 
C24H34O6

>  <SMILES>  (50) 
[H][C@]23CCC(=C)[C@]1([H])[C@H](OC(C)=O)OC=C(C(C/C=C(C)/C)OC(C)=O)[C@@]1([H])CC[C@]2(C)O3

>  <ChEMBL_id>  (50) 


>  <ZINC_id>  (50) 


>  <PubChem_id>  (50) 


>  <DrugBank_id>  (50) 


>  <CAS_no>  (50) 
168113-66-4

>  <references>  (50) 
[{'journal': {'name': 'Thesis, Rhodes University', 'id': 2}, 'title': 'Biologically Active Natural Products From South African Marine Invertebrates', 'year': 1996, 'start_page': None, 'volume': None, 'issue': None, 'doi': None, 'isbn': None, 'despositor': {'code': 'rah', 'first_name': 'Rowan', 'last_name': 'Hatherley', 'id': 20}, 'refauthors_set': [{'author': {'first_name': 'Gregory', 'initials': 'GJ', 'last_name': 'Hooper', 'id': 448}, 'first_author': True, 'id': 606}], 'id': 227}, {'journal': {'name': 'Tetrahedron', 'id': 4}, 'title': 'New Metabolites from the South African Soft Coral Capnella thyrsoidea', 'year': 1995, 'start_page': 9973, 'volume': 51, 'issue': 36, 'doi': '10.1016/0040-4020(95)00570-X', 'isbn': '', 'despositor': {'code': 'rah', 'first_name': 'Rowan', 'last_name': 'Hatherley', 'id': 20}, 'refauthors_set': [{'author': {'first_name': 'Gregory', 'initials': 'GJ', 'last_name': 'Hooper', 'id': 448}, 'first_author': True, 'id': 611}, {'author': {'first_name': 'Michael', 'initials': 'MT', 'last_name': 'Davies-Coleman', 'id': 449}, 'first_author': None, 'id': 612}], 'id': 229}]

>  <classifications>  (50) 
[{'classification': 'Diterpene', 'id': 771}, {'classification': 'Terpenoid', 'id': 839}, {'classification': 'Tsitsixenicin', 'id': 844}, {'classification': 'Xenicane', 'id': 848}, {'classification': 'Phenol lipids (Classyfire)', 'id': 951}]

>  <molecular_mass>  (50) 
418.52

$$$$
SANC00151_minRM1.pdb
     RDKit          3D

 63 64  0  0  1  0  0  0  0  0999 V2000
    0.1860    1.6340   -1.7150 H   0  0  0  0  0  0  0  0  0  0  0  0
   -0.0220    0.9770   -0.8270 C   0  0  1  0  0  0  0  0  0  0  0  0
   -0.7930   -0.2480   -1.3250 C   0  0  0  0  0  0  0  0  0  0  0  0
   -1.1400   -1.2680   -0.2440 C   0  0  0  0  0  0  0  0  0  0  0  0
   -2.6260   -1.3050    0.2200 C   0  0  2  0  0  0  0  0  0  0  0  0
   -2.7640   -0.8790    1.6820 C   0  0  0  0  0  0  0  0  0  0  0  0
   -2.9250   -2.6970    0.1440 O   0  0  0  0  0  0  0  0  0  0  0  0
   -4.1520   -3.1700    0.4400 C   0  0  0  0  0  0  0  0  0  0  0  0
   -4.1990   -4.6600    0.3100 C   0  0  0  0  0  0  0  0  0  0  0  0
   -5.0690   -2.4370    0.7600 O   0  0  0  0  0  0  0  0  0  0  0  0
   -3.5640   -0.5740   -0.6940 C   0  0  0  0  0  0  0  0  0  0  0  0
   -3.8990    0.7130   -0.6970 C   0  0  0  0  0  0  0  0  0  0  0  0
   -3.3990    1.8070    0.1810 C   0  0  0  0  0  0  0  0  0  0  0  0
   -2.1050    2.3070   -0.3830 C   0  0  0  0  0  0  0  0  0  0  0  0
   -2.1070    3.1750   -1.3870 C   0  0  0  0  0  0  0  0  0  0  0  0
   -0.8550    1.7430    0.2090 C   0  0  2  0  0  0  0  0  0  0  0  0
   -1.1180    1.0440    1.0530 H   0  0  0  0  0  0  0  0  0  0  0  0
   -0.0000    2.8430    0.8660 C   0  0  2  0  0  0  0  0  0  0  0  0
   -0.5440    3.3880    1.6840 H   0  0  0  0  0  0  0  0  0  0  0  0
    0.5130    3.6650   -0.1510 O   0  0  0  0  0  0  0  0  0  0  0  0
    0.9860    4.9060    0.1660 C   0  0  0  0  0  0  0  0  0  0  0  0
    1.6100    5.5720   -1.0140 C   0  0  0  0  0  0  0  0  0  0  0  0
    0.8670    5.3510    1.2910 O   0  0  0  0  0  0  0  0  0  0  0  0
    1.1340    2.3050    1.4940 O   0  0  0  0  0  0  0  0  0  0  0  0
    1.7880    1.3170    0.8320 C   0  0  0  0  0  0  0  0  0  0  0  0
    1.3050    0.6490   -0.2260 C   0  0  0  0  0  0  0  0  0  0  0  0
    2.1590   -0.3250   -0.9290 C   0  0  0  0  0  0  0  0  0  0  0  0
    2.1710   -0.3900   -2.1430 O   0  0  0  0  0  0  0  0  0  0  0  0
    3.0280   -1.1890   -0.1150 C   0  0  0  0  0  0  0  0  0  0  0  0
    3.6560   -2.2310   -0.6560 C   0  0  0  0  0  0  0  0  0  0  0  0
    4.6140   -3.1160    0.0980 C   0  0  1  0  0  0  0  0  0  0  0  0
    4.2960   -4.5900   -0.1860 C   0  0  0  0  0  0  0  0  0  0  0  0
    6.0380   -2.7680   -0.3530 C   0  0  0  0  0  0  0  0  0  0  0  0
    4.6010   -2.8750    1.4740 O   0  0  0  0  0  0  0  0  0  0  0  0
   -1.6870    0.1010   -1.8840 H   0  0  0  0  0  0  0  0  0  0  0  0
   -0.2120   -0.7540   -2.1240 H   0  0  0  0  0  0  0  0  0  0  0  0
   -0.8530   -2.2720   -0.6290 H   0  0  0  0  0  0  0  0  0  0  0  0
   -0.4750   -1.1510    0.6370 H   0  0  0  0  0  0  0  0  0  0  0  0
   -2.2660    0.0890    1.8690 H   0  0  0  0  0  0  0  0  0  0  0  0
   -3.8110   -0.7480    2.0000 H   0  0  0  0  0  0  0  0  0  0  0  0
   -2.3090   -1.6070    2.3690 H   0  0  0  0  0  0  0  0  0  0  0  0
   -3.5660   -5.1480    1.0640 H   0  0  0  0  0  0  0  0  0  0  0  0
   -5.2240   -5.0270    0.4350 H   0  0  0  0  0  0  0  0  0  0  0  0
   -3.8640   -4.9850   -0.6890 H   0  0  0  0  0  0  0  0  0  0  0  0
   -4.0200   -1.2110   -1.4660 H   0  0  0  0  0  0  0  0  0  0  0  0
   -4.6140    1.0590   -1.4550 H   0  0  0  0  0  0  0  0  0  0  0  0
   -4.1460    2.6310    0.2360 H   0  0  0  0  0  0  0  0  0  0  0  0
   -3.3040    1.5010    1.2450 H   0  0  0  0  0  0  0  0  0  0  0  0
   -3.0170    3.5800   -1.8200 H   0  0  0  0  0  0  0  0  0  0  0  0
   -1.2200    3.5650   -1.8790 H   0  0  0  0  0  0  0  0  0  0  0  0
    1.1060    5.3270   -1.9540 H   0  0  0  0  0  0  0  0  0  0  0  0
    1.5880    6.6530   -0.9170 H   0  0  0  0  0  0  0  0  0  0  0  0
    2.6500    5.2530   -1.1230 H   0  0  0  0  0  0  0  0  0  0  0  0
    2.7540    1.1700    1.3210 H   0  0  0  0  0  0  0  0  0  0  0  0
    3.1380   -0.9260    0.9380 H   0  0  0  0  0  0  0  0  0  0  0  0
    3.5410   -2.4880   -1.7170 H   0  0  0  0  0  0  0  0  0  0  0  0
    4.4230   -4.8440   -1.2470 H   0  0  0  0  0  0  0  0  0  0  0  0
    4.9580   -5.2610    0.3790 H   0  0  0  0  0  0  0  0  0  0  0  0
    3.2670   -4.8550    0.0840 H   0  0  0  0  0  0  0  0  0  0  0  0
    6.2770   -1.7160   -0.1650 H   0  0  0  0  0  0  0  0  0  0  0  0
    6.7900   -3.3730    0.1710 H   0  0  0  0  0  0  0  0  0  0  0  0
    6.1710   -2.9450   -1.4280 H   0  0  0  0  0  0  0  0  0  0  0  0
    3.7540   -3.1580    1.8220 H   0  0  0  0  0  0  0  0  0  0  0  0
  2  1  1  6
  2  3  1  0
  2 26  1  0
  2 16  1  0
  3 36  1  0
  3 35  1  0
  3  4  1  0
  4 37  1  0
  4  5  1  0
  4 38  1  0
  5 11  1  0
  5  7  1  1
  5  6  1  0
  6 39  1  0
  6 40  1  0
  6 41  1  0
  7  8  1  0
  8  9  1  0
  8 10  2  0
  9 44  1  0
  9 43  1  0
  9 42  1  0
 11 45  1  0
 11 12  2  0
 12 46  1  0
 12 13  1  0
 13 14  1  0
 13 47  1  0
 13 48  1  0
 14 15  2  0
 14 16  1  0
 15 50  1  0
 15 49  1  0
 16 18  1  0
 16 17  1  1
 18 20  1  0
 18 24  1  0
 18 19  1  1
 20 21  1  0
 21 22  1  0
 21 23  2  0
 22 51  1  0
 22 53  1  0
 22 52  1  0
 24 25  1  0
 25 26  2  0
 25 54  1  0
 26 27  1  0
 27 28  2  0
 27 29  1  0
 29 30  2  0
 29 55  1  0
 30 56  1  0
 30 31  1  0
 31 33  1  0
 31 32  1  0
 31 34  1  1
 32 57  1  0
 32 59  1  0
 32 58  1  0
 33 62  1  0
 33 60  1  0
 33 61  1  0
 34 63  1  0
M  END
>  <id>  (51) 
151

>  <scaffolds>  (51) 
['C=C1CC=CCCCC2C=COCC12']

>  <name>  (51) 
Tsitsixenicin C

>  <formula>  (51) 
C24H32O7

>  <SMILES>  (51) 
[H][C@]12CC[C@](C)(OC(C)=O)C=CCC(=C)[C@]1([H])[C@H](OC(C)=O)OC=C2C(=O)/C=C/C(C)(C)O

>  <ChEMBL_id>  (51) 


>  <ZINC_id>  (51) 


>  <PubChem_id>  (51) 


>  <DrugBank_id>  (51) 


>  <CAS_no>  (51) 
168075-13-6

>  <references>  (51) 
[{'journal': {'name': 'Thesis, Rhodes University', 'id': 2}, 'title': 'Biologically Active Natural Products From South African Marine Invertebrates', 'year': 1996, 'start_page': None, 'volume': None, 'issue': None, 'doi': None, 'isbn': None, 'despositor': {'code': 'rah', 'first_name': 'Rowan', 'last_name': 'Hatherley', 'id': 20}, 'refauthors_set': [{'author': {'first_name': 'Gregory', 'initials': 'GJ', 'last_name': 'Hooper', 'id': 448}, 'first_author': True, 'id': 606}], 'id': 227}, {'journal': {'name': 'Tetrahedron', 'id': 4}, 'title': 'New Metabolites from the South African Soft Coral Capnella thyrsoidea', 'year': 1995, 'start_page': 9973, 'volume': 51, 'issue': 36, 'doi': '10.1016/0040-4020(95)00570-X', 'isbn': '', 'despositor': {'code': 'rah', 'first_name': 'Rowan', 'last_name': 'Hatherley', 'id': 20}, 'refauthors_set': [{'author': {'first_name': 'Gregory', 'initials': 'GJ', 'last_name': 'Hooper', 'id': 448}, 'first_author': True, 'id': 611}, {'author': {'first_name': 'Michael', 'initials': 'MT', 'last_name': 'Davies-Coleman', 'id': 449}, 'first_author': None, 'id': 612}], 'id': 229}]

>  <classifications>  (51) 
[{'classification': 'Diterpene', 'id': 771}, {'classification': 'Terpenoid', 'id': 839}, {'classification': 'Tsitsixenicin', 'id': 844}, {'classification': 'Xenicane', 'id': 848}, {'classification': 'Carboxylic acids and derivatives (Classyfire)', 'id': 950}]

>  <molecular_mass>  (51) 
432.51

$$$$
SANC00152_minRM1.pdb
     RDKit          3D

 62 63  0  0  1  0  0  0  0  0999 V2000
    2.0830   -1.2060    2.8050 C   0  0  0  0  0  0  0  0  0  0  0  0
    1.9890   -0.7690    1.5530 C   0  0  0  0  0  0  0  0  0  0  0  0
    3.0510    0.1100    0.9630 C   0  0  0  0  0  0  0  0  0  0  0  0
    2.9200    1.4600    1.5850 C   0  0  0  0  0  0  0  0  0  0  0  0
    2.2250    2.4970    1.1250 C   0  0  0  0  0  0  0  0  0  0  0  0
    1.4390    2.5830   -0.1510 C   0  0  1  0  0  0  0  0  0  0  0  0
    0.9770    4.0300   -0.3910 C   0  0  0  0  0  0  0  0  0  0  0  0
    2.2270    2.1710   -1.2610 O   0  0  0  0  0  0  0  0  0  0  0  0
    3.4500    2.7090   -1.4810 C   0  0  0  0  0  0  0  0  0  0  0  0
    4.1030    2.0780   -2.6730 C   0  0  0  0  0  0  0  0  0  0  0  0
    3.9100    3.5880   -0.7790 O   0  0  0  0  0  0  0  0  0  0  0  0
    0.2110    1.6320   -0.2190 C   0  0  0  0  0  0  0  0  0  0  0  0
   -0.2880    1.1270    1.1350 C   0  0  0  0  0  0  0  0  0  0  0  0
   -0.4480   -0.3980    1.2040 C   0  0  1  0  0  0  0  0  0  0  0  0
   -1.6150   -0.9070    0.4270 C   0  0  0  0  0  0  0  0  0  0  0  0
   -2.8840   -0.1620    0.5210 C   0  0  0  0  0  0  0  0  0  0  0  0
   -3.3280    0.1810    1.6010 O   0  0  0  0  0  0  0  0  0  0  0  0
   -3.5940    0.1010   -0.7830 C   0  0  0  0  0  0  0  0  0  0  0  0
   -4.5910    1.1980   -0.6470 C   0  0  0  0  0  0  0  0  0  0  0  0
   -5.9050    0.9910   -0.5400 C   0  0  0  0  0  0  0  0  0  0  0  0
   -6.5260   -0.3590   -0.5230 C   0  0  0  0  0  0  0  0  0  0  0  0
   -6.8670    2.1200   -0.4100 C   0  0  0  0  0  0  0  0  0  0  0  0
   -1.5720   -2.0690   -0.2390 C   0  0  0  0  0  0  0  0  0  0  0  0
   -0.5110   -2.9080   -0.2620 O   0  0  0  0  0  0  0  0  0  0  0  0
    0.5600   -2.6040    0.6150 C   0  0  1  0  0  0  0  0  0  0  0  0
    1.6610   -3.1530   -0.0640 O   0  0  0  0  0  0  0  0  0  0  0  0
    1.7900   -4.5100   -0.1180 C   0  0  0  0  0  0  0  0  0  0  0  0
    2.9490   -4.9130   -0.9690 C   0  0  0  0  0  0  0  0  0  0  0  0
    1.0360   -5.2320    0.5000 O   0  0  0  0  0  0  0  0  0  0  0  0
    0.8220   -1.0880    0.6790 C   0  0  2  0  0  0  0  0  0  0  0  0
    1.3400   -1.8230    3.3010 H   0  0  0  0  0  0  0  0  0  0  0  0
    2.9240   -0.9780    3.4530 H   0  0  0  0  0  0  0  0  0  0  0  0
    4.0620   -0.3110    1.1670 H   0  0  0  0  0  0  0  0  0  0  0  0
    3.0080    0.1400   -0.1460 H   0  0  0  0  0  0  0  0  0  0  0  0
    3.4460    1.5600    2.5450 H   0  0  0  0  0  0  0  0  0  0  0  0
    2.2210    3.4200    1.7220 H   0  0  0  0  0  0  0  0  0  0  0  0
    1.7830    4.7700   -0.2850 H   0  0  0  0  0  0  0  0  0  0  0  0
    0.5610    4.1700   -1.4000 H   0  0  0  0  0  0  0  0  0  0  0  0
    0.1950    4.3200    0.3270 H   0  0  0  0  0  0  0  0  0  0  0  0
    3.5920    2.3680   -3.6020 H   0  0  0  0  0  0  0  0  0  0  0  0
    5.1540    2.3860   -2.7620 H   0  0  0  0  0  0  0  0  0  0  0  0
    4.0810    0.9820   -2.6240 H   0  0  0  0  0  0  0  0  0  0  0  0
   -0.6230    2.1450   -0.7490 H   0  0  0  0  0  0  0  0  0  0  0  0
    0.4260    0.7760   -0.9030 H   0  0  0  0  0  0  0  0  0  0  0  0
    0.3720    1.4370    1.9730 H   0  0  0  0  0  0  0  0  0  0  0  0
   -1.2460    1.6270    1.3910 H   0  0  0  0  0  0  0  0  0  0  0  0
   -0.6250   -0.6790    2.2780 H   0  0  0  0  0  0  0  0  0  0  0  0
   -2.8540    0.3530   -1.5740 H   0  0  0  0  0  0  0  0  0  0  0  0
   -4.0710   -0.8460   -1.1300 H   0  0  0  0  0  0  0  0  0  0  0  0
   -4.1680    2.2070   -0.6210 H   0  0  0  0  0  0  0  0  0  0  0  0
   -6.7870   -0.6540    0.5030 H   0  0  0  0  0  0  0  0  0  0  0  0
   -7.4510   -0.4000   -1.1150 H   0  0  0  0  0  0  0  0  0  0  0  0
   -5.8660   -1.1470   -0.9210 H   0  0  0  0  0  0  0  0  0  0  0  0
   -6.3870    3.1030   -0.3280 H   0  0  0  0  0  0  0  0  0  0  0  0
   -7.5400    2.1750   -1.2790 H   0  0  0  0  0  0  0  0  0  0  0  0
   -7.5010    2.0050    0.4830 H   0  0  0  0  0  0  0  0  0  0  0  0
   -2.3730   -2.5150   -0.8380 H   0  0  0  0  0  0  0  0  0  0  0  0
    0.3640   -3.0750    1.6170 H   0  0  0  0  0  0  0  0  0  0  0  0
    3.8640   -4.9780   -0.3600 H   0  0  0  0  0  0  0  0  0  0  0  0
    2.7750   -5.9040   -1.4180 H   0  0  0  0  0  0  0  0  0  0  0  0
    3.1480   -4.2060   -1.7910 H   0  0  0  0  0  0  0  0  0  0  0  0
    1.0150   -0.7360   -0.3750 H   0  0  0  0  0  0  0  0  0  0  0  0
  1  2  2  0
  1 31  1  0
  1 32  1  0
  2 30  1  0
  2  3  1  0
  3 34  1  0
  3 33  1  0
  3  4  1  0
  4  5  2  0
  4 35  1  0
  5  6  1  0
  5 36  1  0
  6  8  1  6
  6  7  1  0
  6 12  1  0
  7 38  1  0
  7 37  1  0
  7 39  1  0
  8  9  1  0
  9 10  1  0
  9 11  2  0
 10 40  1  0
 10 41  1  0
 10 42  1  0
 12 44  1  0
 12 43  1  0
 12 13  1  0
 13 14  1  0
 13 46  1  0
 13 45  1  0
 14 15  1  0
 14 30  1  0
 14 47  1  1
 15 23  2  0
 15 16  1  0
 16 18  1  0
 16 17  2  0
 18 48  1  0
 18 49  1  0
 18 19  1  0
 19 50  1  0
 19 20  2  0
 20 21  1  0
 20 22  1  0
 21 52  1  0
 21 53  1  0
 21 51  1  0
 22 55  1  0
 22 54  1  0
 22 56  1  0
 23 57  1  0
 23 24  1  0
 24 25  1  0
 25 26  1  0
 25 30  1  0
 25 58  1  1
 26 27  1  0
 27 28  1  0
 27 29  2  0
 28 61  1  0
 28 60  1  0
 28 59  1  0
 30 62  1  6
M  END
>  <id>  (52) 
152

>  <scaffolds>  (52) 
['C=C1CC=CCCCC2C=COCC12']

>  <name>  (52) 
Tsitsixenicin D

>  <formula>  (52) 
C24H32O6

>  <SMILES>  (52) 
C=C1CC=CC(C)(OC(C)=O)CCC2C(C(=O)C/C=C(C)/C)=COC(OC(C)=O)C12

>  <ChEMBL_id>  (52) 


>  <ZINC_id>  (52) 


>  <PubChem_id>  (52) 


>  <DrugBank_id>  (52) 


>  <CAS_no>  (52) 
168075-14-7

>  <references>  (52) 
[{'journal': {'name': 'Thesis, Rhodes University', 'id': 2}, 'title': 'Biologically Active Natural Products From South African Marine Invertebrates', 'year': 1996, 'start_page': None, 'volume': None, 'issue': None, 'doi': None, 'isbn': None, 'despositor': {'code': 'rah', 'first_name': 'Rowan', 'last_name': 'Hatherley', 'id': 20}, 'refauthors_set': [{'author': {'first_name': 'Gregory', 'initials': 'GJ', 'last_name': 'Hooper', 'id': 448}, 'first_author': True, 'id': 606}], 'id': 227}, {'journal': {'name': 'Tetrahedron', 'id': 4}, 'title': 'New Metabolites from the South African Soft Coral Capnella thyrsoidea', 'year': 1995, 'start_page': 9973, 'volume': 51, 'issue': 36, 'doi': '10.1016/0040-4020(95)00570-X', 'isbn': '', 'despositor': {'code': 'rah', 'first_name': 'Rowan', 'last_name': 'Hatherley', 'id': 20}, 'refauthors_set': [{'author': {'first_name': 'Gregory', 'initials': 'GJ', 'last_name': 'Hooper', 'id': 448}, 'first_author': True, 'id': 611}, {'author': {'first_name': 'Michael', 'initials': 'MT', 'last_name': 'Davies-Coleman', 'id': 449}, 'first_author': None, 'id': 612}], 'id': 229}]

>  <classifications>  (52) 
[{'classification': 'Diterpene', 'id': 771}, {'classification': 'Terpenoid', 'id': 839}, {'classification': 'Tsitsixenicin', 'id': 844}, {'classification': 'Xenicane', 'id': 848}, {'classification': 'Phenol lipids (Classyfire)', 'id': 951}]

>  <molecular_mass>  (52) 
416.51

$$$$
SANC00153_minRM1.pdb
     RDKit          3D

 81 84  0  0  1  0  0  0  0  0999 V2000
    2.4640    1.5740    1.0820 H   0  0  0  0  0  0  0  0  0  0  0  0
    2.4230    0.8230    0.2500 C   0  0  1  0  0  0  0  0  0  0  0  0
    3.6340   -0.1040    0.4060 C   0  0  2  0  0  0  0  0  0  0  0  0
    3.6400   -0.8700   -0.4100 H   0  0  0  0  0  0  0  0  0  0  0  0
    3.5980   -0.8140    1.7560 C   0  0  0  0  0  0  0  0  0  0  0  0
    4.9350    0.7100    0.3180 C   0  0  0  0  0  0  0  0  0  0  0  0
    6.1620   -0.2030    0.3180 C   0  0  0  0  0  0  0  0  0  0  0  0
    7.4420    0.6250    0.3830 C   0  0  0  0  0  0  0  0  0  0  0  0
    8.6940   -0.2280    0.1580 C   0  0  1  0  0  0  0  0  0  0  0  0
    9.9250    0.6750    0.1370 C   0  0  0  0  0  0  0  0  0  0  0  0
    8.8510   -1.2780    1.2510 C   0  0  0  0  0  0  0  0  0  0  0  0
    2.4190    1.5730   -1.1010 C   0  0  0  0  0  0  0  0  0  0  0  0
    0.9500    1.7390   -1.5280 C   0  0  0  0  0  0  0  0  0  0  0  0
    0.1550    1.2770   -0.3110 C   0  0  1  0  0  0  0  0  0  0  0  0
    0.1260    2.1310    0.4190 H   0  0  0  0  0  0  0  0  0  0  0  0
   -1.2740    0.8000   -0.5450 C   0  0  2  0  0  0  0  0  0  0  0  0
   -1.2680   -0.0720   -1.2460 H   0  0  0  0  0  0  0  0  0  0  0  0
   -2.1150    1.9480   -1.1340 C   0  0  1  0  0  0  0  0  0  0  0  0
   -1.8860    2.9170   -0.6000 H   0  0  0  0  0  0  0  0  0  0  0  0
   -1.7440    2.0290   -2.4830 O   0  0  0  0  0  0  0  0  0  0  0  0
   -3.5880    1.7040   -1.0090 C   0  0  0  0  0  0  0  0  0  0  0  0
   -4.1300    0.8020   -0.1940 C   0  0  0  0  0  0  0  0  0  0  0  0
   -5.6100    0.5960   -0.1880 C   0  0  0  0  0  0  0  0  0  0  0  0
   -6.1500    0.6020    1.2470 C   0  0  1  0  0  0  0  0  0  0  0  0
   -6.0050    1.6180    1.7080 H   0  0  0  0  0  0  0  0  0  0  0  0
   -7.5110    0.2970    1.1310 O   0  0  0  0  0  0  0  0  0  0  0  0
   -5.4210   -0.4620    2.0730 C   0  0  0  0  0  0  0  0  0  0  0  0
   -3.9350   -0.1410    2.0950 C   0  0  0  0  0  0  0  0  0  0  0  0
   -3.3220   -0.1090    0.6800 C   0  0  1  0  0  0  0  0  0  0  0  0
   -3.4040   -1.5450    0.1160 C   0  0  0  0  0  0  0  0  0  0  0  0
   -3.2090   -1.4510   -1.2810 O   0  0  0  0  0  0  0  0  0  0  0  0
   -3.2000   -2.6070   -1.9920 C   0  0  0  0  0  0  0  0  0  0  0  0
   -2.9440   -2.3530   -3.4410 C   0  0  0  0  0  0  0  0  0  0  0  0
   -3.3870   -3.6770   -1.4410 O   0  0  0  0  0  0  0  0  0  0  0  0
   -1.8690    0.4050    0.8140 C   0  0  1  0  0  0  0  0  0  0  0  0
   -0.9860   -0.6150    1.5420 C   0  0  0  0  0  0  0  0  0  0  0  0
    0.4740   -0.1820    1.6480 C   0  0  0  0  0  0  0  0  0  0  0  0
    1.0320    0.1480    0.2690 C   0  0  2  0  0  0  0  0  0  0  0  0
    1.0200   -1.0900   -0.6220 C   0  0  0  0  0  0  0  0  0  0  0  0
    3.5610   -0.1130    2.6020 H   0  0  0  0  0  0  0  0  0  0  0  0
    2.7290   -1.4810    1.8640 H   0  0  0  0  0  0  0  0  0  0  0  0
    4.4920   -1.4410    1.9080 H   0  0  0  0  0  0  0  0  0  0  0  0
    4.9550    1.3430   -0.5930 H   0  0  0  0  0  0  0  0  0  0  0  0
    4.9940    1.4340    1.1590 H   0  0  0  0  0  0  0  0  0  0  0  0
    6.1080   -0.9110    1.1740 H   0  0  0  0  0  0  0  0  0  0  0  0
    6.1580   -0.8510   -0.5830 H   0  0  0  0  0  0  0  0  0  0  0  0
    7.4080    1.4380   -0.3740 H   0  0  0  0  0  0  0  0  0  0  0  0
    7.5050    1.1550    1.3560 H   0  0  0  0  0  0  0  0  0  0  0  0
    8.6140   -0.7450   -0.8340 H   0  0  0  0  0  0  0  0  0  0  0  0
   10.0670    1.2070    1.0890 H   0  0  0  0  0  0  0  0  0  0  0  0
   10.8490    0.1110   -0.0490 H   0  0  0  0  0  0  0  0  0  0  0  0
    9.8660    1.4420   -0.6490 H   0  0  0  0  0  0  0  0  0  0  0  0
    8.7990   -0.8450    2.2590 H   0  0  0  0  0  0  0  0  0  0  0  0
    8.0810   -2.0600    1.1980 H   0  0  0  0  0  0  0  0  0  0  0  0
    9.8150   -1.8020    1.1830 H   0  0  0  0  0  0  0  0  0  0  0  0
    2.9230    2.5550   -1.0130 H   0  0  0  0  0  0  0  0  0  0  0  0
    2.9930    1.0340   -1.8810 H   0  0  0  0  0  0  0  0  0  0  0  0
    0.7100    2.7800   -1.8170 H   0  0  0  0  0  0  0  0  0  0  0  0
    0.7100    1.1450   -2.4320 H   0  0  0  0  0  0  0  0  0  0  0  0
   -2.2320    2.7560   -2.8820 H   0  0  0  0  0  0  0  0  0  0  0  0
   -4.2180    2.3370   -1.6440 H   0  0  0  0  0  0  0  0  0  0  0  0
   -6.1440    1.3630   -0.7890 H   0  0  0  0  0  0  0  0  0  0  0  0
   -5.8540   -0.3590   -0.7040 H   0  0  0  0  0  0  0  0  0  0  0  0
   -7.8920    0.3260    2.0130 H   0  0  0  0  0  0  0  0  0  0  0  0
   -5.8230   -0.5110    3.1060 H   0  0  0  0  0  0  0  0  0  0  0  0
   -5.6060   -1.4770    1.6530 H   0  0  0  0  0  0  0  0  0  0  0  0
   -3.7730    0.8320    2.6070 H   0  0  0  0  0  0  0  0  0  0  0  0
   -3.4000   -0.8800    2.7300 H   0  0  0  0  0  0  0  0  0  0  0  0
   -2.6400   -2.2140    0.5810 H   0  0  0  0  0  0  0  0  0  0  0  0
   -4.3920   -2.0180    0.3380 H   0  0  0  0  0  0  0  0  0  0  0  0
   -2.0160   -1.7800   -3.5930 H   0  0  0  0  0  0  0  0  0  0  0  0
   -2.8550   -3.2940   -4.0020 H   0  0  0  0  0  0  0  0  0  0  0  0
   -3.7600   -1.7680   -3.8920 H   0  0  0  0  0  0  0  0  0  0  0  0
   -1.9010    1.3360    1.4450 H   0  0  0  0  0  0  0  0  0  0  0  0
   -1.3830   -0.7930    2.5660 H   0  0  0  0  0  0  0  0  0  0  0  0
   -1.0540   -1.6150    1.0570 H   0  0  0  0  0  0  0  0  0  0  0  0
    0.5720    0.6840    2.3350 H   0  0  0  0  0  0  0  0  0  0  0  0
    1.0710   -0.9850    2.1370 H   0  0  0  0  0  0  0  0  0  0  0  0
    0.0060   -1.3570   -0.9660 H   0  0  0  0  0  0  0  0  0  0  0  0
    1.6070   -0.9690   -1.5440 H   0  0  0  0  0  0  0  0  0  0  0  0
    1.4190   -1.9790   -0.1140 H   0  0  0  0  0  0  0  0  0  0  0  0
  2  1  1  1
  2 12  1  0
  2 38  1  0
  2  3  1  0
  3  4  1  6
  3  6  1  0
  3  5  1  0
  5 41  1  0
  5 42  1  0
  5 40  1  0
  6 43  1  0
  6  7  1  0
  6 44  1  0
  7 46  1  0
  7  8  1  0
  7 45  1  0
  8 47  1  0
  8  9  1  0
  8 48  1  0
  9 49  1  6
  9 10  1  0
  9 11  1  0
 10 52  1  0
 10 51  1  0
 10 50  1  0
 11 55  1  0
 11 54  1  0
 11 53  1  0
 12 57  1  0
 12 13  1  0
 12 56  1  0
 13 59  1  0
 13 58  1  0
 13 14  1  0
 14 16  1  0
 14 38  1  0
 14 15  1  1
 16 17  1  6
 16 18  1  0
 16 35  1  0
 18 20  1  0
 18 21  1  0
 18 19  1  1
 20 60  1  0
 21 61  1  0
 21 22  2  0
 22 23  1  0
 22 29  1  0
 23 62  1  0
 23 63  1  0
 23 24  1  0
 24 26  1  0
 24 25  1  1
 24 27  1  0
 26 64  1  0
 27 66  1  0
 27 28  1  0
 27 65  1  0
 28 29  1  0
 28 67  1  0
 28 68  1  0
 29 30  1  6
 29 35  1  0
 30 31  1  0
 30 70  1  0
 30 69  1  0
 31 32  1  0
 32 33  1  0
 32 34  2  0
 33 72  1  0
 33 73  1  0
 33 71  1  0
 35 74  1  1
 35 36  1  0
 36 76  1  0
 36 37  1  0
 36 75  1  0
 37 38  1  0
 37 78  1  0
 37 77  1  0
 38 39  1  6
 39 80  1  0
 39 79  1  0
 39 81  1  0
M  END
>  <id>  (53) 
153

>  <scaffolds>  (53) 
['C1=C2CCCCC2C2CCC3CCCC3C2C1', 'C1=CCCCC1', 'C1=CCC2CCCCC2C1', 'C1CCCCC1', 'C1=C2CCCCC2CCC1']

>  <name>  (53) 
Cholest-5-ene-3[beta],7[beta],19-triol 19-acetate

>  <formula>  (53) 
C29H48O4

>  <SMILES>  (53) 
[H][C@]3([C@H](C)CCCC(C)C)CC[C@@]4([H])[C@]2([H])[C@@H](O)C=C1C[C@@H](O)CC[C@]1(COC(C)=O)C2CC[C@]34C

>  <ChEMBL_id>  (53) 


>  <ZINC_id>  (53) 


>  <PubChem_id>  (53) 


>  <DrugBank_id>  (53) 


>  <CAS_no>  (53) 
1403938-68-0

>  <references>  (53) 
[{'journal': {'name': 'Thesis, Rhodes University', 'id': 2}, 'title': 'Biologically Active Natural Products From South African Marine Invertebrates', 'year': 1996, 'start_page': None, 'volume': None, 'issue': None, 'doi': None, 'isbn': None, 'despositor': {'code': 'rah', 'first_name': 'Rowan', 'last_name': 'Hatherley', 'id': 20}, 'refauthors_set': [{'author': {'first_name': 'Gregory', 'initials': 'GJ', 'last_name': 'Hooper', 'id': 448}, 'first_author': True, 'id': 606}], 'id': 227}]

>  <classifications>  (53) 
[{'classification': 'Sterol', 'id': 836}, {'classification': 'Steroids and steroid derivatives (Classyfire)', 'id': 942}]

>  <molecular_mass>  (53) 
460.69

$$$$
SANC00154_minRM1.pdb
     RDKit          3D

 79 82  0  0  1  0  0  0  0  0999 V2000
    2.6550    1.2650    0.9960 H   0  0  0  0  0  0  0  0  0  0  0  0
    2.5530    0.5990    0.0990 C   0  0  1  0  0  0  0  0  0  0  0  0
    3.7340   -0.3790    0.1190 C   0  0  2  0  0  0  0  0  0  0  0  0
    3.6910   -1.0590   -0.7690 H   0  0  0  0  0  0  0  0  0  0  0  0
    3.7130   -1.2220    1.3900 C   0  0  0  0  0  0  0  0  0  0  0  0
    5.0570    0.4020    0.0660 C   0  0  0  0  0  0  0  0  0  0  0  0
    6.2580   -0.5430   -0.0130 C   0  0  0  0  0  0  0  0  0  0  0  0
    7.5200    0.2450   -0.0780 C   0  0  0  0  0  0  0  0  0  0  0  0
    8.4920    0.2130    0.8360 C   0  0  0  0  0  0  0  0  0  0  0  0
    9.7240    1.0330    0.6600 C   0  0  0  0  0  0  0  0  0  0  0  0
    8.4170   -0.6000    2.0780 C   0  0  0  0  0  0  0  0  0  0  0  0
    2.5300    1.4760   -1.1740 C   0  0  0  0  0  0  0  0  0  0  0  0
    1.0550    1.7260   -1.5330 C   0  0  0  0  0  0  0  0  0  0  0  0
    0.2870    1.1900   -0.3300 C   0  0  1  0  0  0  0  0  0  0  0  0
    0.3240    1.9760    0.4720 H   0  0  0  0  0  0  0  0  0  0  0  0
   -1.1700    0.7920   -0.5440 C   0  0  2  0  0  0  0  0  0  0  0  0
   -1.2260   -0.0230   -1.3110 H   0  0  0  0  0  0  0  0  0  0  0  0
   -1.9820    2.0150   -1.0080 C   0  0  1  0  0  0  0  0  0  0  0  0
   -1.6830    2.9320   -0.4200 H   0  0  0  0  0  0  0  0  0  0  0  0
   -1.6690    2.1770   -2.3660 O   0  0  0  0  0  0  0  0  0  0  0  0
   -3.4590    1.8330   -0.8270 C   0  0  0  0  0  0  0  0  0  0  0  0
   -4.0100    0.9010   -0.0530 C   0  0  0  0  0  0  0  0  0  0  0  0
   -5.4970    0.7750    0.0230 C   0  0  0  0  0  0  0  0  0  0  0  0
   -5.9570    0.7060    1.4850 C   0  0  1  0  0  0  0  0  0  0  0  0
   -5.7190    1.6730    2.0090 H   0  0  0  0  0  0  0  0  0  0  0  0
   -7.3390    0.4950    1.4280 O   0  0  0  0  0  0  0  0  0  0  0  0
   -5.2520   -0.4620    2.1840 C   0  0  0  0  0  0  0  0  0  0  0  0
   -3.7510   -0.2210    2.1490 C   0  0  0  0  0  0  0  0  0  0  0  0
   -3.2110   -0.1130    0.7080 C   0  0  1  0  0  0  0  0  0  0  0  0
   -3.4010   -1.4980    0.0490 C   0  0  0  0  0  0  0  0  0  0  0  0
   -3.2300   -1.3220   -1.3440 O   0  0  0  0  0  0  0  0  0  0  0  0
   -3.3740   -2.4160   -2.1340 C   0  0  0  0  0  0  0  0  0  0  0  0
   -3.1200   -2.0940   -3.5710 C   0  0  0  0  0  0  0  0  0  0  0  0
   -3.6710   -3.4950   -1.6520 O   0  0  0  0  0  0  0  0  0  0  0  0
   -1.7260    0.3140    0.8040 C   0  0  1  0  0  0  0  0  0  0  0  0
   -0.8700   -0.8100    1.3960 C   0  0  0  0  0  0  0  0  0  0  0  0
    0.6120   -0.4530    1.4780 C   0  0  0  0  0  0  0  0  0  0  0  0
    1.1360   -0.0210    0.1120 C   0  0  2  0  0  0  0  0  0  0  0  0
    1.0400   -1.1690   -0.8860 C   0  0  0  0  0  0  0  0  0  0  0  0
    2.8050   -1.8380    1.4780 H   0  0  0  0  0  0  0  0  0  0  0  0
    4.5660   -1.9190    1.4350 H   0  0  0  0  0  0  0  0  0  0  0  0
    3.7650   -0.6080    2.3010 H   0  0  0  0  0  0  0  0  0  0  0  0
    5.0810    1.0920   -0.8020 H   0  0  0  0  0  0  0  0  0  0  0  0
    5.1530    1.0660    0.9510 H   0  0  0  0  0  0  0  0  0  0  0  0
    6.2380   -1.2690    0.8290 H   0  0  0  0  0  0  0  0  0  0  0  0
    6.1900   -1.1880   -0.9180 H   0  0  0  0  0  0  0  0  0  0  0  0
    7.6140    0.8790   -0.9690 H   0  0  0  0  0  0  0  0  0  0  0  0
    9.6090    2.0250    1.1270 H   0  0  0  0  0  0  0  0  0  0  0  0
   10.6160    0.5670    1.1070 H   0  0  0  0  0  0  0  0  0  0  0  0
    9.9740    1.2120   -0.3980 H   0  0  0  0  0  0  0  0  0  0  0  0
    8.4300   -1.6790    1.8580 H   0  0  0  0  0  0  0  0  0  0  0  0
    9.2510   -0.4150    2.7720 H   0  0  0  0  0  0  0  0  0  0  0  0
    7.4990   -0.3950    2.6520 H   0  0  0  0  0  0  0  0  0  0  0  0
    3.0680    2.4300   -1.0080 H   0  0  0  0  0  0  0  0  0  0  0  0
    3.0620    1.0020   -2.0230 H   0  0  0  0  0  0  0  0  0  0  0  0
    0.8430    2.7950   -1.7270 H   0  0  0  0  0  0  0  0  0  0  0  0
    0.7630    1.2170   -2.4730 H   0  0  0  0  0  0  0  0  0  0  0  0
   -2.1460    2.9460   -2.6920 H   0  0  0  0  0  0  0  0  0  0  0  0
   -4.0840    2.5450   -1.3790 H   0  0  0  0  0  0  0  0  0  0  0  0
   -6.0180    1.6130   -0.4910 H   0  0  0  0  0  0  0  0  0  0  0  0
   -5.8250   -0.1250   -0.5420 H   0  0  0  0  0  0  0  0  0  0  0  0
   -7.6680    0.4790    2.3310 H   0  0  0  0  0  0  0  0  0  0  0  0
   -5.6030   -0.5720    3.2310 H   0  0  0  0  0  0  0  0  0  0  0  0
   -5.5180   -1.4270    1.6970 H   0  0  0  0  0  0  0  0  0  0  0  0
   -3.5130    0.7030    2.7220 H   0  0  0  0  0  0  0  0  0  0  0  0
   -3.2220   -1.0310    2.6980 H   0  0  0  0  0  0  0  0  0  0  0  0
   -2.6710   -2.2470    0.4410 H   0  0  0  0  0  0  0  0  0  0  0  0
   -4.4130   -1.9170    0.2710 H   0  0  0  0  0  0  0  0  0  0  0  0
   -2.0720   -1.7900   -3.7290 H   0  0  0  0  0  0  0  0  0  0  0  0
   -3.3190   -2.9630   -4.2160 H   0  0  0  0  0  0  0  0  0  0  0  0
   -3.7540   -1.2640   -3.9230 H   0  0  0  0  0  0  0  0  0  0  0  0
   -1.6740    1.1890    1.5090 H   0  0  0  0  0  0  0  0  0  0  0  0
   -1.2370   -1.0640    2.4170 H   0  0  0  0  0  0  0  0  0  0  0  0
   -1.0100   -1.7560    0.8270 H   0  0  0  0  0  0  0  0  0  0  0  0
    0.7730    0.3450    2.2350 H   0  0  0  0  0  0  0  0  0  0  0  0
    1.1890   -1.3200    1.8700 H   0  0  0  0  0  0  0  0  0  0  0  0
    0.0040   -1.3630   -1.2120 H   0  0  0  0  0  0  0  0  0  0  0  0
    1.5970   -0.9840   -1.8170 H   0  0  0  0  0  0  0  0  0  0  0  0
    1.4200   -2.1170   -0.4790 H   0  0  0  0  0  0  0  0  0  0  0  0
  2  1  1  1
  2 12  1  0
  2 38  1  0
  2  3  1  0
  3  4  1  6
  3  6  1  0
  3  5  1  0
  5 41  1  0
  5 40  1  0
  5 42  1  0
  6 43  1  0
  6  7  1  0
  6 44  1  0
  7 46  1  0
  7  8  1  0
  7 45  1  0
  8 47  1  0
  8  9  2  0
  9 10  1  0
  9 11  1  0
 10 50  1  0
 10 49  1  0
 10 48  1  0
 11 51  1  0
 11 53  1  0
 11 52  1  0
 12 55  1  0
 12 13  1  0
 12 54  1  0
 13 57  1  0
 13 56  1  0
 13 14  1  0
 14 16  1  0
 14 38  1  0
 14 15  1  1
 16 17  1  6
 16 18  1  0
 16 35  1  0
 18 20  1  0
 18 21  1  0
 18 19  1  1
 20 58  1  0
 21 59  1  0
 21 22  2  0
 22 23  1  0
 22 29  1  0
 23 61  1  0
 23 60  1  0
 23 24  1  0
 24 26  1  0
 24 25  1  1
 24 27  1  0
 26 62  1  0
 27 64  1  0
 27 28  1  0
 27 63  1  0
 28 29  1  0
 28 66  1  0
 28 65  1  0
 29 30  1  6
 29 35  1  0
 30 31  1  0
 30 68  1  0
 30 67  1  0
 31 32  1  0
 32 33  1  0
 32 34  2  0
 33 70  1  0
 33 71  1  0
 33 69  1  0
 35 36  1  0
 35 72  1  1
 36 74  1  0
 36 37  1  0
 36 73  1  0
 37 38  1  0
 37 76  1  0
 37 75  1  0
 38 39  1  6
 39 78  1  0
 39 77  1  0
 39 79  1  0
M  END
>  <id>  (54) 
154

>  <scaffolds>  (54) 
['C1=C2CCCCC2C2CCC3CCCC3C2C1', 'C1=CCCCC1', 'C1=CCC2CCCCC2C1', 'C1CCCCC1', 'C1=C2CCCCC2CCC1']

>  <name>  (54) 
Cholest-5,24-diene-3[beta], 7[beta], 19-triol 19-acetate

>  <formula>  (54) 
C29H46O4

>  <SMILES>  (54) 
[H][C@]3([C@H](C)CC/C=C(C)\C)CC[C@@]4([H])[C@]2([H])[C@@H](O)C=C1C[C@@H](O)CC[C@]1(COC(C)=O)C2CC[C@]34C

>  <ChEMBL_id>  (54) 


>  <ZINC_id>  (54) 


>  <PubChem_id>  (54) 


>  <DrugBank_id>  (54) 


>  <CAS_no>  (54) 


>  <references>  (54) 
[{'journal': {'name': 'Thesis, Rhodes University', 'id': 2}, 'title': 'Biologically Active Natural Products From South African Marine Invertebrates', 'year': 1996, 'start_page': None, 'volume': None, 'issue': None, 'doi': None, 'isbn': None, 'despositor': {'code': 'rah', 'first_name': 'Rowan', 'last_name': 'Hatherley', 'id': 20}, 'refauthors_set': [{'author': {'first_name': 'Gregory', 'initials': 'GJ', 'last_name': 'Hooper', 'id': 448}, 'first_author': True, 'id': 606}], 'id': 227}]

>  <classifications>  (54) 
[{'classification': 'Sterol', 'id': 836}, {'classification': 'Steroids and steroid derivatives (Classyfire)', 'id': 942}]

>  <molecular_mass>  (54) 
458.67

$$$$
SANC00155_minRM1.pdb
     RDKit          3D

 63 64  0  0  1  0  0  0  0  0999 V2000
   -0.5850    0.9480    0.8920 H   0  0  0  0  0  0  0  0  0  0  0  0
   -0.5930    0.5460   -0.1590 C   0  0  1  0  0  0  0  0  0  0  0  0
   -0.3360    1.6840   -1.1610 C   0  0  0  0  0  0  0  0  0  0  0  0
   -0.1630    3.0550   -0.4940 C   0  0  0  0  0  0  0  0  0  0  0  0
   -1.4580    3.7990   -0.4360 C   0  0  0  0  0  0  0  0  0  0  0  0
   -1.6110    4.8540   -1.4780 C   0  0  0  0  0  0  0  0  0  0  0  0
   -2.4320    3.5740    0.4470 C   0  0  0  0  0  0  0  0  0  0  0  0
   -2.3940    2.5580    1.5320 C   0  0  0  0  0  0  0  0  0  0  0  0
   -3.2980    1.3710    1.1850 C   0  0  0  0  0  0  0  0  0  0  0  0
   -3.0670    0.8930   -0.2130 C   0  0  0  0  0  0  0  0  0  0  0  0
   -3.8180    1.3390   -1.2170 C   0  0  0  0  0  0  0  0  0  0  0  0
   -1.9630   -0.0900   -0.4510 C   0  0  2  0  0  0  0  0  0  0  0  0
   -1.9750   -0.4510   -1.5140 H   0  0  0  0  0  0  0  0  0  0  0  0
   -2.1440   -1.3110    0.4720 C   0  0  1  0  0  0  0  0  0  0  0  0
   -2.2400   -1.0220    1.5590 H   0  0  0  0  0  0  0  0  0  0  0  0
   -3.2630   -2.0040   -0.0280 O   0  0  0  0  0  0  0  0  0  0  0  0
   -3.7970   -3.0100    0.7210 C   0  0  0  0  0  0  0  0  0  0  0  0
   -4.8690   -3.7290   -0.0300 C   0  0  0  0  0  0  0  0  0  0  0  0
   -3.4150   -3.2150    1.8550 O   0  0  0  0  0  0  0  0  0  0  0  0
   -1.1150   -2.2680    0.3280 O   0  0  0  0  0  0  0  0  0  0  0  0
    0.1310   -1.8060    0.0650 C   0  0  0  0  0  0  0  0  0  0  0  0
    0.4480   -0.5280   -0.1820 C   0  0  0  0  0  0  0  0  0  0  0  0
    1.8840   -0.1240   -0.3470 C   0  0  1  0  0  0  0  0  0  0  0  0
    2.5190    0.0600    1.0450 C   0  0  0  0  0  0  0  0  0  0  0  0
    3.9210    0.5430    0.9380 C   0  0  0  0  0  0  0  0  0  0  0  0
    4.8890    0.2070    1.7940 C   0  0  0  0  0  0  0  0  0  0  0  0
    4.6760   -0.7130    2.9430 C   0  0  0  0  0  0  0  0  0  0  0  0
    6.2700    0.7450    1.6540 C   0  0  0  0  0  0  0  0  0  0  0  0
    2.5470   -1.2120   -0.9750 O   0  0  0  0  0  0  0  0  0  0  0  0
    3.5310   -0.9800   -1.8760 C   0  0  0  0  0  0  0  0  0  0  0  0
    4.1710   -2.2550   -2.3270 C   0  0  0  0  0  0  0  0  0  0  0  0
    3.8150    0.1460   -2.2410 O   0  0  0  0  0  0  0  0  0  0  0  0
    0.5670    1.4650   -1.7750 H   0  0  0  0  0  0  0  0  0  0  0  0
   -1.1420    1.7480   -1.9230 H   0  0  0  0  0  0  0  0  0  0  0  0
    0.3070    2.9780    0.5070 H   0  0  0  0  0  0  0  0  0  0  0  0
    0.5880    3.6440   -1.0660 H   0  0  0  0  0  0  0  0  0  0  0  0
   -1.4650    4.4450   -2.4890 H   0  0  0  0  0  0  0  0  0  0  0  0
   -2.6000    5.3400   -1.4800 H   0  0  0  0  0  0  0  0  0  0  0  0
   -0.8710    5.6580   -1.3450 H   0  0  0  0  0  0  0  0  0  0  0  0
   -3.3610    4.1560    0.4130 H   0  0  0  0  0  0  0  0  0  0  0  0
   -1.3630    2.2030    1.7540 H   0  0  0  0  0  0  0  0  0  0  0  0
   -2.7230    3.0180    2.4900 H   0  0  0  0  0  0  0  0  0  0  0  0
   -3.1420    0.5480    1.9190 H   0  0  0  0  0  0  0  0  0  0  0  0
   -4.3640    1.6530    1.3260 H   0  0  0  0  0  0  0  0  0  0  0  0
   -4.6200    2.0600   -1.0920 H   0  0  0  0  0  0  0  0  0  0  0  0
   -3.7030    1.0270   -2.2500 H   0  0  0  0  0  0  0  0  0  0  0  0
   -4.4980   -4.1200   -0.9910 H   0  0  0  0  0  0  0  0  0  0  0  0
   -5.2570   -4.5810    0.5510 H   0  0  0  0  0  0  0  0  0  0  0  0
   -5.7150   -3.0610   -0.2540 H   0  0  0  0  0  0  0  0  0  0  0  0
    0.8140   -2.6630    0.0910 H   0  0  0  0  0  0  0  0  0  0  0  0
    1.9510    0.8240   -0.9510 H   0  0  0  0  0  0  0  0  0  0  0  0
    1.9200    0.8000    1.6220 H   0  0  0  0  0  0  0  0  0  0  0  0
    2.4310   -0.8870    1.6180 H   0  0  0  0  0  0  0  0  0  0  0  0
    4.1230    1.2380    0.1140 H   0  0  0  0  0  0  0  0  0  0  0  0
    4.3700   -1.7180    2.6120 H   0  0  0  0  0  0  0  0  0  0  0  0
    5.5770   -0.8530    3.5580 H   0  0  0  0  0  0  0  0  0  0  0  0
    3.8920   -0.3450    3.6230 H   0  0  0  0  0  0  0  0  0  0  0  0
    6.3980    1.4190    0.7950 H   0  0  0  0  0  0  0  0  0  0  0  0
    6.5710    1.3140    2.5470 H   0  0  0  0  0  0  0  0  0  0  0  0
    7.0030   -0.0660    1.5260 H   0  0  0  0  0  0  0  0  0  0  0  0
    3.5110   -3.1310   -2.2390 H   0  0  0  0  0  0  0  0  0  0  0  0
    4.4860   -2.1840   -3.3790 H   0  0  0  0  0  0  0  0  0  0  0  0
    5.0690   -2.4600   -1.7250 H   0  0  0  0  0  0  0  0  0  0  0  0
  2  1  1  1
  2  3  1  0
  2 12  1  0
  2 22  1  0
  3 34  1  0
  3 33  1  0
  3  4  1  0
  4 36  1  0
  4  5  1  0
  4 35  1  0
  5  6  1  0
  5  7  2  0
  6 37  1  0
  6 38  1  0
  6 39  1  0
  7 40  1  0
  7  8  1  0
  8  9  1  0
  8 41  1  0
  8 42  1  0
  9 10  1  0
  9 44  1  0
  9 43  1  0
 10 11  2  0
 10 12  1  0
 11 46  1  0
 11 45  1  0
 12 13  1  6
 12 14  1  0
 14 16  1  0
 14 20  1  0
 14 15  1  1
 16 17  1  0
 17 18  1  0
 17 19  2  0
 18 47  1  0
 18 49  1  0
 18 48  1  0
 20 21  1  0
 21 22  2  0
 21 50  1  0
 22 23  1  0
 23 29  1  0
 23 51  1  6
 23 24  1  0
 24 25  1  0
 24 53  1  0
 24 52  1  0
 25 54  1  0
 25 26  2  0
 26 28  1  0
 26 27  1  0
 27 55  1  0
 27 56  1  0
 27 57  1  0
 28 58  1  0
 28 60  1  0
 28 59  1  0
 29 30  1  0
 30 31  1  0
 30 32  2  0
 31 62  1  0
 31 61  1  0
 31 63  1  0
M  END
>  <id>  (55) 
155

>  <scaffolds>  (55) 
['C=C1CCC=CCCC2C=COCC12']

>  <name>  (55) 
9-deacetoxy-14,15-deepoxyxeniculin

>  <formula>  (55) 
C24H34O5

>  <SMILES>  (55) 
[H][C@]12CCC(C)=CCCC(=C)[C@]1([H])[C@@H](OC(C)=O)OC=C2C(C/C=C(C)/C)OC(C)=O

>  <ChEMBL_id>  (55) 


>  <ZINC_id>  (55) 


>  <PubChem_id>  (55) 


>  <DrugBank_id>  (55) 


>  <CAS_no>  (55) 
168113-67-5

>  <references>  (55) 
[{'journal': {'name': 'Thesis, Rhodes University', 'id': 2}, 'title': 'Biologically Active Natural Products From South African Marine Invertebrates', 'year': 1996, 'start_page': None, 'volume': None, 'issue': None, 'doi': None, 'isbn': None, 'despositor': {'code': 'rah', 'first_name': 'Rowan', 'last_name': 'Hatherley', 'id': 20}, 'refauthors_set': [{'author': {'first_name': 'Gregory', 'initials': 'GJ', 'last_name': 'Hooper', 'id': 448}, 'first_author': True, 'id': 606}], 'id': 227}, {'journal': {'name': 'Journal of Natural Products', 'id': 5}, 'title': 'New Diterpenes from the South African Soft Coral Eleutherobia aurea', 'year': 1997, 'start_page': 889, 'volume': 60, 'issue': 9, 'doi': '10.1021/np970180z', 'isbn': '', 'despositor': {'code': 'rah', 'first_name': 'Rowan', 'last_name': 'Hatherley', 'id': 20}, 'refauthors_set': [{'author': {'first_name': 'Gregory', 'initials': 'GJ', 'last_name': 'Hooper', 'id': 448}, 'first_author': True, 'id': 613}, {'author': {'first_name': 'Michael', 'initials': 'MT', 'last_name': 'Davies-Coleman', 'id': 449}, 'first_author': False, 'id': 614}, {'author': {'first_name': 'Michael', 'initials': 'M', 'last_name': 'Schleyer', 'id': 452}, 'first_author': None, 'id': 615}], 'id': 230}]

>  <classifications>  (55) 
[{'classification': 'Diterpene', 'id': 771}, {'classification': 'Terpenoid', 'id': 839}, {'classification': 'Xenicane', 'id': 848}, {'classification': 'Xeniculin', 'id': 849}, {'classification': 'Phenol lipids (Classyfire)', 'id': 951}]

>  <molecular_mass>  (55) 
402.52

$$$$
SANC00156_minRM1.pdb
     RDKit          3D

 69 70  0  0  1  0  0  0  0  0999 V2000
    0.9970    0.8610   -0.8420 H   0  0  0  0  0  0  0  0  0  0  0  0
    1.0600    0.4100    0.1860 C   0  0  1  0  0  0  0  0  0  0  0  0
    0.5440    1.4090    1.2360 C   0  0  0  0  0  0  0  0  0  0  0  0
    0.1150    2.7580    0.6410 C   0  0  0  0  0  0  0  0  0  0  0  0
    1.2300    3.7520    0.6900 C   0  0  0  0  0  0  0  0  0  0  0  0
    1.1470    4.7280    1.8140 C   0  0  0  0  0  0  0  0  0  0  0  0
    2.2440    3.7960   -0.1750 C   0  0  0  0  0  0  0  0  0  0  0  0
    2.4280    2.8670   -1.3210 C   0  0  0  0  0  0  0  0  0  0  0  0
    3.5500    1.8700   -1.0150 C   0  0  0  0  0  0  0  0  0  0  0  0
    3.3960    1.2770    0.3490 C   0  0  0  0  0  0  0  0  0  0  0  0
    4.0040    1.8210    1.4000 C   0  0  0  0  0  0  0  0  0  0  0  0
    2.5280    0.0650    0.4960 C   0  0  2  0  0  0  0  0  0  0  0  0
    2.5910   -0.3460    1.5390 H   0  0  0  0  0  0  0  0  0  0  0  0
    2.9940   -1.0290   -0.4830 C   0  0  1  0  0  0  0  0  0  0  0  0
    3.0620   -0.6570   -1.5460 H   0  0  0  0  0  0  0  0  0  0  0  0
    4.2160   -1.5020    0.0300 O   0  0  0  0  0  0  0  0  0  0  0  0
    4.9940   -2.3000   -0.7540 C   0  0  0  0  0  0  0  0  0  0  0  0
    6.1520   -2.8540    0.0100 C   0  0  0  0  0  0  0  0  0  0  0  0
    4.7240   -2.4780   -1.9240 O   0  0  0  0  0  0  0  0  0  0  0  0
    2.1900   -2.1870   -0.4380 O   0  0  0  0  0  0  0  0  0  0  0  0
    0.8670   -2.0210   -0.1980 C   0  0  0  0  0  0  0  0  0  0  0  0
    0.2720   -0.8610    0.1080 C   0  0  0  0  0  0  0  0  0  0  0  0
   -1.2220   -0.7730    0.2400 C   0  0  1  0  0  0  0  0  0  0  0  0
   -1.8240   -0.4670   -1.1450 C   0  0  0  0  0  0  0  0  0  0  0  0
   -3.3580   -0.4110   -1.1160 C   0  0  1  0  0  0  0  0  0  0  0  0
   -3.6720    0.6050   -0.1800 O   0  0  0  0  0  0  0  0  0  0  0  0
   -4.9400    0.6530    0.3050 C   0  0  0  0  0  0  0  0  0  0  0  0
   -5.0660    1.6460    1.4130 C   0  0  0  0  0  0  0  0  0  0  0  0
   -5.8110   -0.0630   -0.1520 O   0  0  0  0  0  0  0  0  0  0  0  0
   -3.9120   -0.0350   -2.4640 C   0  0  0  0  0  0  0  0  0  0  0  0
   -4.7510   -0.8390   -3.1100 C   0  0  0  0  0  0  0  0  0  0  0  0
   -3.4680    1.2610   -3.0420 C   0  0  0  0  0  0  0  0  0  0  0  0
   -1.6850   -2.0520    0.6440 O   0  0  0  0  0  0  0  0  0  0  0  0
   -2.6200   -2.1680    1.6180 C   0  0  0  0  0  0  0  0  0  0  0  0
   -2.9230   -3.6040    1.9090 C   0  0  0  0  0  0  0  0  0  0  0  0
   -3.1150   -1.1930    2.1520 O   0  0  0  0  0  0  0  0  0  0  0  0
   -0.3130    0.9740    1.8000 H   0  0  0  0  0  0  0  0  0  0  0  0
    1.2960    1.5870    2.0350 H   0  0  0  0  0  0  0  0  0  0  0  0
   -0.2880    2.6560   -0.3880 H   0  0  0  0  0  0  0  0  0  0  0  0
   -0.7620    3.1430    1.2100 H   0  0  0  0  0  0  0  0  0  0  0  0
    1.0620    4.2160    2.7850 H   0  0  0  0  0  0  0  0  0  0  0  0
    2.0220    5.3920    1.8920 H   0  0  0  0  0  0  0  0  0  0  0  0
    0.2660    5.3820    1.7110 H   0  0  0  0  0  0  0  0  0  0  0  0
    3.0350    4.5480   -0.0750 H   0  0  0  0  0  0  0  0  0  0  0  0
    1.4940    2.3260   -1.5880 H   0  0  0  0  0  0  0  0  0  0  0  0
    2.6690    3.4420   -2.2410 H   0  0  0  0  0  0  0  0  0  0  0  0
    3.5760    1.0760   -1.7960 H   0  0  0  0  0  0  0  0  0  0  0  0
    4.5370    2.3710   -1.1110 H   0  0  0  0  0  0  0  0  0  0  0  0
    4.6290    2.7060    1.3390 H   0  0  0  0  0  0  0  0  0  0  0  0
    3.9340    1.4350    2.4130 H   0  0  0  0  0  0  0  0  0  0  0  0
    6.4940   -2.1900    0.8190 H   0  0  0  0  0  0  0  0  0  0  0  0
    5.8770   -3.8160    0.4690 H   0  0  0  0  0  0  0  0  0  0  0  0
    7.0100   -3.0370   -0.6550 H   0  0  0  0  0  0  0  0  0  0  0  0
    0.3900   -3.0010   -0.3020 H   0  0  0  0  0  0  0  0  0  0  0  0
   -1.4910    0.0370    0.9760 H   0  0  0  0  0  0  0  0  0  0  0  0
   -1.3950    0.4910   -1.5050 H   0  0  0  0  0  0  0  0  0  0  0  0
   -1.5090   -1.2300   -1.8880 H   0  0  0  0  0  0  0  0  0  0  0  0
   -3.7670   -1.4040   -0.7810 H   0  0  0  0  0  0  0  0  0  0  0  0
   -4.4740    2.5600    1.2410 H   0  0  0  0  0  0  0  0  0  0  0  0
   -6.1170    1.9440    1.5590 H   0  0  0  0  0  0  0  0  0  0  0  0
   -4.7120    1.1980    2.3580 H   0  0  0  0  0  0  0  0  0  0  0  0
   -5.1070   -1.7880   -2.7210 H   0  0  0  0  0  0  0  0  0  0  0  0
   -5.1700   -0.6070   -4.0850 H   0  0  0  0  0  0  0  0  0  0  0  0
   -2.5350    1.1400   -3.6150 H   0  0  0  0  0  0  0  0  0  0  0  0
   -4.2080    1.6900   -3.7340 H   0  0  0  0  0  0  0  0  0  0  0  0
   -3.2800    2.0300   -2.2780 H   0  0  0  0  0  0  0  0  0  0  0  0
   -2.2420   -3.9880    2.6870 H   0  0  0  0  0  0  0  0  0  0  0  0
   -3.9530   -3.7140    2.2800 H   0  0  0  0  0  0  0  0  0  0  0  0
   -2.8170   -4.2560    1.0270 H   0  0  0  0  0  0  0  0  0  0  0  0
  2  1  1  6
  2 22  1  0
  2 12  1  0
  2  3  1  0
  3  4  1  0
  3 37  1  0
  3 38  1  0
  4 39  1  0
  4  5  1  0
  4 40  1  0
  5  7  2  0
  5  6  1  0
  6 43  1  0
  6 42  1  0
  6 41  1  0
  7  8  1  0
  7 44  1  0
  8 46  1  0
  8 45  1  0
  8  9  1  0
  9 47  1  0
  9 48  1  0
  9 10  1  0
 10 12  1  0
 10 11  2  0
 11 49  1  0
 11 50  1  0
 12 14  1  0
 12 13  1  1
 14 15  1  6
 14 20  1  0
 14 16  1  0
 16 17  1  0
 17 19  2  0
 17 18  1  0
 18 53  1  0
 18 52  1  0
 18 51  1  0
 20 21  1  0
 21 54  1  0
 21 22  2  0
 22 23  1  0
 23 24  1  0
 23 33  1  0
 23 55  1  1
 24 57  1  0
 24 56  1  0
 24 25  1  0
 25 30  1  0
 25 58  1  1
 25 26  1  0
 26 27  1  0
 27 29  2  0
 27 28  1  0
 28 59  1  0
 28 60  1  0
 28 61  1  0
 30 31  2  0
 30 32  1  0
 31 63  1  0
 31 62  1  0
 32 65  1  0
 32 64  1  0
 32 66  1  0
 33 34  1  0
 34 35  1  0
 34 36  2  0
 35 69  1  0
 35 68  1  0
 35 67  1  0
M  END
>  <id>  (56) 
156

>  <scaffolds>  (56) 
['C=C1CCC=CCCC2C=COCC12']

>  <name>  (56) 
zahavin A

>  <formula>  (56) 
C26H36O7

>  <SMILES>  (56) 
[H][C@]12CCC(C)=CCCC(=C)[C@]1([H])[C@@H](OC(C)=O)OC=C2C(CC(OC(C)=O)C(=C)C)OC(C)=O

>  <ChEMBL_id>  (56) 


>  <ZINC_id>  (56) 


>  <PubChem_id>  (56) 


>  <DrugBank_id>  (56) 


>  <CAS_no>  (56) 
172335-15-8

>  <references>  (56) 
[{'journal': {'name': 'Thesis, Rhodes University', 'id': 2}, 'title': 'Biologically Active Natural Products From South African Marine Invertebrates', 'year': 1996, 'start_page': None, 'volume': None, 'issue': None, 'doi': None, 'isbn': None, 'despositor': {'code': 'rah', 'first_name': 'Rowan', 'last_name': 'Hatherley', 'id': 20}, 'refauthors_set': [{'author': {'first_name': 'Gregory', 'initials': 'GJ', 'last_name': 'Hooper', 'id': 448}, 'first_author': True, 'id': 606}], 'id': 227}, {'journal': {'name': 'Journal of Natural Products', 'id': 5}, 'title': 'New Diterpenes from the South African Soft Coral Eleutherobia aurea', 'year': 1997, 'start_page': 889, 'volume': 60, 'issue': 9, 'doi': '10.1021/np970180z', 'isbn': '', 'despositor': {'code': 'rah', 'first_name': 'Rowan', 'last_name': 'Hatherley', 'id': 20}, 'refauthors_set': [{'author': {'first_name': 'Gregory', 'initials': 'GJ', 'last_name': 'Hooper', 'id': 448}, 'first_author': True, 'id': 613}, {'author': {'first_name': 'Michael', 'initials': 'MT', 'last_name': 'Davies-Coleman', 'id': 449}, 'first_author': False, 'id': 614}, {'author': {'first_name': 'Michael', 'initials': 'M', 'last_name': 'Schleyer', 'id': 452}, 'first_author': None, 'id': 615}], 'id': 230}]

>  <classifications>  (56) 
[{'classification': 'Diterpene', 'id': 771}, {'classification': 'Terpenoid', 'id': 839}, {'classification': 'Xenicane', 'id': 848}, {'classification': 'Zahavin', 'id': 852}, {'classification': 'Carboxylic acids and derivatives (Classyfire)', 'id': 950}]

>  <molecular_mass>  (56) 
460.56

$$$$
SANC00157_minRM1.pdb
     RDKit          3D

 70 72  0  0  1  0  0  0  0  0999 V2000
   -0.8300   -2.8830   -0.7470 H   0  0  0  0  0  0  0  0  0  0  0  0
   -1.4890   -3.4270   -0.0330 C   0  0  1  0  0  0  0  0  0  0  0  0
   -2.8830   -3.6640   -0.5540 C   0  0  0  0  0  0  0  0  0  0  0  0
   -3.6930   -2.3800   -0.3330 C   0  0  0  0  0  0  0  0  0  0  0  0
   -2.9240   -1.1860   -0.8100 C   0  0  0  0  0  0  0  0  0  0  0  0
   -2.6490   -1.0470   -2.1050 C   0  0  0  0  0  0  0  0  0  0  0  0
   -2.4600   -0.1840    0.2100 C   0  0  2  0  0  0  0  0  0  0  0  0
   -3.0120   -0.3340    1.1780 H   0  0  0  0  0  0  0  0  0  0  0  0
   -2.7950    1.2300   -0.3140 C   0  0  1  0  0  0  0  0  0  0  0  0
   -2.5650    1.3560   -1.4110 H   0  0  0  0  0  0  0  0  0  0  0  0
   -4.1490    1.4430    0.0010 O   0  0  0  0  0  0  0  0  0  0  0  0
   -4.7830    2.5240   -0.5380 C   0  0  0  0  0  0  0  0  0  0  0  0
   -6.1500    2.6980    0.0350 C   0  0  0  0  0  0  0  0  0  0  0  0
   -4.2410    3.2020   -1.3860 O   0  0  0  0  0  0  0  0  0  0  0  0
   -2.1520    2.2460    0.4320 O   0  0  0  0  0  0  0  0  0  0  0  0
   -0.7960    2.1270    0.4150 C   0  0  0  0  0  0  0  0  0  0  0  0
   -0.1880    0.9350    0.4040 C   0  0  0  0  0  0  0  0  0  0  0  0
    1.3070    0.8070    0.3160 C   0  0  1  0  0  0  0  0  0  0  0  0
    1.7350    0.8470   -1.1630 C   0  0  0  0  0  0  0  0  0  0  0  0
    3.2590    0.7270   -1.3230 C   0  0  1  0  0  0  0  0  0  0  0  0
    3.6050   -0.4910   -0.6870 O   0  0  0  0  0  0  0  0  0  0  0  0
    4.9100   -0.7010   -0.3720 C   0  0  0  0  0  0  0  0  0  0  0  0
    5.0780   -1.9270    0.4650 C   0  0  0  0  0  0  0  0  0  0  0  0
    5.7720    0.0680   -0.7500 O   0  0  0  0  0  0  0  0  0  0  0  0
    3.6450    0.6560   -2.7760 C   0  0  0  0  0  0  0  0  0  0  0  0
    4.4380    1.5730   -3.3250 C   0  0  0  0  0  0  0  0  0  0  0  0
    3.0870   -0.4720   -3.5720 C   0  0  0  0  0  0  0  0  0  0  0  0
    1.8620    1.9530    0.9410 O   0  0  0  0  0  0  0  0  0  0  0  0
    2.8460    1.8190    1.8690 C   0  0  0  0  0  0  0  0  0  0  0  0
    3.2540    3.1460    2.4270 C   0  0  0  0  0  0  0  0  0  0  0  0
    3.3000    0.7310    2.1710 O   0  0  0  0  0  0  0  0  0  0  0  0
   -0.9440   -0.3530    0.4900 C   0  0  1  0  0  0  0  0  0  0  0  0
   -0.5170   -1.0530   -0.2780 H   0  0  0  0  0  0  0  0  0  0  0  0
   -0.7240   -0.9260    1.9140 C   0  0  0  0  0  0  0  0  0  0  0  0
   -0.1790   -2.3560    1.9120 C   0  0  0  0  0  0  0  0  0  0  0  0
   -1.2620   -3.3010    1.4520 C   0  0  1  0  0  0  0  0  0  0  0  0
   -2.3760   -3.5480    2.4370 C   0  0  0  0  0  0  0  0  0  0  0  0
   -0.8520   -4.4500    0.7200 O   0  0  0  0  0  0  0  0  0  0  0  0
   -2.8480   -3.9400   -1.6300 H   0  0  0  0  0  0  0  0  0  0  0  0
   -3.3700   -4.5320   -0.0640 H   0  0  0  0  0  0  0  0  0  0  0  0
   -4.6690   -2.4390   -0.8590 H   0  0  0  0  0  0  0  0  0  0  0  0
   -3.9690   -2.2940    0.7440 H   0  0  0  0  0  0  0  0  0  0  0  0
   -2.9780   -1.7470   -2.8650 H   0  0  0  0  0  0  0  0  0  0  0  0
   -2.0790   -0.2190   -2.5220 H   0  0  0  0  0  0  0  0  0  0  0  0
   -6.6040    1.7520    0.3770 H   0  0  0  0  0  0  0  0  0  0  0  0
   -6.1120    3.3780    0.9040 H   0  0  0  0  0  0  0  0  0  0  0  0
   -6.8310    3.1500   -0.7080 H   0  0  0  0  0  0  0  0  0  0  0  0
   -0.3280    3.1160    0.4480 H   0  0  0  0  0  0  0  0  0  0  0  0
    1.6350   -0.1600    0.7860 H   0  0  0  0  0  0  0  0  0  0  0  0
    1.2110    0.0330   -1.7040 H   0  0  0  0  0  0  0  0  0  0  0  0
    1.3970    1.7850   -1.6490 H   0  0  0  0  0  0  0  0  0  0  0  0
    3.7590    1.5970   -0.8120 H   0  0  0  0  0  0  0  0  0  0  0  0
    4.4790   -2.7740    0.1050 H   0  0  0  0  0  0  0  0  0  0  0  0
    6.1280   -2.2440    0.5000 H   0  0  0  0  0  0  0  0  0  0  0  0
    4.7470   -1.7220    1.5010 H   0  0  0  0  0  0  0  0  0  0  0  0
    4.8720    2.4090   -2.7830 H   0  0  0  0  0  0  0  0  0  0  0  0
    4.7360    1.5550   -4.3700 H   0  0  0  0  0  0  0  0  0  0  0  0
    2.8980   -1.3750   -2.9690 H   0  0  0  0  0  0  0  0  0  0  0  0
    2.1260   -0.1900   -4.0380 H   0  0  0  0  0  0  0  0  0  0  0  0
    3.7570   -0.7860   -4.3870 H   0  0  0  0  0  0  0  0  0  0  0  0
    2.6230    3.4040    3.2970 H   0  0  0  0  0  0  0  0  0  0  0  0
    4.3030    3.1280    2.7610 H   0  0  0  0  0  0  0  0  0  0  0  0
    3.1570    3.9680    1.6980 H   0  0  0  0  0  0  0  0  0  0  0  0
   -0.0360   -0.2790    2.5010 H   0  0  0  0  0  0  0  0  0  0  0  0
   -1.6690   -0.8750    2.5020 H   0  0  0  0  0  0  0  0  0  0  0  0
    0.7330   -2.4420    1.2810 H   0  0  0  0  0  0  0  0  0  0  0  0
    0.1790   -2.6410    2.9250 H   0  0  0  0  0  0  0  0  0  0  0  0
   -3.2360   -2.8850    2.2350 H   0  0  0  0  0  0  0  0  0  0  0  0
   -2.7520   -4.5820    2.4020 H   0  0  0  0  0  0  0  0  0  0  0  0
   -2.0690   -3.3680    3.4780 H   0  0  0  0  0  0  0  0  0  0  0  0
  2  1  1  6
  2  3  1  0
  2 38  1  0
  2 36  1  0
  3 39  1  0
  3  4  1  0
  3 40  1  0
  4 41  1  0
  4  5  1  0
  4 42  1  0
  5  6  2  0
  5  7  1  0
  6 43  1  0
  6 44  1  0
  7  9  1  0
  7 32  1  0
  7  8  1  1
  9 10  1  6
  9 11  1  0
  9 15  1  0
 11 12  1  0
 12 14  2  0
 12 13  1  0
 13 47  1  0
 13 45  1  0
 13 46  1  0
 15 16  1  0
 16 17  2  0
 16 48  1  0
 17 18  1  0
 17 32  1  0
 18 19  1  0
 18 49  1  1
 18 28  1  0
 19 50  1  0
 19 51  1  0
 19 20  1  0
 20 25  1  0
 20 52  1  1
 20 21  1  0
 21 22  1  0
 22 24  2  0
 22 23  1  0
 23 53  1  0
 23 54  1  0
 23 55  1  0
 25 27  1  0
 25 26  2  0
 26 57  1  0
 26 56  1  0
 27 60  1  0
 27 59  1  0
 27 58  1  0
 28 29  1  0
 29 31  2  0
 29 30  1  0
 30 63  1  0
 30 62  1  0
 30 61  1  0
 32 33  1  6
 32 34  1  0
 34 35  1  0
 34 64  1  0
 34 65  1  0
 35 66  1  0
 35 36  1  0
 35 67  1  0
 36 38  1  0
 36 37  1  1
 37 68  1  0
 37 69  1  0
 37 70  1  0
M  END
>  <id>  (57) 
157

>  <scaffolds>  (57) 
['C=C1CCC2OC2CCC2C=COCC12']

>  <name>  (57) 
7,8-epoxyzahavin A

>  <formula>  (57) 
C26H36O8

>  <SMILES>  (57) 
[H][C@]23CCC(=C)[C@]1([H])[C@@H](OC(C)=O)OC=C(C(CC(OC(C)=O)C(=C)C)OC(C)=O)[C@@]1([H])CC[C@]2(C)O3

>  <ChEMBL_id>  (57) 


>  <ZINC_id>  (57) 


>  <PubChem_id>  (57) 


>  <DrugBank_id>  (57) 


>  <CAS_no>  (57) 
195259-81-5

>  <references>  (57) 
[{'journal': {'name': 'Thesis, Rhodes University', 'id': 2}, 'title': 'Biologically Active Natural Products From South African Marine Invertebrates', 'year': 1996, 'start_page': None, 'volume': None, 'issue': None, 'doi': None, 'isbn': None, 'despositor': {'code': 'rah', 'first_name': 'Rowan', 'last_name': 'Hatherley', 'id': 20}, 'refauthors_set': [{'author': {'first_name': 'Gregory', 'initials': 'GJ', 'last_name': 'Hooper', 'id': 448}, 'first_author': True, 'id': 606}], 'id': 227}, {'journal': {'name': 'Journal of Natural Products', 'id': 5}, 'title': 'New Diterpenes from the South African Soft Coral Eleutherobia aurea', 'year': 1997, 'start_page': 889, 'volume': 60, 'issue': 9, 'doi': '10.1021/np970180z', 'isbn': '', 'despositor': {'code': 'rah', 'first_name': 'Rowan', 'last_name': 'Hatherley', 'id': 20}, 'refauthors_set': [{'author': {'first_name': 'Gregory', 'initials': 'GJ', 'last_name': 'Hooper', 'id': 448}, 'first_author': True, 'id': 613}, {'author': {'first_name': 'Michael', 'initials': 'MT', 'last_name': 'Davies-Coleman', 'id': 449}, 'first_author': False, 'id': 614}, {'author': {'first_name': 'Michael', 'initials': 'M', 'last_name': 'Schleyer', 'id': 452}, 'first_author': None, 'id': 615}], 'id': 230}]

>  <classifications>  (57) 
[{'classification': 'Diterpene', 'id': 771}, {'classification': 'Terpenoid', 'id': 839}, {'classification': 'Xenicane', 'id': 848}, {'classification': 'Zahavin', 'id': 852}, {'classification': 'Carboxylic acids and derivatives (Classyfire)', 'id': 950}]

>  <molecular_mass>  (57) 
476.56

$$$$
SANC00158_minRM1.pdb
     RDKit          3D

 56 57  0  0  1  0  0  0  0  0999 V2000
   -1.3840   -0.1330    0.8030 H   0  0  0  0  0  0  0  0  0  0  0  0
   -1.3880   -0.5480   -0.2430 C   0  0  1  0  0  0  0  0  0  0  0  0
   -1.3460    0.5940   -1.2750 C   0  0  0  0  0  0  0  0  0  0  0  0
   -1.4780    1.9890   -0.6490 C   0  0  0  0  0  0  0  0  0  0  0  0
   -2.9050    2.4300   -0.5940 C   0  0  0  0  0  0  0  0  0  0  0  0
   -3.3420    3.2930   -1.7260 C   0  0  0  0  0  0  0  0  0  0  0  0
   -3.7430    2.0960    0.3880 C   0  0  0  0  0  0  0  0  0  0  0  0
   -3.3770    1.2210    1.5360 C   0  0  0  0  0  0  0  0  0  0  0  0
   -4.0340   -0.1550    1.3760 C   0  0  0  0  0  0  0  0  0  0  0  0
   -3.8990   -0.6440   -0.0310 C   0  0  0  0  0  0  0  0  0  0  0  0
   -4.8600   -0.3990   -0.9210 C   0  0  0  0  0  0  0  0  0  0  0  0
   -2.6650   -1.3880   -0.4290 C   0  0  2  0  0  0  0  0  0  0  0  0
   -2.7470   -1.6880   -1.5110 H   0  0  0  0  0  0  0  0  0  0  0  0
   -2.5040   -2.6760    0.3880 C   0  0  0  0  0  0  0  0  0  0  0  0
   -1.5370   -3.4980   -0.2260 O   0  0  0  0  0  0  0  0  0  0  0  0
   -0.4130   -2.8640   -0.6730 C   0  0  0  0  0  0  0  0  0  0  0  0
    0.3430   -3.5760   -1.3120 O   0  0  0  0  0  0  0  0  0  0  0  0
   -0.1890   -1.4400   -0.3540 C   0  0  0  0  0  0  0  0  0  0  0  0
    1.0780   -1.0510   -0.1580 C   0  0  0  0  0  0  0  0  0  0  0  0
    1.4790    0.3410    0.1720 C   0  0  0  0  0  0  0  0  0  0  0  0
    2.9190    0.4140    0.7130 C   0  0  1  0  0  0  0  0  0  0  0  0
    3.7370    0.0530   -0.3870 O   0  0  0  0  0  0  0  0  0  0  0  0
    5.0680   -0.1050   -0.1680 C   0  0  0  0  0  0  0  0  0  0  0  0
    5.7890   -0.5070   -1.4130 C   0  0  0  0  0  0  0  0  0  0  0  0
    5.5420    0.0610    0.9400 O   0  0  0  0  0  0  0  0  0  0  0  0
    3.2500    1.8150    1.1520 C   0  0  0  0  0  0  0  0  0  0  0  0
    3.7030    2.0650    2.3770 C   0  0  0  0  0  0  0  0  0  0  0  0
    3.0320    2.8940    0.1520 C   0  0  0  0  0  0  0  0  0  0  0  0
   -0.4110    0.5400   -1.8730 H   0  0  0  0  0  0  0  0  0  0  0  0
   -2.1370    0.4670   -2.0460 H   0  0  0  0  0  0  0  0  0  0  0  0
   -1.0220    2.0380    0.3660 H   0  0  0  0  0  0  0  0  0  0  0  0
   -0.8720    2.7210   -1.2290 H   0  0  0  0  0  0  0  0  0  0  0  0
   -3.0700    2.8530   -2.6980 H   0  0  0  0  0  0  0  0  0  0  0  0
   -4.4260    3.4700   -1.7540 H   0  0  0  0  0  0  0  0  0  0  0  0
   -2.8650    4.2860   -1.6760 H   0  0  0  0  0  0  0  0  0  0  0  0
   -4.7820    2.4430    0.3920 H   0  0  0  0  0  0  0  0  0  0  0  0
   -2.2740    1.1050    1.6440 H   0  0  0  0  0  0  0  0  0  0  0  0
   -3.6920    1.6920    2.4920 H   0  0  0  0  0  0  0  0  0  0  0  0
   -3.6060   -0.8730    2.1070 H   0  0  0  0  0  0  0  0  0  0  0  0
   -5.1060   -0.0990    1.6650 H   0  0  0  0  0  0  0  0  0  0  0  0
   -5.7730    0.1400   -0.6870 H   0  0  0  0  0  0  0  0  0  0  0  0
   -4.8260   -0.7080   -1.9620 H   0  0  0  0  0  0  0  0  0  0  0  0
   -2.2280   -2.4880    1.4480 H   0  0  0  0  0  0  0  0  0  0  0  0
   -3.4210   -3.3000    0.3950 H   0  0  0  0  0  0  0  0  0  0  0  0
    1.8950   -1.7800   -0.2550 H   0  0  0  0  0  0  0  0  0  0  0  0
    1.3730    0.9710   -0.7400 H   0  0  0  0  0  0  0  0  0  0  0  0
    0.8000    0.7940    0.9260 H   0  0  0  0  0  0  0  0  0  0  0  0
    3.0510   -0.3220    1.5540 H   0  0  0  0  0  0  0  0  0  0  0  0
    5.4040   -0.0050   -2.3130 H   0  0  0  0  0  0  0  0  0  0  0  0
    6.8630   -0.2830   -1.3330 H   0  0  0  0  0  0  0  0  0  0  0  0
    5.6890   -1.5920   -1.5780 H   0  0  0  0  0  0  0  0  0  0  0  0
    3.8830    1.3020    3.1270 H   0  0  0  0  0  0  0  0  0  0  0  0
    3.9520    3.0620    2.7310 H   0  0  0  0  0  0  0  0  0  0  0  0
    1.9770    3.2100    0.1310 H   0  0  0  0  0  0  0  0  0  0  0  0
    3.6270    3.7950    0.3630 H   0  0  0  0  0  0  0  0  0  0  0  0
    3.3000    2.5830   -0.8700 H   0  0  0  0  0  0  0  0  0  0  0  0
  2  1  1  1
  2  3  1  0
  2 12  1  0
  2 18  1  0
  3 30  1  0
  3 29  1  0
  3  4  1  0
  4 32  1  0
  4  5  1  0
  4 31  1  0
  5  6  1  0
  5  7  2  0
  6 33  1  0
  6 34  1  0
  6 35  1  0
  7 36  1  0
  7  8  1  0
  8  9  1  0
  8 37  1  0
  8 38  1  0
  9 10  1  0
  9 40  1  0
  9 39  1  0
 10 11  2  0
 10 12  1  0
 11 42  1  0
 11 41  1  0
 12 13  1  6
 12 14  1  0
 14 15  1  0
 14 44  1  0
 14 43  1  0
 15 16  1  0
 16 17  2  0
 16 18  1  0
 18 19  2  0
 19 45  1  0
 19 20  1  0
 20 46  1  0
 20 21  1  0
 20 47  1  0
 21 22  1  0
 21 26  1  0
 21 48  1  1
 22 23  1  0
 23 24  1  0
 23 25  2  0
 24 49  1  0
 24 51  1  0
 24 50  1  0
 26 28  1  0
 26 27  2  0
 27 53  1  0
 27 52  1  0
 28 56  1  0
 28 54  1  0
 28 55  1  0
M  END
>  <id>  (58) 
158

>  <scaffolds>  (58) 
['C1CCOCC1', 'C=C1CCC=CCCC2CC(=O)OCC12']

>  <name>  (58) 
Xeniolide C

>  <formula>  (58) 
C22H30O4

>  <SMILES>  (58) 
[H][C@]1/2CCC(C)=CCCC(=C)[C@]1([H])COC(=O)C2=C\CC(OC(C)=O)C(=C)C

>  <ChEMBL_id>  (58) 


>  <ZINC_id>  (58) 


>  <PubChem_id>  (58) 


>  <DrugBank_id>  (58) 


>  <CAS_no>  (58) 
195259-82-6

>  <references>  (58) 
[{'journal': {'name': 'Thesis, Rhodes University', 'id': 2}, 'title': 'Biologically Active Natural Products From South African Marine Invertebrates', 'year': 1996, 'start_page': None, 'volume': None, 'issue': None, 'doi': None, 'isbn': None, 'despositor': {'code': 'rah', 'first_name': 'Rowan', 'last_name': 'Hatherley', 'id': 20}, 'refauthors_set': [{'author': {'first_name': 'Gregory', 'initials': 'GJ', 'last_name': 'Hooper', 'id': 448}, 'first_author': True, 'id': 606}], 'id': 227}, {'journal': {'name': 'Journal of Natural Products', 'id': 5}, 'title': 'New Diterpenes from the South African Soft Coral Eleutherobia aurea', 'year': 1997, 'start_page': 889, 'volume': 60, 'issue': 9, 'doi': '10.1021/np970180z', 'isbn': '', 'despositor': {'code': 'rah', 'first_name': 'Rowan', 'last_name': 'Hatherley', 'id': 20}, 'refauthors_set': [{'author': {'first_name': 'Gregory', 'initials': 'GJ', 'last_name': 'Hooper', 'id': 448}, 'first_author': True, 'id': 613}, {'author': {'first_name': 'Michael', 'initials': 'MT', 'last_name': 'Davies-Coleman', 'id': 449}, 'first_author': False, 'id': 614}, {'author': {'first_name': 'Michael', 'initials': 'M', 'last_name': 'Schleyer', 'id': 452}, 'first_author': None, 'id': 615}], 'id': 230}]

>  <classifications>  (58) 
[{'classification': 'Diterpene', 'id': 771}, {'classification': 'Terpenoid', 'id': 839}, {'classification': 'Xenicane', 'id': 848}, {'classification': 'Xeniolide', 'id': 850}, {'classification': 'Lactones (Classyfire)', 'id': 952}]

>  <molecular_mass>  (58) 
358.47

$$$$
SANC00159_minRM1.pdb
     RDKit          3D

 62 62  0  0  1  0  0  0  0  0999 V2000
    5.2630   -4.6680    0.0900 C   0  0  0  0  0  0  0  0  0  0  0  0
    5.7250   -3.4210   -0.3710 O   0  0  0  0  0  0  0  0  0  0  0  0
    5.0540   -2.3120    0.0190 C   0  0  0  0  0  0  0  0  0  0  0  0
    4.0950   -2.4090    0.7670 O   0  0  0  0  0  0  0  0  0  0  0  0
    5.6660   -1.0680   -0.5700 C   0  0  0  0  0  0  0  0  0  0  0  0
    4.6540    0.0250   -0.5950 C   0  0  0  0  0  0  0  0  0  0  0  0
    4.1210    0.4710   -1.7940 C   0  0  0  0  0  0  0  0  0  0  0  0
    3.1860    1.5090   -1.7810 C   0  0  0  0  0  0  0  0  0  0  0  0
    2.7590    1.9090   -3.0050 O   0  0  0  0  0  0  0  0  0  0  0  0
    2.7920    2.1330   -0.5940 C   0  0  0  0  0  0  0  0  0  0  0  0
    1.8340    3.2810   -0.5760 C   0  0  0  0  0  0  0  0  0  0  0  0
    0.4520    2.7570   -0.3800 C   0  0  0  0  0  0  0  0  0  0  0  0
   -0.3340    3.0400    0.6600 C   0  0  0  0  0  0  0  0  0  0  0  0
    0.0870    3.9020    1.7940 C   0  0  0  0  0  0  0  0  0  0  0  0
   -1.7080    2.4510    0.7520 C   0  0  0  0  0  0  0  0  0  0  0  0
   -1.6480    1.1720    1.5910 C   0  0  0  0  0  0  0  0  0  0  0  0
   -3.0060    0.5770    1.7280 C   0  0  0  0  0  0  0  0  0  0  0  0
   -3.3220   -0.6710    1.3790 C   0  0  0  0  0  0  0  0  0  0  0  0
   -2.3550   -1.6200    0.7740 C   0  0  0  0  0  0  0  0  0  0  0  0
   -4.7160   -1.1940    1.6200 C   0  0  2  0  0  0  0  0  0  0  0  0
   -5.3310   -0.5010    2.2530 H   0  0  0  0  0  0  0  0  0  0  0  0
   -4.7120   -2.3530    2.3860 O   0  0  0  0  0  0  0  0  0  0  0  0
   -5.3800   -1.4180    0.2590 C   0  0  0  0  0  0  0  0  0  0  0  0
   -5.3610   -2.5290   -0.2410 O   0  0  0  0  0  0  0  0  0  0  0  0
   -6.0170   -0.2530   -0.3490 C   0  0  0  0  0  0  0  0  0  0  0  0
   -6.4470   -0.2040   -1.6160 C   0  0  0  0  0  0  0  0  0  0  0  0
   -7.1320    1.0060   -2.1420 C   0  0  0  0  0  0  0  0  0  0  0  0
   -6.2880   -1.3220   -2.5830 C   0  0  0  0  0  0  0  0  0  0  0  0
    3.3130    1.6670    0.6030 C   0  0  0  0  0  0  0  0  0  0  0  0
    4.2310    0.6180    0.5960 C   0  0  0  0  0  0  0  0  0  0  0  0
    4.8130    0.2420    1.7690 O   0  0  0  0  0  0  0  0  0  0  0  0
    5.9790   -5.3940   -0.3440 H   0  0  0  0  0  0  0  0  0  0  0  0
    5.2590   -4.7420    1.1870 H   0  0  0  0  0  0  0  0  0  0  0  0
    4.2420   -4.9000   -0.2680 H   0  0  0  0  0  0  0  0  0  0  0  0
    6.5430   -0.7750    0.0560 H   0  0  0  0  0  0  0  0  0  0  0  0
    6.0960   -1.2650   -1.5770 H   0  0  0  0  0  0  0  0  0  0  0  0
    4.4300    0.0310   -2.7490 H   0  0  0  0  0  0  0  0  0  0  0  0
    1.8240    2.1160   -2.9330 H   0  0  0  0  0  0  0  0  0  0  0  0
    2.1400    4.0200    0.1960 H   0  0  0  0  0  0  0  0  0  0  0  0
    1.8820    3.8800   -1.5130 H   0  0  0  0  0  0  0  0  0  0  0  0
    0.1050    2.0800   -1.1670 H   0  0  0  0  0  0  0  0  0  0  0  0
    0.2180    4.9460    1.4780 H   0  0  0  0  0  0  0  0  0  0  0  0
   -0.6360    3.9210    2.6180 H   0  0  0  0  0  0  0  0  0  0  0  0
    1.0370    3.5860    2.2350 H   0  0  0  0  0  0  0  0  0  0  0  0
   -2.4230    3.1820    1.1840 H   0  0  0  0  0  0  0  0  0  0  0  0
   -2.1270    2.2310   -0.2530 H   0  0  0  0  0  0  0  0  0  0  0  0
   -0.9090    0.4690    1.1520 H   0  0  0  0  0  0  0  0  0  0  0  0
   -1.2470    1.3870    2.6060 H   0  0  0  0  0  0  0  0  0  0  0  0
   -3.7540    1.2470    2.1690 H   0  0  0  0  0  0  0  0  0  0  0  0
   -1.7760   -2.1390    1.5550 H   0  0  0  0  0  0  0  0  0  0  0  0
   -2.8240   -2.3980    0.1550 H   0  0  0  0  0  0  0  0  0  0  0  0
   -1.6240   -1.1250    0.1160 H   0  0  0  0  0  0  0  0  0  0  0  0
   -4.2660   -3.0620    1.9070 H   0  0  0  0  0  0  0  0  0  0  0  0
   -6.1510    0.6070    0.3110 H   0  0  0  0  0  0  0  0  0  0  0  0
   -6.5280    1.5020   -2.9120 H   0  0  0  0  0  0  0  0  0  0  0  0
   -8.1100    0.7540   -2.5980 H   0  0  0  0  0  0  0  0  0  0  0  0
   -7.3440    1.7700   -1.3760 H   0  0  0  0  0  0  0  0  0  0  0  0
   -6.8920   -2.1950   -2.2900 H   0  0  0  0  0  0  0  0  0  0  0  0
   -6.5900   -1.0580   -3.6080 H   0  0  0  0  0  0  0  0  0  0  0  0
   -5.2430   -1.6690   -2.6430 H   0  0  0  0  0  0  0  0  0  0  0  0
    3.0160    2.1220    1.5520 H   0  0  0  0  0  0  0  0  0  0  0  0
    4.2150   -0.4010    2.1680 H   0  0  0  0  0  0  0  0  0  0  0  0
  1  2  1  0
  1 32  1  0
  1 34  1  0
  1 33  1  0
  2  3  1  0
  3  5  1  0
  3  4  2  0
  5 36  1  0
  5  6  1  0
  5 35  1  0
  6  7  2  0
  6 30  1  0
  7 37  1  0
  7  8  1  0
  8  9  1  0
  8 10  2  0
  9 38  1  0
 10 11  1  0
 10 29  1  0
 11 40  1  0
 11 12  1  0
 11 39  1  0
 12 41  1  0
 12 13  2  0
 13 15  1  0
 13 14  1  0
 14 42  1  0
 14 44  1  0
 14 43  1  0
 15 46  1  0
 15 45  1  0
 15 16  1  0
 16 47  1  0
 16 17  1  0
 16 48  1  0
 17 18  2  0
 17 49  1  0
 18 19  1  0
 18 20  1  0
 19 52  1  0
 19 51  1  0
 19 50  1  0
 20 23  1  0
 20 21  1  1
 20 22  1  0
 22 53  1  0
 23 25  1  0
 23 24  2  0
 25 26  2  0
 25 54  1  0
 26 28  1  0
 26 27  1  0
 27 55  1  0
 27 56  1  0
 27 57  1  0
 28 59  1  0
 28 60  1  0
 28 58  1  0
 29 30  2  0
 29 61  1  0
 30 31  1  0
 31 62  1  0
M  END
>  <id>  (59) 
159

>  <scaffolds>  (59) 
['c1ccccc1']

>  <name>  (59) 
Rietone

>  <formula>  (59) 
C24H32O6

>  <SMILES>  (59) 
COC(=O)Cc1cc(O)c(C/C=C(C)/CC/C=C(C)/[C@H](O)C(=O)/C=C(C)\C)cc1O

>  <ChEMBL_id>  (59) 


>  <ZINC_id>  (59) 


>  <PubChem_id>  (59) 


>  <DrugBank_id>  (59) 


>  <CAS_no>  (59) 
163597-23-7

>  <references>  (59) 
[{'journal': {'name': 'Thesis, Rhodes University', 'id': 2}, 'title': 'Biologically Active Natural Products From South African Marine Invertebrates', 'year': 1996, 'start_page': None, 'volume': None, 'issue': None, 'doi': None, 'isbn': None, 'despositor': {'code': 'rah', 'first_name': 'Rowan', 'last_name': 'Hatherley', 'id': 20}, 'refauthors_set': [{'author': {'first_name': 'Gregory', 'initials': 'GJ', 'last_name': 'Hooper', 'id': 448}, 'first_author': True, 'id': 606}], 'id': 227}, {'journal': {'name': 'Tetrahedron Letters', 'id': 3}, 'title': 'Sesquiterpene Hydroquinones from the South African Soft Coral Alcyonium fauri', 'year': 1995, 'start_page': 3265, 'volume': 36, 'issue': 18, 'doi': '10.1016/0040-4039(95)00461-K', 'isbn': '', 'despositor': {'code': 'rah', 'first_name': 'Rowan', 'last_name': 'Hatherley', 'id': 20}, 'refauthors_set': [{'author': {'first_name': 'Gregory', 'initials': 'GJ', 'last_name': 'Hooper', 'id': 448}, 'first_author': True, 'id': 616}, {'author': {'first_name': 'Michael', 'initials': 'MT', 'last_name': 'Davies-Coleman', 'id': 449}, 'first_author': None, 'id': 617}], 'id': 231}]

>  <classifications>  (59) 
[{'classification': 'Hydroquinone', 'id': 784}, {'classification': 'Sesquiterpene', 'id': 828}, {'classification': 'Terpenoid', 'id': 839}, {'classification': 'Phenol lipids (Classyfire)', 'id': 951}]

>  <molecular_mass>  (59) 
416.51

$$$$
SANC00160_minRM1.pdb
     RDKit          3D

 67 67  0  0  1  0  0  0  0  0999 V2000
   -5.4170   -4.8280    1.1310 C   0  0  0  0  0  0  0  0  0  0  0  0
   -6.0230   -3.5610    1.1720 O   0  0  0  0  0  0  0  0  0  0  0  0
   -5.4110   -2.5400    0.5190 C   0  0  0  0  0  0  0  0  0  0  0  0
   -4.3740   -2.7380   -0.0930 O   0  0  0  0  0  0  0  0  0  0  0  0
   -6.1830   -1.2570    0.6550 C   0  0  0  0  0  0  0  0  0  0  0  0
   -5.2750   -0.0970    0.4370 C   0  0  0  0  0  0  0  0  0  0  0  0
   -4.8990    0.7190    1.4940 C   0  0  0  0  0  0  0  0  0  0  0  0
   -4.0740    1.8210    1.2480 C   0  0  0  0  0  0  0  0  0  0  0  0
   -3.8050    2.5950    2.3360 O   0  0  0  0  0  0  0  0  0  0  0  0
   -3.6350    2.1380   -0.0420 C   0  0  0  0  0  0  0  0  0  0  0  0
   -2.7940    3.3410   -0.3230 C   0  0  0  0  0  0  0  0  0  0  0  0
   -1.3550    2.9530   -0.2750 C   0  0  0  0  0  0  0  0  0  0  0  0
   -0.5120    3.0270   -1.3060 C   0  0  0  0  0  0  0  0  0  0  0  0
   -0.9160    3.4870   -2.6610 C   0  0  0  0  0  0  0  0  0  0  0  0
    0.9210    2.6210   -1.1490 C   0  0  0  0  0  0  0  0  0  0  0  0
    1.0850    1.1740   -1.6220 C   0  0  0  0  0  0  0  0  0  0  0  0
    2.5180    0.7710   -1.5590 C   0  0  0  0  0  0  0  0  0  0  0  0
    2.9850   -0.2460   -0.8330 C   0  0  0  0  0  0  0  0  0  0  0  0
    2.1340   -1.1000    0.0340 C   0  0  0  0  0  0  0  0  0  0  0  0
    4.4480   -0.6010   -0.8880 C   0  0  2  0  0  0  0  0  0  0  0  0
    5.0210    0.0310   -1.6190 H   0  0  0  0  0  0  0  0  0  0  0  0
    4.4790   -1.9550   -1.2930 O   0  0  0  0  0  0  0  0  0  0  0  0
    5.6980   -2.5420   -1.4300 C   0  0  0  0  0  0  0  0  0  0  0  0
    5.5750   -4.0010   -1.7190 C   0  0  0  0  0  0  0  0  0  0  0  0
    6.7160   -1.8850   -1.3260 O   0  0  0  0  0  0  0  0  0  0  0  0
    5.0450   -0.4660    0.5140 C   0  0  0  0  0  0  0  0  0  0  0  0
    5.2330   -1.4650    1.1860 O   0  0  0  0  0  0  0  0  0  0  0  0
    5.3740    0.8940    0.9350 C   0  0  0  0  0  0  0  0  0  0  0  0
    5.6230    1.2470    2.2040 C   0  0  0  0  0  0  0  0  0  0  0  0
    6.0250    2.6510    2.5010 C   0  0  0  0  0  0  0  0  0  0  0  0
    5.5200    0.3120    3.3500 C   0  0  0  0  0  0  0  0  0  0  0  0
   -3.9920    1.2990   -1.0920 C   0  0  0  0  0  0  0  0  0  0  0  0
   -4.7990    0.1890   -0.8450 C   0  0  0  0  0  0  0  0  0  0  0  0
   -5.2200   -0.5630   -1.9010 O   0  0  0  0  0  0  0  0  0  0  0  0
   -6.1020   -5.4780    1.7020 H   0  0  0  0  0  0  0  0  0  0  0  0
   -5.3180   -5.2110    0.1010 H   0  0  0  0  0  0  0  0  0  0  0  0
   -4.4260   -4.8340    1.6050 H   0  0  0  0  0  0  0  0  0  0  0  0
   -7.0070   -1.2620   -0.0950 H   0  0  0  0  0  0  0  0  0  0  0  0
   -6.7010   -1.2020    1.6370 H   0  0  0  0  0  0  0  0  0  0  0  0
   -5.2400    0.5170    2.5140 H   0  0  0  0  0  0  0  0  0  0  0  0
   -2.8940    2.9020    2.2680 H   0  0  0  0  0  0  0  0  0  0  0  0
   -3.0980    3.7960   -1.2890 H   0  0  0  0  0  0  0  0  0  0  0  0
   -2.9880    4.1660    0.3990 H   0  0  0  0  0  0  0  0  0  0  0  0
   -1.0130    2.5820    0.6970 H   0  0  0  0  0  0  0  0  0  0  0  0
   -1.1950    4.5510   -2.6600 H   0  0  0  0  0  0  0  0  0  0  0  0
   -0.1240    3.3770   -3.4170 H   0  0  0  0  0  0  0  0  0  0  0  0
   -1.7780    2.9220   -3.0510 H   0  0  0  0  0  0  0  0  0  0  0  0
    1.5870    3.3080   -1.7150 H   0  0  0  0  0  0  0  0  0  0  0  0
    1.2650    2.7220   -0.0980 H   0  0  0  0  0  0  0  0  0  0  0  0
    0.4130    0.5110   -1.0380 H   0  0  0  0  0  0  0  0  0  0  0  0
    0.7300    1.0590   -2.6700 H   0  0  0  0  0  0  0  0  0  0  0  0
    3.1860    1.3750   -2.1850 H   0  0  0  0  0  0  0  0  0  0  0  0
    1.4150   -1.6830   -0.5600 H   0  0  0  0  0  0  0  0  0  0  0  0
    2.6980   -1.8280    0.6280 H   0  0  0  0  0  0  0  0  0  0  0  0
    1.5570   -0.5060    0.7580 H   0  0  0  0  0  0  0  0  0  0  0  0
    4.8020   -4.2150   -2.4700 H   0  0  0  0  0  0  0  0  0  0  0  0
    6.5270   -4.4120   -2.0850 H   0  0  0  0  0  0  0  0  0  0  0  0
    5.3040   -4.5490   -0.8030 H   0  0  0  0  0  0  0  0  0  0  0  0
    5.4410    1.6380    0.1340 H   0  0  0  0  0  0  0  0  0  0  0  0
    5.1840    3.3480    2.3620 H   0  0  0  0  0  0  0  0  0  0  0  0
    6.3900    2.7980    3.5280 H   0  0  0  0  0  0  0  0  0  0  0  0
    6.8350    2.9920    1.8370 H   0  0  0  0  0  0  0  0  0  0  0  0
    6.3360   -0.4290    3.3290 H   0  0  0  0  0  0  0  0  0  0  0  0
    5.5640    0.8050    4.3320 H   0  0  0  0  0  0  0  0  0  0  0  0
    4.5790   -0.2600    3.3350 H   0  0  0  0  0  0  0  0  0  0  0  0
   -3.6590    1.5120   -2.1110 H   0  0  0  0  0  0  0  0  0  0  0  0
   -4.5420   -1.2420   -2.0320 H   0  0  0  0  0  0  0  0  0  0  0  0
  1 36  1  0
  1  2  1  0
  1 37  1  0
  1 35  1  0
  2  3  1  0
  3  4  2  0
  3  5  1  0
  5 38  1  0
  5  6  1  0
  5 39  1  0
  6 33  2  0
  6  7  1  0
  7  8  2  0
  7 40  1  0
  8 10  1  0
  8  9  1  0
  9 41  1  0
 10 32  2  0
 10 11  1  0
 11 42  1  0
 11 12  1  0
 11 43  1  0
 12 13  2  0
 12 44  1  0
 13 14  1  0
 13 15  1  0
 14 46  1  0
 14 47  1  0
 14 45  1  0
 15 48  1  0
 15 16  1  0
 15 49  1  0
 16 51  1  0
 16 17  1  0
 16 50  1  0
 17 52  1  0
 17 18  2  0
 18 20  1  0
 18 19  1  0
 19 53  1  0
 19 54  1  0
 19 55  1  0
 20 21  1  6
 20 22  1  0
 20 26  1  0
 22 23  1  0
 23 24  1  0
 23 25  2  0
 24 56  1  0
 24 57  1  0
 24 58  1  0
 26 28  1  0
 26 27  2  0
 28 59  1  0
 28 29  2  0
 29 30  1  0
 29 31  1  0
 30 62  1  0
 30 60  1  0
 30 61  1  0
 31 63  1  0
 31 65  1  0
 31 64  1  0
 32 66  1  0
 32 33  1  0
 33 34  1  0
 34 67  1  0
M  END
>  <id>  (60) 
160

>  <scaffolds>  (60) 
['c1ccccc1']

>  <name>  (60) 
8'-acetoxyrietone

>  <formula>  (60) 
C26H34O7

>  <SMILES>  (60) 
COC(=O)Cc1cc(O)c(C/C=C(C)/CC/C=C(C)/[C@H](OC(C)=O)C(=O)/C=C(C)\C)cc1O

>  <ChEMBL_id>  (60) 


>  <ZINC_id>  (60) 


>  <PubChem_id>  (60) 


>  <DrugBank_id>  (60) 


>  <CAS_no>  (60) 
163498-09-7

>  <references>  (60) 
[{'journal': {'name': 'Thesis, Rhodes University', 'id': 2}, 'title': 'Biologically Active Natural Products From South African Marine Invertebrates', 'year': 1996, 'start_page': None, 'volume': None, 'issue': None, 'doi': None, 'isbn': None, 'despositor': {'code': 'rah', 'first_name': 'Rowan', 'last_name': 'Hatherley', 'id': 20}, 'refauthors_set': [{'author': {'first_name': 'Gregory', 'initials': 'GJ', 'last_name': 'Hooper', 'id': 448}, 'first_author': True, 'id': 606}], 'id': 227}, {'journal': {'name': 'Tetrahedron Letters', 'id': 3}, 'title': 'Sesquiterpene Hydroquinones from the South African Soft Coral Alcyonium fauri', 'year': 1995, 'start_page': 3265, 'volume': 36, 'issue': 18, 'doi': '10.1016/0040-4039(95)00461-K', 'isbn': '', 'despositor': {'code': 'rah', 'first_name': 'Rowan', 'last_name': 'Hatherley', 'id': 20}, 'refauthors_set': [{'author': {'first_name': 'Gregory', 'initials': 'GJ', 'last_name': 'Hooper', 'id': 448}, 'first_author': True, 'id': 616}, {'author': {'first_name': 'Michael', 'initials': 'MT', 'last_name': 'Davies-Coleman', 'id': 449}, 'first_author': None, 'id': 617}], 'id': 231}]

>  <classifications>  (60) 
[{'classification': 'Hydroquinone', 'id': 784}, {'classification': 'Sesquiterpene', 'id': 828}, {'classification': 'Terpenoid', 'id': 839}, {'classification': 'Phenol lipids (Classyfire)', 'id': 951}]

>  <molecular_mass>  (60) 
458.54

$$$$
SANC00161_minRM1.pdb
     RDKit          3D

 61 61  0  0  0  0  0  0  0  0999 V2000
   -5.3150   -4.7580   -0.4580 C   0  0  0  0  0  0  0  0  0  0  0  0
   -5.7720   -3.5600    0.1280 O   0  0  0  0  0  0  0  0  0  0  0  0
   -5.1030   -2.4190   -0.1770 C   0  0  0  0  0  0  0  0  0  0  0  0
   -4.1440   -2.4640   -0.9260 O   0  0  0  0  0  0  0  0  0  0  0  0
   -5.7100   -1.2210    0.4980 C   0  0  0  0  0  0  0  0  0  0  0  0
   -4.6980   -0.1310    0.5720 C   0  0  0  0  0  0  0  0  0  0  0  0
   -4.1640    0.2620    1.7910 C   0  0  0  0  0  0  0  0  0  0  0  0
   -3.2310    1.3030    1.8220 C   0  0  0  0  0  0  0  0  0  0  0  0
   -2.7950    1.6460    3.0640 O   0  0  0  0  0  0  0  0  0  0  0  0
   -2.8430    1.9800    0.6620 C   0  0  0  0  0  0  0  0  0  0  0  0
   -1.8770    3.1190    0.6880 C   0  0  0  0  0  0  0  0  0  0  0  0
   -0.4990    2.6010    0.4550 C   0  0  0  0  0  0  0  0  0  0  0  0
    0.2840    2.9470   -0.5680 C   0  0  0  0  0  0  0  0  0  0  0  0
   -0.1400    3.8910   -1.6360 C   0  0  0  0  0  0  0  0  0  0  0  0
    1.6630    2.3810   -0.6990 C   0  0  0  0  0  0  0  0  0  0  0  0
    1.6750    1.2820   -1.7650 C   0  0  0  0  0  0  0  0  0  0  0  0
    3.0440    0.6980   -1.8410 C   0  0  0  0  0  0  0  0  0  0  0  0
    3.3990   -0.4500   -1.2630 C   0  0  0  0  0  0  0  0  0  0  0  0
    2.4640   -1.2950   -0.4740 C   0  0  0  0  0  0  0  0  0  0  0  0
    4.7970   -0.9670   -1.3600 C   0  0  0  0  0  0  0  0  0  0  0  0
    5.5000   -0.9290   -0.0220 C   0  0  0  0  0  0  0  0  0  0  0  0
    5.0190   -0.3690    0.9480 O   0  0  0  0  0  0  0  0  0  0  0  0
    6.7990   -1.6160    0.0160 C   0  0  0  0  0  0  0  0  0  0  0  0
    7.7900   -1.2780    0.8480 C   0  0  0  0  0  0  0  0  0  0  0  0
    9.0760   -2.0280    0.8570 C   0  0  0  0  0  0  0  0  0  0  0  0
    7.6990   -0.1520    1.8110 C   0  0  0  0  0  0  0  0  0  0  0  0
   -3.3610    1.5610   -0.5580 C   0  0  0  0  0  0  0  0  0  0  0  0
   -4.2760    0.5090   -0.5960 C   0  0  0  0  0  0  0  0  0  0  0  0
   -4.8560    0.1690   -1.7820 O   0  0  0  0  0  0  0  0  0  0  0  0
   -6.0310   -5.5120   -0.1060 H   0  0  0  0  0  0  0  0  0  0  0  0
   -5.3300   -4.7270   -1.5620 H   0  0  0  0  0  0  0  0  0  0  0  0
   -4.2990   -5.0280   -0.1230 H   0  0  0  0  0  0  0  0  0  0  0  0
   -6.5970   -0.8970   -0.0930 H   0  0  0  0  0  0  0  0  0  0  0  0
   -6.1170   -1.4880    1.4970 H   0  0  0  0  0  0  0  0  0  0  0  0
   -4.4640   -0.2240    2.7250 H   0  0  0  0  0  0  0  0  0  0  0  0
   -1.8590    1.8640    2.9980 H   0  0  0  0  0  0  0  0  0  0  0  0
   -2.1920    3.8930   -0.0440 H   0  0  0  0  0  0  0  0  0  0  0  0
   -1.9130    3.6760    1.6520 H   0  0  0  0  0  0  0  0  0  0  0  0
   -0.1530    1.8760    1.1990 H   0  0  0  0  0  0  0  0  0  0  0  0
   -0.3230    4.9000   -1.2350 H   0  0  0  0  0  0  0  0  0  0  0  0
    0.6060    4.0130   -2.4350 H   0  0  0  0  0  0  0  0  0  0  0  0
   -1.0670    3.5680   -2.1320 H   0  0  0  0  0  0  0  0  0  0  0  0
    2.3890    3.1830   -0.9530 H   0  0  0  0  0  0  0  0  0  0  0  0
    2.0350    1.9740    0.2670 H   0  0  0  0  0  0  0  0  0  0  0  0
    0.8920    0.5230   -1.5520 H   0  0  0  0  0  0  0  0  0  0  0  0
    1.3820    1.6870   -2.7580 H   0  0  0  0  0  0  0  0  0  0  0  0
    3.7690    1.3010   -2.3990 H   0  0  0  0  0  0  0  0  0  0  0  0
    1.6670   -1.7210   -1.1050 H   0  0  0  0  0  0  0  0  0  0  0  0
    2.9580   -2.1500    0.0140 H   0  0  0  0  0  0  0  0  0  0  0  0
    1.9740   -0.7240    0.3310 H   0  0  0  0  0  0  0  0  0  0  0  0
    4.7830   -2.0030   -1.7650 H   0  0  0  0  0  0  0  0  0  0  0  0
    5.4120   -0.4000   -2.0910 H   0  0  0  0  0  0  0  0  0  0  0  0
    6.9110   -2.4500   -0.6840 H   0  0  0  0  0  0  0  0  0  0  0  0
    9.9180   -1.3740    0.5720 H   0  0  0  0  0  0  0  0  0  0  0  0
    9.3000   -2.4170    1.8610 H   0  0  0  0  0  0  0  0  0  0  0  0
    9.1000   -2.8880    0.1680 H   0  0  0  0  0  0  0  0  0  0  0  0
    7.0110   -0.3930    2.6370 H   0  0  0  0  0  0  0  0  0  0  0  0
    8.6660    0.1110    2.2660 H   0  0  0  0  0  0  0  0  0  0  0  0
    7.3120    0.7670    1.3440 H   0  0  0  0  0  0  0  0  0  0  0  0
   -3.0610    2.0540   -1.4880 H   0  0  0  0  0  0  0  0  0  0  0  0
   -4.2110   -0.3780   -2.2510 H   0  0  0  0  0  0  0  0  0  0  0  0
  1 31  1  0
  1 32  1  0
  1 30  1  0
  1  2  1  0
  2  3  1  0
  3  4  2  0
  3  5  1  0
  5 33  1  0
  5  6  1  0
  5 34  1  0
  6 28  2  0
  6  7  1  0
  7  8  2  0
  7 35  1  0
  8 10  1  0
  8  9  1  0
  9 36  1  0
 10 27  2  0
 10 11  1  0
 11 37  1  0
 11 12  1  0
 11 38  1  0
 12 13  2  0
 12 39  1  0
 13 14  1  0
 13 15  1  0
 14 41  1  0
 14 42  1  0
 14 40  1  0
 15 16  1  0
 15 43  1  0
 15 44  1  0
 16 46  1  0
 16 17  1  0
 16 45  1  0
 17 47  1  0
 17 18  2  0
 18 20  1  0
 18 19  1  0
 19 48  1  0
 19 49  1  0
 19 50  1  0
 20 52  1  0
 20 51  1  0
 20 21  1  0
 21 23  1  0
 21 22  2  0
 23 53  1  0
 23 24  2  0
 24 25  1  0
 24 26  1  0
 25 56  1  0
 25 54  1  0
 25 55  1  0
 26 59  1  0
 26 58  1  0
 26 57  1  0
 27 60  1  0
 27 28  1  0
 28 29  1  0
 29 61  1  0
M  END
>  <id>  (61) 
161

>  <scaffolds>  (61) 
['c1ccccc1']

>  <name>  (61) 
8'-desoxyrietone

>  <formula>  (61) 
C24H32O5

>  <SMILES>  (61) 
COC(=O)Cc1cc(O)c(C/C=C(C)/CC/C=C(C)/CC(=O)/C=C(C)\C)cc1O

>  <ChEMBL_id>  (61) 


>  <ZINC_id>  (61) 


>  <PubChem_id>  (61) 


>  <DrugBank_id>  (61) 


>  <CAS_no>  (61) 
163498-10-0

>  <references>  (61) 
[{'journal': {'name': 'Thesis, Rhodes University', 'id': 2}, 'title': 'Biologically Active Natural Products From South African Marine Invertebrates', 'year': 1996, 'start_page': None, 'volume': None, 'issue': None, 'doi': None, 'isbn': None, 'despositor': {'code': 'rah', 'first_name': 'Rowan', 'last_name': 'Hatherley', 'id': 20}, 'refauthors_set': [{'author': {'first_name': 'Gregory', 'initials': 'GJ', 'last_name': 'Hooper', 'id': 448}, 'first_author': True, 'id': 606}], 'id': 227}, {'journal': {'name': 'Tetrahedron Letters', 'id': 3}, 'title': 'Sesquiterpene Hydroquinones from the South African Soft Coral Alcyonium fauri', 'year': 1995, 'start_page': 3265, 'volume': 36, 'issue': 18, 'doi': '10.1016/0040-4039(95)00461-K', 'isbn': '', 'despositor': {'code': 'rah', 'first_name': 'Rowan', 'last_name': 'Hatherley', 'id': 20}, 'refauthors_set': [{'author': {'first_name': 'Gregory', 'initials': 'GJ', 'last_name': 'Hooper', 'id': 448}, 'first_author': True, 'id': 616}, {'author': {'first_name': 'Michael', 'initials': 'MT', 'last_name': 'Davies-Coleman', 'id': 449}, 'first_author': None, 'id': 617}], 'id': 231}]

>  <classifications>  (61) 
[{'classification': 'Hydroquinone', 'id': 784}, {'classification': 'Sesquiterpene', 'id': 828}, {'classification': 'Terpenoid', 'id': 839}, {'classification': 'Phenol lipids (Classyfire)', 'id': 951}]

>  <molecular_mass>  (61) 
400.51

$$$$
SANC00162_minRM1.pdb
     RDKit          3D

 57 57  0  0  1  0  0  0  0  0999 V2000
   -6.8940   -1.9160    1.4260 C   0  0  0  0  0  0  0  0  0  0  0  0
   -6.5970   -1.1060    0.1730 C   0  0  0  0  0  0  0  0  0  0  0  0
   -5.1030   -0.8140    0.0670 C   0  0  0  0  0  0  0  0  0  0  0  0
   -4.7740    0.1120   -1.1090 C   0  0  2  0  0  0  0  0  0  0  0  0
   -5.4400    1.0110   -1.0680 H   0  0  0  0  0  0  0  0  0  0  0  0
   -5.0020   -0.5990   -2.4390 C   0  0  0  0  0  0  0  0  0  0  0  0
   -3.3100    0.5610   -1.0240 C   0  0  0  0  0  0  0  0  0  0  0  0
   -3.0360    1.4360    0.2040 C   0  0  2  0  0  0  0  0  0  0  0  0
   -3.5730    1.0040    1.0910 H   0  0  0  0  0  0  0  0  0  0  0  0
   -3.5460    2.8560   -0.0230 C   0  0  0  0  0  0  0  0  0  0  0  0
   -1.5320    1.4870    0.4920 C   0  0  0  0  0  0  0  0  0  0  0  0
   -0.9680    0.1200    0.9080 C   0  0  2  0  0  0  0  0  0  0  0  0
   -1.3740   -0.6680    0.2170 H   0  0  0  0  0  0  0  0  0  0  0  0
   -1.3670   -0.2500    2.3340 C   0  0  0  0  0  0  0  0  0  0  0  0
    0.5240    0.1970    0.8290 C   0  0  0  0  0  0  0  0  0  0  0  0
    1.2490   -0.3070   -0.1760 C   0  0  0  0  0  0  0  0  0  0  0  0
    0.6810   -1.0250   -1.3480 C   0  0  0  0  0  0  0  0  0  0  0  0
    2.6950   -0.1580   -0.1360 C   0  0  0  0  0  0  0  0  0  0  0  0
    3.4600    0.9250    0.1370 C   0  0  0  0  0  0  0  0  0  0  0  0
    3.0400    2.2920    0.4660 C   0  0  0  0  0  0  0  0  0  0  0  0
    4.8640    0.5230    0.0530 C   0  0  0  0  0  0  0  0  0  0  0  0
    5.8750    1.1690    0.1640 O   0  0  0  0  0  0  0  0  0  0  0  0
    4.8000   -0.9940   -0.2660 C   0  0  1  0  0  0  0  0  0  0  0  0
    5.5570   -1.3910   -1.5210 C   0  0  0  0  0  0  0  0  0  0  0  0
    5.1840   -1.6600    0.8790 O   0  0  0  0  0  0  0  0  0  0  0  0
    3.4120   -1.2860   -0.4380 O   0  0  0  0  0  0  0  0  0  0  0  0
   -7.9610   -2.1680    1.5070 H   0  0  0  0  0  0  0  0  0  0  0  0
   -6.3430   -2.8670    1.4490 H   0  0  0  0  0  0  0  0  0  0  0  0
   -6.6290   -1.3740    2.3460 H   0  0  0  0  0  0  0  0  0  0  0  0
   -6.9590   -1.6540   -0.7230 H   0  0  0  0  0  0  0  0  0  0  0  0
   -7.1840   -0.1630    0.1820 H   0  0  0  0  0  0  0  0  0  0  0  0
   -4.7430   -0.3500    1.0150 H   0  0  0  0  0  0  0  0  0  0  0  0
   -4.5310   -1.7620   -0.0110 H   0  0  0  0  0  0  0  0  0  0  0  0
   -4.4180   -1.5270   -2.5250 H   0  0  0  0  0  0  0  0  0  0  0  0
   -6.0550   -0.8720   -2.5970 H   0  0  0  0  0  0  0  0  0  0  0  0
   -4.7240    0.0290   -3.2980 H   0  0  0  0  0  0  0  0  0  0  0  0
   -2.6480   -0.3360   -1.0110 H   0  0  0  0  0  0  0  0  0  0  0  0
   -3.0150    1.1030   -1.9480 H   0  0  0  0  0  0  0  0  0  0  0  0
   -3.0170    3.3690   -0.8380 H   0  0  0  0  0  0  0  0  0  0  0  0
   -4.6140    2.8810   -0.2780 H   0  0  0  0  0  0  0  0  0  0  0  0
   -3.4290    3.4850    0.8720 H   0  0  0  0  0  0  0  0  0  0  0  0
   -0.9920    1.8560   -0.4070 H   0  0  0  0  0  0  0  0  0  0  0  0
   -1.3140    2.2420    1.2760 H   0  0  0  0  0  0  0  0  0  0  0  0
   -1.1170    0.5330    3.0640 H   0  0  0  0  0  0  0  0  0  0  0  0
   -2.4450   -0.4400    2.4320 H   0  0  0  0  0  0  0  0  0  0  0  0
   -0.8610   -1.1680    2.6710 H   0  0  0  0  0  0  0  0  0  0  0  0
    1.0120    0.7110    1.6680 H   0  0  0  0  0  0  0  0  0  0  0  0
   -0.1190   -0.4440   -1.8350 H   0  0  0  0  0  0  0  0  0  0  0  0
    1.4260   -1.2370   -2.1310 H   0  0  0  0  0  0  0  0  0  0  0  0
    0.2550   -1.9980   -1.0550 H   0  0  0  0  0  0  0  0  0  0  0  0
    3.0450    2.4640    1.5550 H   0  0  0  0  0  0  0  0  0  0  0  0
    3.7170    3.0410    0.0250 H   0  0  0  0  0  0  0  0  0  0  0  0
    2.0250    2.5160    0.1040 H   0  0  0  0  0  0  0  0  0  0  0  0
    6.6330   -1.2040   -1.3950 H   0  0  0  0  0  0  0  0  0  0  0  0
    5.4300   -2.4540   -1.7710 H   0  0  0  0  0  0  0  0  0  0  0  0
    5.2230   -0.8150   -2.3950 H   0  0  0  0  0  0  0  0  0  0  0  0
    5.1470   -2.6090    0.7130 H   0  0  0  0  0  0  0  0  0  0  0  0
  1  2  1  0
  1 28  1  0
  1 27  1  0
  1 29  1  0
  2 30  1  0
  2  3  1  0
  2 31  1  0
  3  4  1  0
  3 33  1  0
  3 32  1  0
  4  6  1  0
  4  5  1  6
  4  7  1  0
  6 36  1  0
  6 35  1  0
  6 34  1  0
  7 38  1  0
  7 37  1  0
  7  8  1  0
  8 10  1  0
  8 11  1  0
  8  9  1  1
 10 39  1  0
 10 40  1  0
 10 41  1  0
 11 42  1  0
 11 12  1  0
 11 43  1  0
 12 13  1  6
 12 15  1  0
 12 14  1  0
 14 45  1  0
 14 46  1  0
 14 44  1  0
 15 16  2  0
 15 47  1  0
 16 17  1  0
 16 18  1  0
 17 49  1  0
 17 48  1  0
 17 50  1  0
 18 26  1  0
 18 19  2  0
 19 21  1  0
 19 20  1  0
 20 52  1  0
 20 53  1  0
 20 51  1  0
 21 23  1  0
 21 22  2  0
 23 24  1  0
 23 26  1  0
 23 25  1  1
 24 56  1  0
 24 55  1  0
 24 54  1  0
 25 57  1  0
M  END
>  <id>  (62) 
162

>  <scaffolds>  (62) 
[]

>  <name>  (62) 
(E)-Siphonarienfuranone

>  <formula>  (62) 
C20H34O3

>  <SMILES>  (62) 
CCC[C@H](C)C[C@H](C)C[C@H](C)/C=C(C)/C1=C(C)C(=O)C(C)(O)O1

>  <ChEMBL_id>  (62) 


>  <ZINC_id>  (62) 


>  <PubChem_id>  (62) 


>  <DrugBank_id>  (62) 


>  <CAS_no>  (62) 
128008-16-2

>  <references>  (62) 
[{'journal': {'name': 'Thesis, Rhodes University', 'id': 2}, 'title': 'Structural and Synthetic Investigations of South African Marine Natural Products', 'year': 1999, 'start_page': None, 'volume': None, 'issue': None, 'doi': None, 'isbn': None, 'despositor': {'code': 'rah', 'first_name': 'Rowan', 'last_name': 'Hatherley', 'id': 20}, 'refauthors_set': [{'author': {'first_name': 'Denzil', 'initials': 'DR', 'last_name': 'Beukes', 'id': 453}, 'first_author': True, 'id': 618}], 'id': 232}, {'journal': {'name': 'Tetrahedron', 'id': 4}, 'title': 'Novel Polypropionates from the South African Marine Mollusc Siphonaria capensis', 'year': 1999, 'start_page': 4051, 'volume': 55, 'issue': 13, 'doi': '10.1016/S0040-4020(99)00093-9', 'isbn': '', 'despositor': {'code': 'rah', 'first_name': 'Rowan', 'last_name': 'Hatherley', 'id': 20}, 'refauthors_set': [{'author': {'first_name': 'Michael', 'initials': 'MT', 'last_name': 'Davies-Coleman', 'id': 449}, 'first_author': None, 'id': 619}, {'author': {'first_name': 'Denzil', 'initials': 'DR', 'last_name': 'Beukes', 'id': 453}, 'first_author': True, 'id': 620}], 'id': 233}, {'journal': {'name': 'Journal of Natural Products', 'id': 5}, 'title': 'Polypropionates from the South African Marine Mollusk Siphonaria oculus', 'year': 2012, 'start_page': 497, 'volume': 75, 'issue': 3, 'doi': '10.1021/np2009384', 'isbn': '', 'despositor': {'code': 'rah', 'first_name': 'Rowan', 'last_name': 'Hatherley', 'id': 20}, 'refauthors_set': [{'author': {'first_name': 'Michael', 'initials': 'MT', 'last_name': 'Davies-Coleman', 'id': 449}, 'first_author': None, 'id': 621}, {'author': {'first_name': 'Candice', 'initials': 'CL', 'last_name': 'Bromley', 'id': 454}, 'first_author': True, 'id': 622}, {'author': {'first_name': 'Wendy', 'initials': 'WL', 'last_name': 'Popplewell', 'id': 455}, 'first_author': None, 'id': 623}, {'author': {'first_name': 'Shirley', 'initials': 'SC', 'last_name': 'Pinchuck', 'id': 456}, 'first_author': None, 'id': 624}, {'author': {'first_name': 'Alan', 'initials': 'AN', 'last_name': 'Hodgson', 'id': 457}, 'first_author': None, 'id': 625}], 'id': 234}]

>  <classifications>  (62) 
[{'classification': 'Polypropionate', 'id': 811}, {'classification': 'Siphonarienfuranone', 'id': 830}, {'classification': 'Phenol lipids (Classyfire)', 'id': 951}]

>  <molecular_mass>  (62) 
322.48

$$$$
SANC00163_minRM1.pdb
     RDKit          3D

 57 57  0  0  1  0  0  0  0  0999 V2000
    5.3330    0.9550    2.2720 C   0  0  0  0  0  0  0  0  0  0  0  0
    4.9580    1.1410    0.8090 C   0  0  0  0  0  0  0  0  0  0  0  0
    3.5740    0.5620    0.5330 C   0  0  0  0  0  0  0  0  0  0  0  0
    3.2000    0.6400   -0.9510 C   0  0  2  0  0  0  0  0  0  0  0  0
    4.0450    0.2430   -1.5690 H   0  0  0  0  0  0  0  0  0  0  0  0
    2.9360    2.0850   -1.3650 C   0  0  0  0  0  0  0  0  0  0  0  0
    1.9400   -0.1950   -1.2170 C   0  0  0  0  0  0  0  0  0  0  0  0
    2.1670   -1.6920   -0.9850 C   0  0  2  0  0  0  0  0  0  0  0  0
    2.7500   -1.8330   -0.0350 H   0  0  0  0  0  0  0  0  0  0  0  0
    2.9630   -2.3030   -2.1340 C   0  0  0  0  0  0  0  0  0  0  0  0
    0.8220   -2.4200   -0.8710 C   0  0  0  0  0  0  0  0  0  0  0  0
    0.0200   -1.9820    0.3620 C   0  0  2  0  0  0  0  0  0  0  0  0
    0.0230   -0.8580    0.4120 H   0  0  0  0  0  0  0  0  0  0  0  0
    0.6220   -2.5320    1.6520 C   0  0  0  0  0  0  0  0  0  0  0  0
   -1.3710   -2.5170    0.2280 C   0  0  0  0  0  0  0  0  0  0  0  0
   -2.4690   -1.7630    0.1530 C   0  0  0  0  0  0  0  0  0  0  0  0
   -3.8350   -2.3270   -0.0190 C   0  0  0  0  0  0  0  0  0  0  0  0
   -2.4360   -0.3090    0.2250 C   0  0  0  0  0  0  0  0  0  0  0  0
   -2.2010    0.5290    1.2600 C   0  0  0  0  0  0  0  0  0  0  0  0
   -1.8530    0.2000    2.6470 C   0  0  0  0  0  0  0  0  0  0  0  0
   -2.3360    1.9030    0.7730 C   0  0  0  0  0  0  0  0  0  0  0  0
   -2.2640    2.9540    1.3560 O   0  0  0  0  0  0  0  0  0  0  0  0
   -2.6480    1.7340   -0.7390 C   0  0  1  0  0  0  0  0  0  0  0  0
   -3.9350    2.4090   -1.1790 C   0  0  0  0  0  0  0  0  0  0  0  0
   -1.5180    2.1250   -1.4250 O   0  0  0  0  0  0  0  0  0  0  0  0
   -2.7610    0.3250   -0.9460 O   0  0  0  0  0  0  0  0  0  0  0  0
    6.3220    1.3800    2.4980 H   0  0  0  0  0  0  0  0  0  0  0  0
    4.6190    1.4430    2.9500 H   0  0  0  0  0  0  0  0  0  0  0  0
    5.3730   -0.1050    2.5620 H   0  0  0  0  0  0  0  0  0  0  0  0
    4.9980    2.2190    0.5470 H   0  0  0  0  0  0  0  0  0  0  0  0
    5.7210    0.6640    0.1580 H   0  0  0  0  0  0  0  0  0  0  0  0
    3.5380   -0.5000    0.8710 H   0  0  0  0  0  0  0  0  0  0  0  0
    2.8110    1.0770    1.1530 H   0  0  0  0  0  0  0  0  0  0  0  0
    2.1300    2.5500   -0.7790 H   0  0  0  0  0  0  0  0  0  0  0  0
    3.8230    2.7240   -1.2480 H   0  0  0  0  0  0  0  0  0  0  0  0
    2.6430    2.1660   -2.4220 H   0  0  0  0  0  0  0  0  0  0  0  0
    1.1100    0.1720   -0.5700 H   0  0  0  0  0  0  0  0  0  0  0  0
    1.5740   -0.0230   -2.2510 H   0  0  0  0  0  0  0  0  0  0  0  0
    2.4470   -2.2130   -3.1010 H   0  0  0  0  0  0  0  0  0  0  0  0
    3.9480   -1.8310   -2.2600 H   0  0  0  0  0  0  0  0  0  0  0  0
    3.1570   -3.3750   -1.9800 H   0  0  0  0  0  0  0  0  0  0  0  0
    0.2230   -2.2430   -1.7900 H   0  0  0  0  0  0  0  0  0  0  0  0
    0.9810   -3.5190   -0.8500 H   0  0  0  0  0  0  0  0  0  0  0  0
    0.7260   -3.6260    1.6390 H   0  0  0  0  0  0  0  0  0  0  0  0
    1.6210   -2.1200    1.8550 H   0  0  0  0  0  0  0  0  0  0  0  0
    0.0020   -2.2820    2.5260 H   0  0  0  0  0  0  0  0  0  0  0  0
   -1.4470   -3.6100    0.1830 H   0  0  0  0  0  0  0  0  0  0  0  0
   -4.4980   -2.0380    0.8110 H   0  0  0  0  0  0  0  0  0  0  0  0
   -4.3030   -1.9630   -0.9480 H   0  0  0  0  0  0  0  0  0  0  0  0
   -3.8480   -3.4260   -0.0670 H   0  0  0  0  0  0  0  0  0  0  0  0
   -0.7730    0.3200    2.8280 H   0  0  0  0  0  0  0  0  0  0  0  0
   -2.3720    0.8580    3.3610 H   0  0  0  0  0  0  0  0  0  0  0  0
   -2.1140   -0.8370    2.9070 H   0  0  0  0  0  0  0  0  0  0  0  0
   -3.8540    3.5010   -1.0710 H   0  0  0  0  0  0  0  0  0  0  0  0
   -4.1850    2.1950   -2.2280 H   0  0  0  0  0  0  0  0  0  0  0  0
   -4.7910    2.0820   -0.5730 H   0  0  0  0  0  0  0  0  0  0  0  0
   -1.6770    2.0210   -2.3710 H   0  0  0  0  0  0  0  0  0  0  0  0
  1  2  1  0
  1 27  1  0
  1 29  1  0
  1 28  1  0
  2 31  1  0
  2  3  1  0
  2 30  1  0
  3  4  1  0
  3 32  1  0
  3 33  1  0
  4  5  1  6
  4  6  1  0
  4  7  1  0
  6 36  1  0
  6 35  1  0
  6 34  1  0
  7 38  1  0
  7  8  1  0
  7 37  1  0
  8 10  1  0
  8 11  1  0
  8  9  1  1
 10 39  1  0
 10 40  1  0
 10 41  1  0
 11 42  1  0
 11 43  1  0
 11 12  1  0
 12 15  1  0
 12 13  1  1
 12 14  1  0
 14 44  1  0
 14 45  1  0
 14 46  1  0
 15 16  2  0
 15 47  1  0
 16 17  1  0
 16 18  1  0
 17 49  1  0
 17 50  1  0
 17 48  1  0
 18 26  1  0
 18 19  2  0
 19 21  1  0
 19 20  1  0
 20 51  1  0
 20 53  1  0
 20 52  1  0
 21 23  1  0
 21 22  2  0
 23 25  1  6
 23 24  1  0
 23 26  1  0
 24 55  1  0
 24 54  1  0
 24 56  1  0
 25 57  1  0
M  END
>  <id>  (63) 
163

>  <scaffolds>  (63) 
[]

>  <name>  (63) 
(Z)-Siphonarienfuranone

>  <formula>  (63) 
C20H34O3

>  <SMILES>  (63) 
CCC[C@H](C)C[C@H](C)C[C@H](C)/C=C(C)\C1=C(C)C(=O)C(C)(O)O1

>  <ChEMBL_id>  (63) 


>  <ZINC_id>  (63) 


>  <PubChem_id>  (63) 


>  <DrugBank_id>  (63) 


>  <CAS_no>  (63) 
128008-16-2

>  <references>  (63) 
[{'journal': {'name': 'Thesis, Rhodes University', 'id': 2}, 'title': 'Structural and Synthetic Investigations of South African Marine Natural Products', 'year': 1999, 'start_page': None, 'volume': None, 'issue': None, 'doi': None, 'isbn': None, 'despositor': {'code': 'rah', 'first_name': 'Rowan', 'last_name': 'Hatherley', 'id': 20}, 'refauthors_set': [{'author': {'first_name': 'Denzil', 'initials': 'DR', 'last_name': 'Beukes', 'id': 453}, 'first_author': True, 'id': 618}], 'id': 232}, {'journal': {'name': 'Tetrahedron', 'id': 4}, 'title': 'Novel Polypropionates from the South African Marine Mollusc Siphonaria capensis', 'year': 1999, 'start_page': 4051, 'volume': 55, 'issue': 13, 'doi': '10.1016/S0040-4020(99)00093-9', 'isbn': '', 'despositor': {'code': 'rah', 'first_name': 'Rowan', 'last_name': 'Hatherley', 'id': 20}, 'refauthors_set': [{'author': {'first_name': 'Michael', 'initials': 'MT', 'last_name': 'Davies-Coleman', 'id': 449}, 'first_author': None, 'id': 619}, {'author': {'first_name': 'Denzil', 'initials': 'DR', 'last_name': 'Beukes', 'id': 453}, 'first_author': True, 'id': 620}], 'id': 233}]

>  <classifications>  (63) 
[{'classification': 'Polypropionate', 'id': 811}, {'classification': 'Siphonarienfuranone', 'id': 830}, {'classification': 'Phenol lipids (Classyfire)', 'id': 951}]

>  <molecular_mass>  (63) 
322.48

$$$$
SANC00164_minRM1.pdb
     RDKit          3D

 55 55  0  0  1  0  0  0  0  0999 V2000
    2.7630    0.1110    2.0060 H   0  0  0  0  0  0  0  0  0  0  0  0
    2.1310    0.0720    1.0770 C   0  0  2  0  0  0  0  0  0  0  0  0
    0.7160    0.5510    1.4380 C   0  0  1  0  0  0  0  0  0  0  0  0
    0.1640   -0.3210    1.8770 H   0  0  0  0  0  0  0  0  0  0  0  0
    0.7870    1.6160    2.5290 C   0  0  0  0  0  0  0  0  0  0  0  0
   -0.0360    1.0700    0.2050 C   0  0  0  0  0  0  0  0  0  0  0  0
   -1.5640    1.0330    0.3630 C   0  0  1  0  0  0  0  0  0  0  0  0
   -1.8580    0.1520    0.9950 H   0  0  0  0  0  0  0  0  0  0  0  0
   -2.0790    2.3070    1.0240 C   0  0  0  0  0  0  0  0  0  0  0  0
   -2.2270    0.8700   -1.0130 C   0  0  0  0  0  0  0  0  0  0  0  0
   -3.7400    0.6380   -0.8940 C   0  0  1  0  0  0  0  0  0  0  0  0
   -4.1830    1.4530   -0.2620 H   0  0  0  0  0  0  0  0  0  0  0  0
   -4.3690    0.6970   -2.2820 C   0  0  0  0  0  0  0  0  0  0  0  0
   -4.0070   -0.7180   -0.2310 C   0  0  0  0  0  0  0  0  0  0  0  0
   -5.4670   -0.8820    0.1780 C   0  0  0  0  0  0  0  0  0  0  0  0
   -5.6730   -2.2000    0.9070 C   0  0  0  0  0  0  0  0  0  0  0  0
    2.8380    0.9050    0.0400 C   0  0  0  0  0  0  0  0  0  0  0  0
    3.0150    2.3640    0.1530 C   0  0  0  0  0  0  0  0  0  0  0  0
    3.3700    0.1740   -0.9550 C   0  0  0  0  0  0  0  0  0  0  0  0
    4.1540    0.6730   -2.0960 C   0  0  0  0  0  0  0  0  0  0  0  0
    3.1030   -1.2510   -0.7410 C   0  0  0  0  0  0  0  0  0  0  0  0
    3.5180   -2.1940   -1.3790 O   0  0  0  0  0  0  0  0  0  0  0  0
    2.1910   -1.3780    0.4930 C   0  0  2  0  0  0  0  0  0  0  0  0
    0.8720   -1.9930    0.0390 C   0  0  0  0  0  0  0  0  0  0  0  0
    2.7910   -2.1650    1.4740 O   0  0  0  0  0  0  0  0  0  0  0  0
    1.3990    2.4850    2.2400 H   0  0  0  0  0  0  0  0  0  0  0  0
   -0.2110    2.0070    2.7850 H   0  0  0  0  0  0  0  0  0  0  0  0
    1.2140    1.2270    3.4650 H   0  0  0  0  0  0  0  0  0  0  0  0
    0.3010    2.0940   -0.0570 H   0  0  0  0  0  0  0  0  0  0  0  0
    0.2630    0.4550   -0.6760 H   0  0  0  0  0  0  0  0  0  0  0  0
   -1.6600    2.4460    2.0340 H   0  0  0  0  0  0  0  0  0  0  0  0
   -1.8310    3.2120    0.4510 H   0  0  0  0  0  0  0  0  0  0  0  0
   -3.1740    2.2970    1.1360 H   0  0  0  0  0  0  0  0  0  0  0  0
   -2.0180    1.7620   -1.6390 H   0  0  0  0  0  0  0  0  0  0  0  0
   -1.7710    0.0250   -1.5730 H   0  0  0  0  0  0  0  0  0  0  0  0
   -4.0040   -0.1030   -2.9430 H   0  0  0  0  0  0  0  0  0  0  0  0
   -5.4640    0.6090   -2.2520 H   0  0  0  0  0  0  0  0  0  0  0  0
   -4.1560    1.6480   -2.7920 H   0  0  0  0  0  0  0  0  0  0  0  0
   -3.7000   -1.5470   -0.9030 H   0  0  0  0  0  0  0  0  0  0  0  0
   -3.3520   -0.8300    0.6640 H   0  0  0  0  0  0  0  0  0  0  0  0
   -5.7930   -0.0370    0.8210 H   0  0  0  0  0  0  0  0  0  0  0  0
   -6.1360   -0.8350   -0.7070 H   0  0  0  0  0  0  0  0  0  0  0  0
   -5.3970   -3.0670    0.2880 H   0  0  0  0  0  0  0  0  0  0  0  0
   -5.0750   -2.2670    1.8280 H   0  0  0  0  0  0  0  0  0  0  0  0
   -6.7220   -2.3460    1.2020 H   0  0  0  0  0  0  0  0  0  0  0  0
    4.0840    2.6290    0.1820 H   0  0  0  0  0  0  0  0  0  0  0  0
    2.5880    2.8940   -0.7140 H   0  0  0  0  0  0  0  0  0  0  0  0
    2.5550    2.7970    1.0570 H   0  0  0  0  0  0  0  0  0  0  0  0
    5.1100    1.1090   -1.7650 H   0  0  0  0  0  0  0  0  0  0  0  0
    4.3960   -0.1190   -2.8200 H   0  0  0  0  0  0  0  0  0  0  0  0
    3.6170    1.4610   -2.6470 H   0  0  0  0  0  0  0  0  0  0  0  0
    1.0300   -2.9310   -0.5170 H   0  0  0  0  0  0  0  0  0  0  0  0
    0.2110   -2.2410    0.8820 H   0  0  0  0  0  0  0  0  0  0  0  0
    0.3170   -1.3200   -0.6340 H   0  0  0  0  0  0  0  0  0  0  0  0
    2.9490   -3.0380    1.0970 H   0  0  0  0  0  0  0  0  0  0  0  0
  2  1  1  1
  2 17  1  0
  2 23  1  0
  2  3  1  0
  3  6  1  0
  3  4  1  1
  3  5  1  0
  5 26  1  0
  5 27  1  0
  5 28  1  0
  6 30  1  0
  6 29  1  0
  6  7  1  0
  7 10  1  0
  7  8  1  1
  7  9  1  0
  9 32  1  0
  9 33  1  0
  9 31  1  0
 10 34  1  0
 10 35  1  0
 10 11  1  0
 11 13  1  0
 11 12  1  1
 11 14  1  0
 13 36  1  0
 13 38  1  0
 13 37  1  0
 14 39  1  0
 14 15  1  0
 14 40  1  0
 15 42  1  0
 15 41  1  0
 15 16  1  0
 16 43  1  0
 16 45  1  0
 16 44  1  0
 17 19  2  0
 17 18  1  0
 18 47  1  0
 18 46  1  0
 18 48  1  0
 19 20  1  0
 19 21  1  0
 20 50  1  0
 20 51  1  0
 20 49  1  0
 21 22  2  0
 21 23  1  0
 23 24  1  0
 23 25  1  1
 24 54  1  0
 24 52  1  0
 24 53  1  0
 25 55  1  0
M  END
>  <id>  (64) 
164

>  <scaffolds>  (64) 
[]

>  <name>  (64) 
Capensinone

>  <formula>  (64) 
C19H34O2

>  <SMILES>  (64) 
[H][C@@]1([C@@H](C)C[C@@H](C)C[C@@H](C)CCC)C(C)=C(C)C(=O)[C@@]1(C)O

>  <ChEMBL_id>  (64) 


>  <ZINC_id>  (64) 


>  <PubChem_id>  (64) 


>  <DrugBank_id>  (64) 


>  <CAS_no>  (64) 
225926-24-9

>  <references>  (64) 
[{'journal': {'name': 'Thesis, Rhodes University', 'id': 2}, 'title': 'Structural and Synthetic Investigations of South African Marine Natural Products', 'year': 1999, 'start_page': None, 'volume': None, 'issue': None, 'doi': None, 'isbn': None, 'despositor': {'code': 'rah', 'first_name': 'Rowan', 'last_name': 'Hatherley', 'id': 20}, 'refauthors_set': [{'author': {'first_name': 'Denzil', 'initials': 'DR', 'last_name': 'Beukes', 'id': 453}, 'first_author': True, 'id': 618}], 'id': 232}, {'journal': {'name': 'Tetrahedron', 'id': 4}, 'title': 'Novel Polypropionates from the South African Marine Mollusc Siphonaria capensis', 'year': 1999, 'start_page': 4051, 'volume': 55, 'issue': 13, 'doi': '10.1016/S0040-4020(99)00093-9', 'isbn': '', 'despositor': {'code': 'rah', 'first_name': 'Rowan', 'last_name': 'Hatherley', 'id': 20}, 'refauthors_set': [{'author': {'first_name': 'Michael', 'initials': 'MT', 'last_name': 'Davies-Coleman', 'id': 449}, 'first_author': None, 'id': 619}, {'author': {'first_name': 'Denzil', 'initials': 'DR', 'last_name': 'Beukes', 'id': 453}, 'first_author': True, 'id': 620}], 'id': 233}]

>  <classifications>  (64) 
[{'classification': 'Capensinone', 'id': 754}, {'classification': 'Polypropionate', 'id': 811}, {'classification': 'Phenol lipids (Classyfire)', 'id': 951}]

>  <molecular_mass>  (64) 
294.47

$$$$
SANC00165_minRM1.pdb
     RDKit          3D

 49 49  0  0  1  0  0  0  0  0999 V2000
    4.9000   -2.1420   -1.9820 C   0  0  0  0  0  0  0  0  0  0  0  0
    5.0190   -1.1510   -0.8340 C   0  0  0  0  0  0  0  0  0  0  0  0
    3.6390   -0.7880   -0.2940 C   0  0  0  0  0  0  0  0  0  0  0  0
    3.7020    0.3130    0.7700 C   0  0  2  0  0  0  0  0  0  0  0  0
    4.3090    1.1700    0.3810 H   0  0  0  0  0  0  0  0  0  0  0  0
    4.3600   -0.2060    2.0440 C   0  0  0  0  0  0  0  0  0  0  0  0
    2.2870    0.8050    1.0980 C   0  0  0  0  0  0  0  0  0  0  0  0
    1.6140    1.4960   -0.0930 C   0  0  2  0  0  0  0  0  0  0  0  0
    1.8050    0.8940   -1.0230 H   0  0  0  0  0  0  0  0  0  0  0  0
    2.1870    2.8940   -0.2980 C   0  0  0  0  0  0  0  0  0  0  0  0
    0.1020    1.6070    0.1430 C   0  0  0  0  0  0  0  0  0  0  0  0
   -0.5780    0.2350    0.1890 C   0  0  2  0  0  0  0  0  0  0  0  0
    0.0080   -0.4440    0.8690 H   0  0  0  0  0  0  0  0  0  0  0  0
   -0.6560   -0.3850   -1.1980 C   0  0  0  0  0  0  0  0  0  0  0  0
   -1.9830    0.3800    0.7950 C   0  0  1  0  0  0  0  0  0  0  0  0
   -2.7690    1.2350   -0.0270 O   0  0  0  0  0  0  0  0  0  0  0  0
   -3.8720    0.5400   -0.4680 C   0  0  0  0  0  0  0  0  0  0  0  0
   -4.6550    1.1110   -1.1910 O   0  0  0  0  0  0  0  0  0  0  0  0
   -3.8440   -0.8290    0.0950 C   0  0  0  0  0  0  0  0  0  0  0  0
   -4.8970   -1.8160   -0.1750 C   0  0  0  0  0  0  0  0  0  0  0  0
   -2.7340   -0.9360    0.8390 C   0  0  0  0  0  0  0  0  0  0  0  0
   -2.2420   -2.0840    1.6090 C   0  0  0  0  0  0  0  0  0  0  0  0
    5.8860   -2.4360   -2.3710 H   0  0  0  0  0  0  0  0  0  0  0  0
    4.3920   -3.0700   -1.6800 H   0  0  0  0  0  0  0  0  0  0  0  0
    4.3360   -1.7330   -2.8320 H   0  0  0  0  0  0  0  0  0  0  0  0
    5.6580   -1.5800   -0.0340 H   0  0  0  0  0  0  0  0  0  0  0  0
    5.5610   -0.2430   -1.1710 H   0  0  0  0  0  0  0  0  0  0  0  0
    2.9830   -0.4550   -1.1330 H   0  0  0  0  0  0  0  0  0  0  0  0
    3.1350   -1.6910    0.1090 H   0  0  0  0  0  0  0  0  0  0  0  0
    5.4090   -0.4950    1.8880 H   0  0  0  0  0  0  0  0  0  0  0  0
    4.3720    0.5510    2.8420 H   0  0  0  0  0  0  0  0  0  0  0  0
    3.8460   -1.0870    2.4550 H   0  0  0  0  0  0  0  0  0  0  0  0
    1.6660   -0.0550    1.4420 H   0  0  0  0  0  0  0  0  0  0  0  0
    2.3090    1.4920    1.9700 H   0  0  0  0  0  0  0  0  0  0  0  0
    3.2710    2.8810   -0.4830 H   0  0  0  0  0  0  0  0  0  0  0  0
    1.7360    3.4030   -1.1630 H   0  0  0  0  0  0  0  0  0  0  0  0
    2.0250    3.5490    0.5710 H   0  0  0  0  0  0  0  0  0  0  0  0
   -0.0830    2.1650    1.0860 H   0  0  0  0  0  0  0  0  0  0  0  0
   -0.3680    2.2350   -0.6440 H   0  0  0  0  0  0  0  0  0  0  0  0
   -1.2160    0.2400   -1.9090 H   0  0  0  0  0  0  0  0  0  0  0  0
    0.3400   -0.5430   -1.6380 H   0  0  0  0  0  0  0  0  0  0  0  0
   -1.1440   -1.3710   -1.1890 H   0  0  0  0  0  0  0  0  0  0  0  0
   -1.9470    0.8490    1.8110 H   0  0  0  0  0  0  0  0  0  0  0  0
   -5.7060   -1.4060   -0.7970 H   0  0  0  0  0  0  0  0  0  0  0  0
   -4.4970   -2.6960   -0.7030 H   0  0  0  0  0  0  0  0  0  0  0  0
   -5.3580   -2.1810    0.7560 H   0  0  0  0  0  0  0  0  0  0  0  0
   -3.0300   -2.8290    1.8000 H   0  0  0  0  0  0  0  0  0  0  0  0
   -1.4320   -2.6030    1.0720 H   0  0  0  0  0  0  0  0  0  0  0  0
   -1.8380   -1.7810    2.5870 H   0  0  0  0  0  0  0  0  0  0  0  0
  1 25  1  0
  1 23  1  0
  1 24  1  0
  1  2  1  0
  2 27  1  0
  2  3  1  0
  2 26  1  0
  3 28  1  0
  3 29  1  0
  3  4  1  0
  4  5  1  6
  4  7  1  0
  4  6  1  0
  6 30  1  0
  6 32  1  0
  6 31  1  0
  7  8  1  0
  7 33  1  0
  7 34  1  0
  8  9  1  6
  8 10  1  0
  8 11  1  0
 10 36  1  0
 10 35  1  0
 10 37  1  0
 11 39  1  0
 11 12  1  0
 11 38  1  0
 12 14  1  0
 12 15  1  0
 12 13  1  1
 14 40  1  0
 14 41  1  0
 14 42  1  0
 15 16  1  0
 15 21  1  0
 15 43  1  1
 16 17  1  0
 17 18  2  0
 17 19  1  0
 19 20  1  0
 19 21  2  0
 20 44  1  0
 20 45  1  0
 20 46  1  0
 21 22  1  0
 22 48  1  0
 22 47  1  0
 22 49  1  0
M  END
>  <id>  (65) 
165

>  <scaffolds>  (65) 
[]

>  <name>  (65) 
Capensifuranone

>  <formula>  (65) 
C17H30O2

>  <SMILES>  (65) 
CCC[C@H](C)C[C@H](C)C[C@H](C)C1OC(=O)C(C)=C1C

>  <ChEMBL_id>  (65) 


>  <ZINC_id>  (65) 


>  <PubChem_id>  (65) 


>  <DrugBank_id>  (65) 


>  <CAS_no>  (65) 
225926-25-0

>  <references>  (65) 
[{'journal': {'name': 'Thesis, Rhodes University', 'id': 2}, 'title': 'Structural and Synthetic Investigations of South African Marine Natural Products', 'year': 1999, 'start_page': None, 'volume': None, 'issue': None, 'doi': None, 'isbn': None, 'despositor': {'code': 'rah', 'first_name': 'Rowan', 'last_name': 'Hatherley', 'id': 20}, 'refauthors_set': [{'author': {'first_name': 'Denzil', 'initials': 'DR', 'last_name': 'Beukes', 'id': 453}, 'first_author': True, 'id': 618}], 'id': 232}, {'journal': {'name': 'Tetrahedron', 'id': 4}, 'title': 'Novel Polypropionates from the South African Marine Mollusc Siphonaria capensis', 'year': 1999, 'start_page': 4051, 'volume': 55, 'issue': 13, 'doi': '10.1016/S0040-4020(99)00093-9', 'isbn': '', 'despositor': {'code': 'rah', 'first_name': 'Rowan', 'last_name': 'Hatherley', 'id': 20}, 'refauthors_set': [{'author': {'first_name': 'Michael', 'initials': 'MT', 'last_name': 'Davies-Coleman', 'id': 449}, 'first_author': None, 'id': 619}, {'author': {'first_name': 'Denzil', 'initials': 'DR', 'last_name': 'Beukes', 'id': 453}, 'first_author': True, 'id': 620}], 'id': 233}]

>  <classifications>  (65) 
[{'classification': 'Capensifuranone', 'id': 753}, {'classification': 'Polypropionate', 'id': 811}, {'classification': 'Dihydrofurans (Classyfire)', 'id': 953}]

>  <molecular_mass>  (65) 
266.42

$$$$
SANC00166_minRM1.pdb
     RDKit          3D

 45 44  0  0  1  0  0  0  0  0999 V2000
    5.2620    0.4380    2.2040 C   0  0  0  0  0  0  0  0  0  0  0  0
    4.9410    0.5690    0.7230 C   0  0  0  0  0  0  0  0  0  0  0  0
    3.4370    0.4730    0.4890 C   0  0  0  0  0  0  0  0  0  0  0  0
    3.0790    0.4700   -1.0010 C   0  0  2  0  0  0  0  0  0  0  0  0
    3.7050   -0.2930   -1.5300 H   0  0  0  0  0  0  0  0  0  0  0  0
    3.3520    1.8360   -1.6240 C   0  0  0  0  0  0  0  0  0  0  0  0
    1.5970    0.1210   -1.1820 C   0  0  0  0  0  0  0  0  0  0  0  0
    1.2700   -1.3050   -0.7280 C   0  0  2  0  0  0  0  0  0  0  0  0
    1.7890   -1.5090    0.2470 H   0  0  0  0  0  0  0  0  0  0  0  0
    1.7580   -2.3220   -1.7560 C   0  0  0  0  0  0  0  0  0  0  0  0
   -0.2430   -1.4720   -0.5440 C   0  0  0  0  0  0  0  0  0  0  0  0
   -0.7990   -0.5900    0.5810 C   0  0  2  0  0  0  0  0  0  0  0  0
   -0.4070    0.4600    0.4490 H   0  0  0  0  0  0  0  0  0  0  0  0
   -0.3900   -1.0970    1.9610 C   0  0  0  0  0  0  0  0  0  0  0  0
   -2.2930   -0.6120    0.4970 C   0  0  0  0  0  0  0  0  0  0  0  0
   -3.0390    0.4610    0.2130 C   0  0  0  0  0  0  0  0  0  0  0  0
   -2.4990    1.8170   -0.0580 C   0  0  0  0  0  0  0  0  0  0  0  0
   -4.5000    0.2990    0.1610 C   0  0  0  0  0  0  0  0  0  0  0  0
   -5.1520   -0.6810    0.4980 O   0  0  0  0  0  0  0  0  0  0  0  0
   -5.1620    1.3740   -0.3220 O   0  0  0  0  0  0  0  0  0  0  0  0
    4.9460   -0.5310    2.6170 H   0  0  0  0  0  0  0  0  0  0  0  0
    6.3410    0.5250    2.3980 H   0  0  0  0  0  0  0  0  0  0  0  0
    4.7700    1.2140    2.8070 H   0  0  0  0  0  0  0  0  0  0  0  0
    5.3430    1.5280    0.3360 H   0  0  0  0  0  0  0  0  0  0  0  0
    5.4790   -0.2140    0.1470 H   0  0  0  0  0  0  0  0  0  0  0  0
    3.0400   -0.4520    0.9680 H   0  0  0  0  0  0  0  0  0  0  0  0
    2.9130    1.3010    1.0130 H   0  0  0  0  0  0  0  0  0  0  0  0
    4.4170    2.1070   -1.5920 H   0  0  0  0  0  0  0  0  0  0  0  0
    3.0640    1.8720   -2.6850 H   0  0  0  0  0  0  0  0  0  0  0  0
    2.8030    2.6450   -1.1210 H   0  0  0  0  0  0  0  0  0  0  0  0
    0.9720    0.8550   -0.6220 H   0  0  0  0  0  0  0  0  0  0  0  0
    1.2940    0.2600   -2.2420 H   0  0  0  0  0  0  0  0  0  0  0  0
    1.2780   -2.1940   -2.7370 H   0  0  0  0  0  0  0  0  0  0  0  0
    2.8420   -2.2590   -1.9250 H   0  0  0  0  0  0  0  0  0  0  0  0
    1.5580   -3.3570   -1.4400 H   0  0  0  0  0  0  0  0  0  0  0  0
   -0.7640   -1.2340   -1.4970 H   0  0  0  0  0  0  0  0  0  0  0  0
   -0.4920   -2.5360   -0.3500 H   0  0  0  0  0  0  0  0  0  0  0  0
    0.6900   -0.9950    2.1390 H   0  0  0  0  0  0  0  0  0  0  0  0
   -0.8890   -0.5360    2.7640 H   0  0  0  0  0  0  0  0  0  0  0  0
   -0.6390   -2.1570    2.1140 H   0  0  0  0  0  0  0  0  0  0  0  0
   -2.7560   -1.5910    0.6860 H   0  0  0  0  0  0  0  0  0  0  0  0
   -2.7140    2.1350   -1.0900 H   0  0  0  0  0  0  0  0  0  0  0  0
   -2.9430    2.5720    0.6090 H   0  0  0  0  0  0  0  0  0  0  0  0
   -1.4050    1.8750    0.0750 H   0  0  0  0  0  0  0  0  0  0  0  0
   -6.1170    1.2160   -0.3340 H   0  0  0  0  0  0  0  0  0  0  0  0
  1  2  1  0
  1 22  1  0
  1 21  1  0
  1 23  1  0
  2 25  1  0
  2 24  1  0
  2  3  1  0
  3  4  1  0
  3 26  1  0
  3 27  1  0
  4  6  1  0
  4  5  1  6
  4  7  1  0
  6 29  1  0
  6 28  1  0
  6 30  1  0
  7 32  1  0
  7  8  1  0
  7 31  1  0
  8 10  1  0
  8 11  1  0
  8  9  1  1
 10 33  1  0
 10 34  1  0
 10 35  1  0
 11 36  1  0
 11 37  1  0
 11 12  1  0
 12 13  1  6
 12 15  1  0
 12 14  1  0
 14 40  1  0
 14 38  1  0
 14 39  1  0
 15 16  2  0
 15 41  1  0
 16 17  1  0
 16 18  1  0
 17 42  1  0
 17 44  1  0
 17 43  1  0
 18 20  1  0
 18 19  2  0
 20 45  1  0
M  END
>  <id>  (66) 
166

>  <scaffolds>  (66) 
[]

>  <name>  (66) 
Tetramethyl undecenoic acid

>  <formula>  (66) 
C15H28O2

>  <SMILES>  (66) 
CCC[C@H](C)C[C@H](C)C[C@H](C)/C=C(C)/C(=O)O

>  <ChEMBL_id>  (66) 


>  <ZINC_id>  (66) 


>  <PubChem_id>  (66) 


>  <DrugBank_id>  (66) 


>  <CAS_no>  (66) 
225798-15-2

>  <references>  (66) 
[{'journal': {'name': 'Thesis, Rhodes University', 'id': 2}, 'title': 'Structural and Synthetic Investigations of South African Marine Natural Products', 'year': 1999, 'start_page': None, 'volume': None, 'issue': None, 'doi': None, 'isbn': None, 'despositor': {'code': 'rah', 'first_name': 'Rowan', 'last_name': 'Hatherley', 'id': 20}, 'refauthors_set': [{'author': {'first_name': 'Denzil', 'initials': 'DR', 'last_name': 'Beukes', 'id': 453}, 'first_author': True, 'id': 618}], 'id': 232}, {'journal': {'name': 'Tetrahedron', 'id': 4}, 'title': 'Novel Polypropionates from the South African Marine Mollusc Siphonaria capensis', 'year': 1999, 'start_page': 4051, 'volume': 55, 'issue': 13, 'doi': '10.1016/S0040-4020(99)00093-9', 'isbn': '', 'despositor': {'code': 'rah', 'first_name': 'Rowan', 'last_name': 'Hatherley', 'id': 20}, 'refauthors_set': [{'author': {'first_name': 'Michael', 'initials': 'MT', 'last_name': 'Davies-Coleman', 'id': 449}, 'first_author': None, 'id': 619}, {'author': {'first_name': 'Denzil', 'initials': 'DR', 'last_name': 'Beukes', 'id': 453}, 'first_author': True, 'id': 620}], 'id': 233}]

>  <classifications>  (66) 
[{'classification': 'Acyclic', 'id': 736}, {'classification': 'Phenol lipids (Classyfire)', 'id': 951}]

>  <molecular_mass>  (66) 
240.38

$$$$
SANC00167_minRM1.pdb
     RDKit          3D

 54 57  0  0  1  0  0  0  0  0999 V2000
   -5.4890    1.8240    0.4640 C   0  0  0  0  0  0  0  0  0  0  0  0
   -5.0340    0.7370   -0.1480 C   0  0  0  0  0  0  0  0  0  0  0  0
   -3.9770   -0.1290    0.4470 C   0  0  1  0  0  0  0  0  0  0  0  0
   -4.0360   -0.0610    1.5640 H   0  0  0  0  0  0  0  0  0  0  0  0
   -4.0920   -1.6140    0.0360 C   0  0  0  0  0  0  0  0  0  0  0  0
   -2.6570   -2.1340   -0.1720 C   0  0  0  0  0  0  0  0  0  0  0  0
   -1.7690   -1.0060    0.3460 C   0  0  1  0  0  0  0  0  0  0  0  0
   -0.3490   -0.9240   -0.1940 C   0  0  2  0  0  0  0  0  0  0  0  0
    0.4110   -2.2010    0.1590 C   0  0  0  0  0  0  0  0  0  0  0  0
    1.8760   -2.0470   -0.0200 C   0  0  0  0  0  0  0  0  0  0  0  0
    2.4950   -0.8720   -0.1420 C   0  0  0  0  0  0  0  0  0  0  0  0
    3.9680   -0.8310   -0.3750 C   0  0  0  0  0  0  0  0  0  0  0  0
    4.6330    0.1700    0.5800 C   0  0  1  0  0  0  0  0  0  0  0  0
    4.4910   -0.1640    1.6450 H   0  0  0  0  0  0  0  0  0  0  0  0
    5.9920    0.3130    0.2780 O   0  0  0  0  0  0  0  0  0  0  0  0
    4.0160    1.5540    0.3700 C   0  0  0  0  0  0  0  0  0  0  0  0
    2.5280    1.4890    0.6800 C   0  0  0  0  0  0  0  0  0  0  0  0
    1.7710    0.4430   -0.1550 C   0  0  1  0  0  0  0  0  0  0  0  0
    1.6940    0.8980   -1.6140 C   0  0  0  0  0  0  0  0  0  0  0  0
    0.3540    0.2780    0.4530 C   0  0  1  0  0  0  0  0  0  0  0  0
   -0.4590    1.5740    0.3260 C   0  0  0  0  0  0  0  0  0  0  0  0
   -1.9240    1.4230    0.7340 C   0  0  0  0  0  0  0  0  0  0  0  0
   -2.5580    0.2620   -0.0170 C   0  0  2  0  0  0  0  0  0  0  0  0
   -2.5670    0.5390   -1.5170 C   0  0  0  0  0  0  0  0  0  0  0  0
   -5.1480    2.1670    1.4360 H   0  0  0  0  0  0  0  0  0  0  0  0
   -6.2510    2.4700    0.0400 H   0  0  0  0  0  0  0  0  0  0  0  0
   -5.4200    0.4470   -1.1320 H   0  0  0  0  0  0  0  0  0  0  0  0
   -4.6300   -2.1960    0.8080 H   0  0  0  0  0  0  0  0  0  0  0  0
   -4.7020   -1.7550   -0.8780 H   0  0  0  0  0  0  0  0  0  0  0  0
   -2.4760   -3.0890    0.3570 H   0  0  0  0  0  0  0  0  0  0  0  0
   -2.4520   -2.3680   -1.2350 H   0  0  0  0  0  0  0  0  0  0  0  0
   -1.7160   -1.1010    1.4650 H   0  0  0  0  0  0  0  0  0  0  0  0
   -0.3750   -0.8030   -1.3080 H   0  0  0  0  0  0  0  0  0  0  0  0
    0.2160   -2.5150    1.2090 H   0  0  0  0  0  0  0  0  0  0  0  0
    0.0360   -3.0490   -0.4560 H   0  0  0  0  0  0  0  0  0  0  0  0
    2.4360   -2.9900   -0.0330 H   0  0  0  0  0  0  0  0  0  0  0  0
    4.4350   -1.8340   -0.2590 H   0  0  0  0  0  0  0  0  0  0  0  0
    4.1750   -0.5630   -1.4330 H   0  0  0  0  0  0  0  0  0  0  0  0
    6.4180   -0.5330    0.4420 H   0  0  0  0  0  0  0  0  0  0  0  0
    4.5150    2.3030    1.0210 H   0  0  0  0  0  0  0  0  0  0  0  0
    4.2100    1.9220   -0.6590 H   0  0  0  0  0  0  0  0  0  0  0  0
    2.3910    1.2880    1.7640 H   0  0  0  0  0  0  0  0  0  0  0  0
    2.0850    2.4960    0.5230 H   0  0  0  0  0  0  0  0  0  0  0  0
    2.6680    1.1990   -2.0220 H   0  0  0  0  0  0  0  0  0  0  0  0
    1.3180    0.1090   -2.2810 H   0  0  0  0  0  0  0  0  0  0  0  0
    1.0250    1.7650   -1.7460 H   0  0  0  0  0  0  0  0  0  0  0  0
    0.4660    0.0540    1.5470 H   0  0  0  0  0  0  0  0  0  0  0  0
   -0.0000    2.3680    0.9550 H   0  0  0  0  0  0  0  0  0  0  0  0
   -0.3920    1.9840   -0.7070 H   0  0  0  0  0  0  0  0  0  0  0  0
   -2.0030    1.2770    1.8330 H   0  0  0  0  0  0  0  0  0  0  0  0
   -2.4810    2.3650    0.5480 H   0  0  0  0  0  0  0  0  0  0  0  0
   -1.5640    0.4870   -1.9700 H   0  0  0  0  0  0  0  0  0  0  0  0
   -3.1790   -0.1770   -2.0850 H   0  0  0  0  0  0  0  0  0  0  0  0
   -2.9680    1.5370   -1.7460 H   0  0  0  0  0  0  0  0  0  0  0  0
  1  2  2  0
  1 26  1  0
  1 25  1  0
  2 27  1  0
  2  3  1  0
  3 23  1  0
  3  5  1  0
  3  4  1  1
  5 29  1  0
  5  6  1  0
  5 28  1  0
  6 31  1  0
  6  7  1  0
  6 30  1  0
  7  8  1  0
  7 23  1  0
  7 32  1  1
  8 33  1  6
  8  9  1  0
  8 20  1  0
  9 35  1  0
  9 10  1  0
  9 34  1  0
 10 11  2  0
 10 36  1  0
 11 12  1  0
 11 18  1  0
 12 38  1  0
 12 37  1  0
 12 13  1  0
 13 15  1  0
 13 16  1  0
 13 14  1  1
 15 39  1  0
 16 41  1  0
 16 17  1  0
 16 40  1  0
 17 18  1  0
 17 43  1  0
 17 42  1  0
 18 19  1  6
 18 20  1  0
 19 45  1  0
 19 44  1  0
 19 46  1  0
 20 21  1  0
 20 47  1  1
 21 49  1  0
 21 22  1  0
 21 48  1  0
 22 23  1  0
 22 51  1  0
 22 50  1  0
 23 24  1  6
 24 53  1  0
 24 52  1  0
 24 54  1  0
M  END
>  <id>  (67) 
167

>  <scaffolds>  (67) 
['C1=C2CCCCC2C2CCC3CCCC3C2C1', 'C1=CCCCC1', 'C1=CCC2CCCCC2C1', 'C1CCCCC1', 'C1=C2CCCCC2CCC1']

>  <name>  (67) 
Pregna-5,20-dien-3[beta]-ol

>  <formula>  (67) 
C21H32O

>  <SMILES>  (67) 
C=C[C@H]3CCC4C2CC=C1C[C@@H](O)CC[C@]1(C)C2CC[C@]34C

>  <ChEMBL_id>  (67) 


>  <ZINC_id>  (67) 


>  <PubChem_id>  (67) 


>  <DrugBank_id>  (67) 


>  <CAS_no>  (67) 
21321-88-0

>  <references>  (67) 
[{'journal': {'name': 'Thesis, Rhodes University', 'id': 2}, 'title': 'Structural and Synthetic Investigations of South African Marine Natural Products', 'year': 1999, 'start_page': None, 'volume': None, 'issue': None, 'doi': None, 'isbn': None, 'despositor': {'code': 'rah', 'first_name': 'Rowan', 'last_name': 'Hatherley', 'id': 20}, 'refauthors_set': [{'author': {'first_name': 'Denzil', 'initials': 'DR', 'last_name': 'Beukes', 'id': 453}, 'first_author': True, 'id': 618}], 'id': 232}, {'journal': {'name': 'Journal of Natural Products', 'id': 5}, 'title': 'New Polyhydroxylated Pregnadienes from the South African Soft Coral Pieterfaurea unilobata', 'year': 1997, 'start_page': 573, 'volume': 60, 'issue': 6, 'doi': '10.1021/np960684h', 'isbn': '', 'despositor': {'code': 'rah', 'first_name': 'Rowan', 'last_name': 'Hatherley', 'id': 20}, 'refauthors_set': [{'author': {'first_name': 'Michael', 'initials': 'MT', 'last_name': 'Davies-Coleman', 'id': 449}, 'first_author': None, 'id': 626}, {'author': {'first_name': 'Denzil', 'initials': 'DR', 'last_name': 'Beukes', 'id': 453}, 'first_author': True, 'id': 627}, {'author': {'first_name': 'Drake', 'initials': 'DS', 'last_name': 'Eggleston', 'id': 458}, 'first_author': None, 'id': 628}, {'author': {'first_name': '', 'initials': 'RC', 'last_name': 'Haltiwanger', 'id': 459}, 'first_author': None, 'id': 629}, {'author': {'first_name': 'Brian', 'initials': 'B', 'last_name': 'Tomkowicz', 'id': 460}, 'first_author': None, 'id': 630}], 'id': 235}]

>  <classifications>  (67) 
[{'classification': 'Pregnadiene', 'id': 812}, {'classification': 'Steroid', 'id': 835}, {'classification': 'Steroids and steroid derivatives (Classyfire)', 'id': 942}]

>  <molecular_mass>  (67) 
300.48

$$$$
SANC00168_minRM1.pdb
     RDKit          3D

 60 63  0  0  1  0  0  0  0  0999 V2000
    0.0870    0.2110   -1.0930 H   0  0  0  0  0  0  0  0  0  0  0  0
   -0.2550   -0.3330   -0.1720 C   0  0  1  0  0  0  0  0  0  0  0  0
   -1.0850   -1.5410   -0.6320 C   0  0  0  0  0  0  0  0  0  0  0  0
   -2.4560   -1.1780   -1.2000 C   0  0  0  0  0  0  0  0  0  0  0  0
   -3.2050   -0.2860   -0.2220 C   0  0  2  0  0  0  0  0  0  0  0  0
   -3.4670   -1.0250    1.0860 C   0  0  0  0  0  0  0  0  0  0  0  0
   -4.5250    0.3100   -0.7550 C   0  0  1  0  0  0  0  0  0  0  0  0
   -4.3950    0.6010   -1.8290 H   0  0  0  0  0  0  0  0  0  0  0  0
   -5.6710   -0.6380   -0.6420 C   0  0  0  0  0  0  0  0  0  0  0  0
   -6.0390   -1.4280   -1.6440 C   0  0  0  0  0  0  0  0  0  0  0  0
   -4.7050    1.5940    0.0850 C   0  0  0  0  0  0  0  0  0  0  0  0
   -3.3230    1.9430    0.6700 C   0  0  0  0  0  0  0  0  0  0  0  0
   -2.3640    0.9860   -0.0320 C   0  0  1  0  0  0  0  0  0  0  0  0
   -2.1270    1.4180   -1.0420 H   0  0  0  0  0  0  0  0  0  0  0  0
   -1.0590    0.6600    0.6770 C   0  0  2  0  0  0  0  0  0  0  0  0
   -1.2800    0.2160    1.6830 H   0  0  0  0  0  0  0  0  0  0  0  0
   -0.2200    1.9300    0.9060 C   0  0  2  0  0  0  0  0  0  0  0  0
   -0.7250    2.5690    1.6850 H   0  0  0  0  0  0  0  0  0  0  0  0
   -0.1660    2.6330   -0.3060 O   0  0  0  0  0  0  0  0  0  0  0  0
    1.1660    1.5860    1.3630 C   0  0  0  0  0  0  0  0  0  0  0  0
    1.7190    0.3840    1.2110 C   0  0  0  0  0  0  0  0  0  0  0  0
    3.0960    0.1390    1.7360 C   0  0  0  0  0  0  0  0  0  0  0  0
    3.9780   -0.6100    0.7330 C   0  0  2  0  0  0  0  0  0  0  0  0
    4.9680   -0.8580    1.2050 H   0  0  0  0  0  0  0  0  0  0  0  0
    4.1500    0.2970   -0.3420 O   0  0  0  0  0  0  0  0  0  0  0  0
    5.1170    0.0430   -1.2570 C   0  0  0  0  0  0  0  0  0  0  0  0
    5.1210    1.0680   -2.3440 C   0  0  0  0  0  0  0  0  0  0  0  0
    5.8630   -0.9130   -1.1400 O   0  0  0  0  0  0  0  0  0  0  0  0
    3.2790   -1.8790    0.2540 C   0  0  0  0  0  0  0  0  0  0  0  0
    1.9180   -1.5570   -0.3420 C   0  0  0  0  0  0  0  0  0  0  0  0
    0.9970   -0.7940    0.6220 C   0  0  2  0  0  0  0  0  0  0  0  0
    0.5950   -1.6940    1.7940 C   0  0  0  0  0  0  0  0  0  0  0  0
   -0.5210   -2.1030   -1.4090 H   0  0  0  0  0  0  0  0  0  0  0  0
   -1.2050   -2.2810    0.1910 H   0  0  0  0  0  0  0  0  0  0  0  0
   -2.3440   -0.6820   -2.1880 H   0  0  0  0  0  0  0  0  0  0  0  0
   -3.0400   -2.0960   -1.4250 H   0  0  0  0  0  0  0  0  0  0  0  0
   -2.5530   -1.1870    1.6810 H   0  0  0  0  0  0  0  0  0  0  0  0
   -4.1550   -0.4870    1.7540 H   0  0  0  0  0  0  0  0  0  0  0  0
   -3.9120   -2.0150    0.9140 H   0  0  0  0  0  0  0  0  0  0  0  0
   -6.1990   -0.6670    0.3170 H   0  0  0  0  0  0  0  0  0  0  0  0
   -5.5560   -1.4500   -2.6160 H   0  0  0  0  0  0  0  0  0  0  0  0
   -6.8650   -2.1290   -1.5750 H   0  0  0  0  0  0  0  0  0  0  0  0
   -5.1050    2.4190   -0.5360 H   0  0  0  0  0  0  0  0  0  0  0  0
   -5.4580    1.4750    0.8880 H   0  0  0  0  0  0  0  0  0  0  0  0
   -3.0520    3.0040    0.5030 H   0  0  0  0  0  0  0  0  0  0  0  0
   -3.3000    1.8250    1.7710 H   0  0  0  0  0  0  0  0  0  0  0  0
    0.5380    3.2840   -0.2390 H   0  0  0  0  0  0  0  0  0  0  0  0
    1.7130    2.4130    1.8270 H   0  0  0  0  0  0  0  0  0  0  0  0
    3.5980    1.0860    2.0370 H   0  0  0  0  0  0  0  0  0  0  0  0
    3.0360   -0.4450    2.6800 H   0  0  0  0  0  0  0  0  0  0  0  0
    5.2880    2.0790   -1.9430 H   0  0  0  0  0  0  0  0  0  0  0  0
    5.9110    0.8660   -3.0810 H   0  0  0  0  0  0  0  0  0  0  0  0
    4.1600    1.0870   -2.8800 H   0  0  0  0  0  0  0  0  0  0  0  0
    3.9050   -2.4190   -0.4880 H   0  0  0  0  0  0  0  0  0  0  0  0
    3.1960   -2.5940    1.0990 H   0  0  0  0  0  0  0  0  0  0  0  0
    2.0570   -0.9760   -1.2790 H   0  0  0  0  0  0  0  0  0  0  0  0
    1.4350   -2.5040   -0.6660 H   0  0  0  0  0  0  0  0  0  0  0  0
    1.4540   -2.1330    2.3190 H   0  0  0  0  0  0  0  0  0  0  0  0
    0.0160   -1.1510    2.5550 H   0  0  0  0  0  0  0  0  0  0  0  0
   -0.0300   -2.5420    1.4730 H   0  0  0  0  0  0  0  0  0  0  0  0
  2  1  1  6
  2  3  1  0
  2 31  1  0
  2 15  1  0
  3 33  1  0
  3  4  1  0
  3 34  1  0
  4 35  1  0
  4 36  1  0
  4  5  1  0
  5  7  1  0
  5 13  1  0
  5  6  1  1
  6 39  1  0
  6 37  1  0
  6 38  1  0
  7  8  1  6
  7  9  1  0
  7 11  1  0
  9 10  2  0
  9 40  1  0
 10 41  1  0
 10 42  1  0
 11 43  1  0
 11 12  1  0
 11 44  1  0
 12 13  1  0
 12 45  1  0
 12 46  1  0
 13 14  1  6
 13 15  1  0
 15 17  1  0
 15 16  1  1
 17 19  1  0
 17 20  1  0
 17 18  1  1
 19 47  1  0
 20 21  2  0
 20 48  1  0
 21 31  1  0
 21 22  1  0
 22 23  1  0
 22 49  1  0
 22 50  1  0
 23 25  1  0
 23 29  1  0
 23 24  1  1
 25 26  1  0
 26 27  1  0
 26 28  2  0
 27 52  1  0
 27 53  1  0
 27 51  1  0
 29 54  1  0
 29 30  1  0
 29 55  1  0
 30 56  1  0
 30 57  1  0
 30 31  1  0
 31 32  1  1
 32 60  1  0
 32 58  1  0
 32 59  1  0
M  END
>  <id>  (68) 
168

>  <scaffolds>  (68) 
['C1=C2CCCCC2C2CCC3CCCC3C2C1', 'C1=CCCCC1', 'C1=CCC2CCCCC2C1', 'C1CCCCC1', 'C1=C2CCCCC2CCC1']

>  <name>  (68) 
Pregna-5,20-diene-3[alpha],7[alpha]-diol 3[alpha]-acetate

>  <formula>  (68) 
C23H34O3

>  <SMILES>  (68) 
[H][C@]24CC[C@]1(C)[C@@H](C=C)CC[C@@]1([H])[C@]2([H])[C@H](O)C=C3C[C@H](OC(C)=O)CC[C@@]34C

>  <ChEMBL_id>  (68) 


>  <ZINC_id>  (68) 


>  <PubChem_id>  (68) 


>  <DrugBank_id>  (68) 


>  <CAS_no>  (68) 
190451-04-8

>  <references>  (68) 
[{'journal': {'name': 'Thesis, Rhodes University', 'id': 2}, 'title': 'Structural and Synthetic Investigations of South African Marine Natural Products', 'year': 1999, 'start_page': None, 'volume': None, 'issue': None, 'doi': None, 'isbn': None, 'despositor': {'code': 'rah', 'first_name': 'Rowan', 'last_name': 'Hatherley', 'id': 20}, 'refauthors_set': [{'author': {'first_name': 'Denzil', 'initials': 'DR', 'last_name': 'Beukes', 'id': 453}, 'first_author': True, 'id': 618}], 'id': 232}, {'journal': {'name': 'Journal of Natural Products', 'id': 5}, 'title': 'New Polyhydroxylated Pregnadienes from the South African Soft Coral Pieterfaurea unilobata', 'year': 1997, 'start_page': 573, 'volume': 60, 'issue': 6, 'doi': '10.1021/np960684h', 'isbn': '', 'despositor': {'code': 'rah', 'first_name': 'Rowan', 'last_name': 'Hatherley', 'id': 20}, 'refauthors_set': [{'author': {'first_name': 'Michael', 'initials': 'MT', 'last_name': 'Davies-Coleman', 'id': 449}, 'first_author': None, 'id': 626}, {'author': {'first_name': 'Denzil', 'initials': 'DR', 'last_name': 'Beukes', 'id': 453}, 'first_author': True, 'id': 627}, {'author': {'first_name': 'Drake', 'initials': 'DS', 'last_name': 'Eggleston', 'id': 458}, 'first_author': None, 'id': 628}, {'author': {'first_name': '', 'initials': 'RC', 'last_name': 'Haltiwanger', 'id': 459}, 'first_author': None, 'id': 629}, {'author': {'first_name': 'Brian', 'initials': 'B', 'last_name': 'Tomkowicz', 'id': 460}, 'first_author': None, 'id': 630}], 'id': 235}]

>  <classifications>  (68) 
[{'classification': 'Pregnadiene', 'id': 812}, {'classification': 'Steroid', 'id': 835}, {'classification': 'Steroids and steroid derivatives (Classyfire)', 'id': 942}]

>  <molecular_mass>  (68) 
358.51

$$$$
SANC00169_minRM1.pdb
     RDKit          3D

 60 63  0  0  1  0  0  0  0  0999 V2000
   -5.6610   -1.9540   -1.0380 C   0  0  0  0  0  0  0  0  0  0  0  0
   -5.1520   -1.2390   -0.0410 C   0  0  0  0  0  0  0  0  0  0  0  0
   -4.0760   -0.2290   -0.2540 C   0  0  1  0  0  0  0  0  0  0  0  0
   -4.1490    0.1690   -1.3000 H   0  0  0  0  0  0  0  0  0  0  0  0
   -4.1440    0.9590    0.7310 C   0  0  0  0  0  0  0  0  0  0  0  0
   -2.6930    1.3180    1.1020 C   0  0  0  0  0  0  0  0  0  0  0  0
   -1.8420    0.4820    0.1480 C   0  0  1  0  0  0  0  0  0  0  0  0
   -0.4240    0.1510    0.5820 C   0  0  2  0  0  0  0  0  0  0  0  0
    0.4050    1.4240    0.8180 C   0  0  2  0  0  0  0  0  0  0  0  0
    0.0170    1.9590    1.7280 H   0  0  0  0  0  0  0  0  0  0  0  0
    0.2550    2.2330   -0.3410 O   0  0  0  0  0  0  0  0  0  0  0  0
    0.6670    3.5220   -0.2860 C   0  0  0  0  0  0  0  0  0  0  0  0
    0.4840    4.2090   -1.6020 C   0  0  0  0  0  0  0  0  0  0  0  0
    1.1100    4.0050    0.7400 O   0  0  0  0  0  0  0  0  0  0  0  0
    1.8600    1.1170    0.9700 C   0  0  0  0  0  0  0  0  0  0  0  0
    2.4150   -0.0330    0.5890 C   0  0  0  0  0  0  0  0  0  0  0  0
    3.8730   -0.2550    0.8270 C   0  0  0  0  0  0  0  0  0  0  0  0
    4.5430   -0.7950   -0.4410 C   0  0  1  0  0  0  0  0  0  0  0  0
    4.4750   -0.0320   -1.2650 H   0  0  0  0  0  0  0  0  0  0  0  0
    5.8760   -1.0300   -0.0850 O   0  0  0  0  0  0  0  0  0  0  0  0
    3.8550   -2.0960   -0.8650 C   0  0  0  0  0  0  0  0  0  0  0  0
    2.3890   -1.8210   -1.1590 C   0  0  0  0  0  0  0  0  0  0  0  0
    1.6370   -1.1860    0.0220 C   0  0  1  0  0  0  0  0  0  0  0  0
    1.4810   -2.2070    1.1520 C   0  0  0  0  0  0  0  0  0  0  0  0
    0.2500   -0.7140   -0.4920 C   0  0  1  0  0  0  0  0  0  0  0  0
   -0.6110   -1.9120   -0.9210 C   0  0  0  0  0  0  0  0  0  0  0  0
   -2.0710   -1.5630   -1.2020 C   0  0  0  0  0  0  0  0  0  0  0  0
   -2.6630   -0.8060   -0.0230 C   0  0  2  0  0  0  0  0  0  0  0  0
   -2.6630   -1.6770    1.2280 C   0  0  0  0  0  0  0  0  0  0  0  0
   -6.4390   -2.6980   -0.8980 H   0  0  0  0  0  0  0  0  0  0  0  0
   -5.3540   -1.8640   -2.0750 H   0  0  0  0  0  0  0  0  0  0  0  0
   -5.5060   -1.3800    0.9860 H   0  0  0  0  0  0  0  0  0  0  0  0
   -4.6730    1.8180    0.2760 H   0  0  0  0  0  0  0  0  0  0  0  0
   -4.7390    0.7270    1.6360 H   0  0  0  0  0  0  0  0  0  0  0  0
   -2.4910    2.4020    1.0050 H   0  0  0  0  0  0  0  0  0  0  0  0
   -2.4710    1.0930    2.1640 H   0  0  0  0  0  0  0  0  0  0  0  0
   -1.8020    1.0200   -0.8370 H   0  0  0  0  0  0  0  0  0  0  0  0
   -0.4550   -0.4060    1.5570 H   0  0  0  0  0  0  0  0  0  0  0  0
   -0.5660    4.1830   -1.9280 H   0  0  0  0  0  0  0  0  0  0  0  0
    0.7920    5.2630   -1.5470 H   0  0  0  0  0  0  0  0  0  0  0  0
    1.0810    3.7260   -2.3900 H   0  0  0  0  0  0  0  0  0  0  0  0
    2.4550    1.9220    1.4170 H   0  0  0  0  0  0  0  0  0  0  0  0
    4.3920    0.6730    1.1540 H   0  0  0  0  0  0  0  0  0  0  0  0
    4.0170   -0.9510    1.6830 H   0  0  0  0  0  0  0  0  0  0  0  0
    6.3390   -1.3260   -0.8740 H   0  0  0  0  0  0  0  0  0  0  0  0
    4.3490   -2.5280   -1.7620 H   0  0  0  0  0  0  0  0  0  0  0  0
    3.9820   -2.8780   -0.0880 H   0  0  0  0  0  0  0  0  0  0  0  0
    2.3140   -1.1690   -2.0560 H   0  0  0  0  0  0  0  0  0  0  0  0
    1.8980   -2.7710   -1.4590 H   0  0  0  0  0  0  0  0  0  0  0  0
    2.4340   -2.6580    1.4620 H   0  0  0  0  0  0  0  0  0  0  0  0
    1.0470   -1.7610    2.0600 H   0  0  0  0  0  0  0  0  0  0  0  0
    0.8230   -3.0450    0.8700 H   0  0  0  0  0  0  0  0  0  0  0  0
    0.4050   -0.0700   -1.3980 H   0  0  0  0  0  0  0  0  0  0  0  0
   -0.1780   -2.3690   -1.8380 H   0  0  0  0  0  0  0  0  0  0  0  0
   -0.5590   -2.7310   -0.1690 H   0  0  0  0  0  0  0  0  0  0  0  0
   -2.1520   -0.9710   -2.1390 H   0  0  0  0  0  0  0  0  0  0  0  0
   -2.6570   -2.4830   -1.4150 H   0  0  0  0  0  0  0  0  0  0  0  0
   -1.6540   -1.8460    1.6360 H   0  0  0  0  0  0  0  0  0  0  0  0
   -3.2420   -1.2430    2.0560 H   0  0  0  0  0  0  0  0  0  0  0  0
   -3.0960   -2.6700    1.0350 H   0  0  0  0  0  0  0  0  0  0  0  0
  1 31  1  0
  1 30  1  0
  1  2  2  0
  2  3  1  0
  2 32  1  0
  3  4  1  6
  3 28  1  0
  3  5  1  0
  5 33  1  0
  5  6  1  0
  5 34  1  0
  6  7  1  0
  6 35  1  0
  6 36  1  0
  7 37  1  6
  7 28  1  0
  7  8  1  0
  8 25  1  0
  8  9  1  0
  8 38  1  1
  9 11  1  0
  9 15  1  0
  9 10  1  1
 11 12  1  0
 12 13  1  0
 12 14  2  0
 13 41  1  0
 13 39  1  0
 13 40  1  0
 15 16  2  0
 15 42  1  0
 16 23  1  0
 16 17  1  0
 17 18  1  0
 17 43  1  0
 17 44  1  0
 18 19  1  6
 18 21  1  0
 18 20  1  0
 20 45  1  0
 21 46  1  0
 21 22  1  0
 21 47  1  0
 22 48  1  0
 22 49  1  0
 22 23  1  0
 23 25  1  0
 23 24  1  1
 24 52  1  0
 24 50  1  0
 24 51  1  0
 25 53  1  6
 25 26  1  0
 26 54  1  0
 26 27  1  0
 26 55  1  0
 27 56  1  0
 27 57  1  0
 27 28  1  0
 28 29  1  1
 29 60  1  0
 29 58  1  0
 29 59  1  0
M  END
>  <id>  (69) 
169

>  <scaffolds>  (69) 
['C1=C2CCCCC2C2CCC3CCCC3C2C1', 'C1=CCCCC1', 'C1=CCC2CCCCC2C1', 'C1CCCCC1', 'C1=C2CCCCC2CCC1']

>  <name>  (69) 
Pregna-5,20-diene-3[beta],7[alpha]-diol 7[alpha]-acetate

>  <formula>  (69) 
C23H34O3

>  <SMILES>  (69) 
C=C[C@H]3CCC4C2[C@H](OC(C)=O)C=C1C[C@@H](O)CC[C@]1(C)C2CC[C@]34C

>  <ChEMBL_id>  (69) 


>  <ZINC_id>  (69) 


>  <PubChem_id>  (69) 


>  <DrugBank_id>  (69) 


>  <CAS_no>  (69) 
190451-05-9

>  <references>  (69) 
[{'journal': {'name': 'Thesis, Rhodes University', 'id': 2}, 'title': 'Structural and Synthetic Investigations of South African Marine Natural Products', 'year': 1999, 'start_page': None, 'volume': None, 'issue': None, 'doi': None, 'isbn': None, 'despositor': {'code': 'rah', 'first_name': 'Rowan', 'last_name': 'Hatherley', 'id': 20}, 'refauthors_set': [{'author': {'first_name': 'Denzil', 'initials': 'DR', 'last_name': 'Beukes', 'id': 453}, 'first_author': True, 'id': 618}], 'id': 232}, {'journal': {'name': 'Journal of Natural Products', 'id': 5}, 'title': 'New Polyhydroxylated Pregnadienes from the South African Soft Coral Pieterfaurea unilobata', 'year': 1997, 'start_page': 573, 'volume': 60, 'issue': 6, 'doi': '10.1021/np960684h', 'isbn': '', 'despositor': {'code': 'rah', 'first_name': 'Rowan', 'last_name': 'Hatherley', 'id': 20}, 'refauthors_set': [{'author': {'first_name': 'Michael', 'initials': 'MT', 'last_name': 'Davies-Coleman', 'id': 449}, 'first_author': None, 'id': 626}, {'author': {'first_name': 'Denzil', 'initials': 'DR', 'last_name': 'Beukes', 'id': 453}, 'first_author': True, 'id': 627}, {'author': {'first_name': 'Drake', 'initials': 'DS', 'last_name': 'Eggleston', 'id': 458}, 'first_author': None, 'id': 628}, {'author': {'first_name': '', 'initials': 'RC', 'last_name': 'Haltiwanger', 'id': 459}, 'first_author': None, 'id': 629}, {'author': {'first_name': 'Brian', 'initials': 'B', 'last_name': 'Tomkowicz', 'id': 460}, 'first_author': None, 'id': 630}], 'id': 235}]

>  <classifications>  (69) 
[{'classification': 'Pregnadiene', 'id': 812}, {'classification': 'Steroid', 'id': 835}, {'classification': 'Steroids and steroid derivatives (Classyfire)', 'id': 942}]

>  <molecular_mass>  (69) 
358.51

$$$$
SANC00170_minRM1.pdb
     RDKit          3D

 61 64  0  0  1  0  0  0  0  0999 V2000
   -6.0210    1.5230    1.2940 C   0  0  0  0  0  0  0  0  0  0  0  0
   -5.6550    0.5990    0.4150 C   0  0  0  0  0  0  0  0  0  0  0  0
   -4.5270   -0.3420    0.6740 C   0  0  1  0  0  0  0  0  0  0  0  0
   -4.4440   -0.5160    1.7780 H   0  0  0  0  0  0  0  0  0  0  0  0
   -4.6880   -1.7070   -0.0290 C   0  0  0  0  0  0  0  0  0  0  0  0
   -3.2860   -2.1350   -0.5010 C   0  0  0  0  0  0  0  0  0  0  0  0
   -2.3430   -1.1060    0.1200 C   0  0  1  0  0  0  0  0  0  0  0  0
   -1.0200   -0.8720   -0.5820 C   0  0  2  0  0  0  0  0  0  0  0  0
   -0.1900   -2.1700   -0.6380 C   0  0  2  0  0  0  0  0  0  0  0  0
   -0.7010   -2.9070   -1.3180 H   0  0  0  0  0  0  0  0  0  0  0  0
   -0.1650   -2.7410    0.6430 O   0  0  0  0  0  0  0  0  0  0  0  0
    1.1910   -1.8910   -1.1410 C   0  0  0  0  0  0  0  0  0  0  0  0
    1.7360   -0.6740   -1.1790 C   0  0  0  0  0  0  0  0  0  0  0  0
    3.1030   -0.5180   -1.7610 C   0  0  0  0  0  0  0  0  0  0  0  0
    3.9970    0.3860   -0.9100 C   0  0  2  0  0  0  0  0  0  0  0  0
    4.9890    0.5370   -1.4180 H   0  0  0  0  0  0  0  0  0  0  0  0
    4.1640   -0.3120    0.3110 O   0  0  0  0  0  0  0  0  0  0  0  0
    5.1100    0.1270    1.1780 C   0  0  0  0  0  0  0  0  0  0  0  0
    5.0890   -0.6570    2.4510 C   0  0  0  0  0  0  0  0  0  0  0  0
    5.8620    1.0380    0.8850 O   0  0  0  0  0  0  0  0  0  0  0  0
    3.2990    1.7220   -0.6760 C   0  0  0  0  0  0  0  0  0  0  0  0
    1.9480    1.5250   -0.0040 C   0  0  0  0  0  0  0  0  0  0  0  0
    1.0100    0.5750   -0.7610 C   0  0  1  0  0  0  0  0  0  0  0  0
    0.5170    1.2510   -2.0450 C   0  0  0  0  0  0  0  0  0  0  0  0
   -0.2000    0.2030    0.1480 C   0  0  1  0  0  0  0  0  0  0  0  0
   -1.0360    1.4540    0.5250 C   0  0  2  0  0  0  0  0  0  0  0  0
   -1.0980    2.1500   -0.3600 H   0  0  0  0  0  0  0  0  0  0  0  0
   -0.3280    2.0590    1.5760 O   0  0  0  0  0  0  0  0  0  0  0  0
   -2.4640    1.1650    1.0400 C   0  0  0  0  0  0  0  0  0  0  0  0
   -3.1780    0.1820    0.1320 C   0  0  2  0  0  0  0  0  0  0  0  0
   -3.3840    0.7820   -1.2540 C   0  0  0  0  0  0  0  0  0  0  0  0
   -5.5490    1.6670    2.2610 H   0  0  0  0  0  0  0  0  0  0  0  0
   -6.8330    2.2220    1.1210 H   0  0  0  0  0  0  0  0  0  0  0  0
   -6.1700    0.5040   -0.5480 H   0  0  0  0  0  0  0  0  0  0  0  0
   -5.1350   -2.4530    0.6560 H   0  0  0  0  0  0  0  0  0  0  0  0
   -5.3970   -1.6640   -0.8780 H   0  0  0  0  0  0  0  0  0  0  0  0
   -3.0360   -3.1680   -0.1910 H   0  0  0  0  0  0  0  0  0  0  0  0
   -3.2130   -2.1530   -1.6060 H   0  0  0  0  0  0  0  0  0  0  0  0
   -2.1380   -1.4200    1.1790 H   0  0  0  0  0  0  0  0  0  0  0  0
   -1.2090   -0.5520   -1.6430 H   0  0  0  0  0  0  0  0  0  0  0  0
    0.7280   -3.0480    0.8300 H   0  0  0  0  0  0  0  0  0  0  0  0
    1.7400   -2.7760   -1.4810 H   0  0  0  0  0  0  0  0  0  0  0  0
    3.6030   -1.5000   -1.9130 H   0  0  0  0  0  0  0  0  0  0  0  0
    3.0210   -0.0930   -2.7860 H   0  0  0  0  0  0  0  0  0  0  0  0
    5.2520   -1.7280    2.2670 H   0  0  0  0  0  0  0  0  0  0  0  0
    5.8690   -0.3130    3.1460 H   0  0  0  0  0  0  0  0  0  0  0  0
    4.1200   -0.5590    2.9620 H   0  0  0  0  0  0  0  0  0  0  0  0
    3.9320    2.4000   -0.0640 H   0  0  0  0  0  0  0  0  0  0  0  0
    3.2000    2.2570   -1.6440 H   0  0  0  0  0  0  0  0  0  0  0  0
    2.1000    1.1610    1.0340 H   0  0  0  0  0  0  0  0  0  0  0  0
    1.4780    2.5250    0.1070 H   0  0  0  0  0  0  0  0  0  0  0  0
    1.3310    1.5720   -2.7070 H   0  0  0  0  0  0  0  0  0  0  0  0
   -0.1250    0.5810   -2.6410 H   0  0  0  0  0  0  0  0  0  0  0  0
   -0.0820    2.1520   -1.8310 H   0  0  0  0  0  0  0  0  0  0  0  0
    0.1920   -0.2480    1.0980 H   0  0  0  0  0  0  0  0  0  0  0  0
   -0.7670    2.8890    1.7870 H   0  0  0  0  0  0  0  0  0  0  0  0
   -2.4220    0.7790    2.0820 H   0  0  0  0  0  0  0  0  0  0  0  0
   -3.0410    2.1090    1.1260 H   0  0  0  0  0  0  0  0  0  0  0  0
   -2.4440    0.9390   -1.8050 H   0  0  0  0  0  0  0  0  0  0  0  0
   -4.0040    0.1500   -1.9060 H   0  0  0  0  0  0  0  0  0  0  0  0
   -3.8850    1.7610   -1.2060 H   0  0  0  0  0  0  0  0  0  0  0  0
  1  2  2  0
  1 33  1  0
  1 32  1  0
  2 34  1  0
  2  3  1  0
  3  5  1  0
  3 30  1  0
  3  4  1  1
  5 36  1  0
  5  6  1  0
  5 35  1  0
  6 38  1  0
  6 37  1  0
  6  7  1  0
  7  8  1  0
  7 30  1  0
  7 39  1  1
  8 40  1  6
  8  9  1  0
  8 25  1  0
  9 10  1  6
  9 12  1  0
  9 11  1  0
 11 41  1  0
 12 42  1  0
 12 13  2  0
 13 14  1  0
 13 23  1  0
 14 44  1  0
 14 43  1  0
 14 15  1  0
 15 16  1  6
 15 21  1  0
 15 17  1  0
 17 18  1  0
 18 20  2  0
 18 19  1  0
 19 45  1  0
 19 47  1  0
 19 46  1  0
 21 49  1  0
 21 48  1  0
 21 22  1  0
 22 23  1  0
 22 51  1  0
 22 50  1  0
 23 24  1  6
 23 25  1  0
 24 52  1  0
 24 53  1  0
 24 54  1  0
 25 26  1  0
 25 55  1  1
 26 27  1  6
 26 29  1  0
 26 28  1  0
 28 56  1  0
 29 30  1  0
 29 58  1  0
 29 57  1  0
 30 31  1  6
 31 60  1  0
 31 59  1  0
 31 61  1  0
M  END
>  <id>  (70) 
170

>  <scaffolds>  (70) 
['C1=C2CCCCC2C2CCC3CCCC3C2C1', 'C1=CCCCC1', 'C1=CCC2CCCCC2C1', 'C1CCCCC1', 'C1=C2CCCCC2CCC1']

>  <name>  (70) 
Pregna-5,20-diene-3[alpha],7[alpha],11[alpha]-triol 3[alpha]-acetate

>  <formula>  (70) 
C23H34O4

>  <SMILES>  (70) 
C=C[C@H]3CCC4C2[C@H](O)C=C1C[C@H](OC(C)=O)CC[C@]1(C)C2[C@H](O)C[C@]34C

>  <ChEMBL_id>  (70) 


>  <ZINC_id>  (70) 


>  <PubChem_id>  (70) 


>  <DrugBank_id>  (70) 


>  <CAS_no>  (70) 
190451-06-0

>  <references>  (70) 
[{'journal': {'name': 'Thesis, Rhodes University', 'id': 2}, 'title': 'Structural and Synthetic Investigations of South African Marine Natural Products', 'year': 1999, 'start_page': None, 'volume': None, 'issue': None, 'doi': None, 'isbn': None, 'despositor': {'code': 'rah', 'first_name': 'Rowan', 'last_name': 'Hatherley', 'id': 20}, 'refauthors_set': [{'author': {'first_name': 'Denzil', 'initials': 'DR', 'last_name': 'Beukes', 'id': 453}, 'first_author': True, 'id': 618}], 'id': 232}, {'journal': {'name': 'Journal of Natural Products', 'id': 5}, 'title': 'New Polyhydroxylated Pregnadienes from the South African Soft Coral Pieterfaurea unilobata', 'year': 1997, 'start_page': 573, 'volume': 60, 'issue': 6, 'doi': '10.1021/np960684h', 'isbn': '', 'despositor': {'code': 'rah', 'first_name': 'Rowan', 'last_name': 'Hatherley', 'id': 20}, 'refauthors_set': [{'author': {'first_name': 'Michael', 'initials': 'MT', 'last_name': 'Davies-Coleman', 'id': 449}, 'first_author': None, 'id': 626}, {'author': {'first_name': 'Denzil', 'initials': 'DR', 'last_name': 'Beukes', 'id': 453}, 'first_author': True, 'id': 627}, {'author': {'first_name': 'Drake', 'initials': 'DS', 'last_name': 'Eggleston', 'id': 458}, 'first_author': None, 'id': 628}, {'author': {'first_name': '', 'initials': 'RC', 'last_name': 'Haltiwanger', 'id': 459}, 'first_author': None, 'id': 629}, {'author': {'first_name': 'Brian', 'initials': 'B', 'last_name': 'Tomkowicz', 'id': 460}, 'first_author': None, 'id': 630}], 'id': 235}]

>  <classifications>  (70) 
[{'classification': 'Pregnadiene', 'id': 812}, {'classification': 'Steroid', 'id': 835}, {'classification': 'Steroids and steroid derivatives (Classyfire)', 'id': 942}]

>  <molecular_mass>  (70) 
374.51

$$$$
SANC00171_minRM1.pdb
     RDKit          3D

 66 69  0  0  1  0  0  0  0  0999 V2000
   -2.1630   -1.1850    0.8740 H   0  0  0  0  0  0  0  0  0  0  0  0
   -2.3750   -0.6800   -0.1060 C   0  0  2  0  0  0  0  0  0  0  0  0
   -3.3080   -1.5820   -0.9120 C   0  0  0  0  0  0  0  0  0  0  0  0
   -4.7100   -1.2790   -0.3550 C   0  0  0  0  0  0  0  0  0  0  0  0
   -4.5660   -0.0620    0.5850 C   0  0  2  0  0  0  0  0  0  0  0  0
   -4.4750   -0.4350    1.6390 H   0  0  0  0  0  0  0  0  0  0  0  0
   -5.7110    0.8890    0.5020 C   0  0  0  0  0  0  0  0  0  0  0  0
   -6.1370    1.5820    1.5510 C   0  0  0  0  0  0  0  0  0  0  0  0
   -3.2260    0.5720    0.1490 C   0  0  2  0  0  0  0  0  0  0  0  0
   -3.4410    1.4170   -1.1010 C   0  0  0  0  0  0  0  0  0  0  0  0
   -2.5190    1.3740    1.2240 C   0  0  0  0  0  0  0  0  0  0  0  0
   -1.1000    1.7750    0.7680 C   0  0  1  0  0  0  0  0  0  0  0  0
   -1.1780    2.6190    0.0240 H   0  0  0  0  0  0  0  0  0  0  0  0
   -0.3990    2.1880    1.9130 O   0  0  0  0  0  0  0  0  0  0  0  0
   -0.2460    0.6280    0.1670 C   0  0  1  0  0  0  0  0  0  0  0  0
    0.1520    0.0150    1.0190 H   0  0  0  0  0  0  0  0  0  0  0  0
   -1.0580   -0.2970   -0.7530 C   0  0  1  0  0  0  0  0  0  0  0  0
   -1.2600    0.2260   -1.7290 H   0  0  0  0  0  0  0  0  0  0  0  0
   -0.2190   -1.5420   -1.0880 C   0  0  2  0  0  0  0  0  0  0  0  0
   -0.7310   -2.1340   -1.8970 H   0  0  0  0  0  0  0  0  0  0  0  0
   -0.1250   -2.3070    0.1050 O   0  0  0  0  0  0  0  0  0  0  0  0
    0.3580   -3.5700    0.0270 C   0  0  0  0  0  0  0  0  0  0  0  0
    0.4590   -4.1980    1.3800 C   0  0  0  0  0  0  0  0  0  0  0  0
    0.6400   -4.0780   -1.0440 O   0  0  0  0  0  0  0  0  0  0  0  0
    1.1630   -1.1660   -1.5120 C   0  0  0  0  0  0  0  0  0  0  0  0
    1.6950    0.0390   -1.3060 C   0  0  0  0  0  0  0  0  0  0  0  0
    3.0590    0.3200   -1.8470 C   0  0  0  0  0  0  0  0  0  0  0  0
    3.9480    1.0560   -0.8430 C   0  0  2  0  0  0  0  0  0  0  0  0
    4.9310    1.3190   -1.3220 H   0  0  0  0  0  0  0  0  0  0  0  0
    4.1390    0.1370    0.2180 O   0  0  0  0  0  0  0  0  0  0  0  0
    5.1100    0.3930    1.1270 C   0  0  0  0  0  0  0  0  0  0  0  0
    5.1350   -0.6420    2.2060 C   0  0  0  0  0  0  0  0  0  0  0  0
    5.8450    1.3580    1.0140 O   0  0  0  0  0  0  0  0  0  0  0  0
    3.2380    2.3090   -0.3450 C   0  0  0  0  0  0  0  0  0  0  0  0
    1.8900    1.9690    0.2740 C   0  0  0  0  0  0  0  0  0  0  0  0
    0.9590    1.1770   -0.6530 C   0  0  2  0  0  0  0  0  0  0  0  0
    0.4600    2.0830   -1.7840 C   0  0  0  0  0  0  0  0  0  0  0  0
   -3.2460   -1.3800   -2.0000 H   0  0  0  0  0  0  0  0  0  0  0  0
   -3.0420   -2.6530   -0.8170 H   0  0  0  0  0  0  0  0  0  0  0  0
   -5.4340   -1.0990   -1.1740 H   0  0  0  0  0  0  0  0  0  0  0  0
   -5.1320   -2.1480    0.1870 H   0  0  0  0  0  0  0  0  0  0  0  0
   -6.1920    1.0030   -0.4760 H   0  0  0  0  0  0  0  0  0  0  0  0
   -5.7060    1.5150    2.5460 H   0  0  0  0  0  0  0  0  0  0  0  0
   -6.9650    2.2820    1.5040 H   0  0  0  0  0  0  0  0  0  0  0  0
   -3.9080    2.3850   -0.8670 H   0  0  0  0  0  0  0  0  0  0  0  0
   -2.5060    1.6410   -1.6370 H   0  0  0  0  0  0  0  0  0  0  0  0
   -4.0910    0.9300   -1.8420 H   0  0  0  0  0  0  0  0  0  0  0  0
   -3.1080    2.2780    1.4910 H   0  0  0  0  0  0  0  0  0  0  0  0
   -2.4660    0.8000    2.1750 H   0  0  0  0  0  0  0  0  0  0  0  0
   -0.8280    2.9800    2.2500 H   0  0  0  0  0  0  0  0  0  0  0  0
   -0.5120   -4.2030    1.8970 H   0  0  0  0  0  0  0  0  0  0  0  0
    0.8080   -5.2380    1.3120 H   0  0  0  0  0  0  0  0  0  0  0  0
    1.1650   -3.6490    2.0210 H   0  0  0  0  0  0  0  0  0  0  0  0
    1.7220   -1.9650   -2.0130 H   0  0  0  0  0  0  0  0  0  0  0  0
    3.5690   -0.6090   -2.1840 H   0  0  0  0  0  0  0  0  0  0  0  0
    2.9680    0.9320   -2.7720 H   0  0  0  0  0  0  0  0  0  0  0  0
    5.2410   -1.6560    1.7930 H   0  0  0  0  0  0  0  0  0  0  0  0
    5.9700   -0.4740    2.9010 H   0  0  0  0  0  0  0  0  0  0  0  0
    4.2020   -0.6260    2.7920 H   0  0  0  0  0  0  0  0  0  0  0  0
    3.8660    2.8550    0.3910 H   0  0  0  0  0  0  0  0  0  0  0  0
    3.1320    3.0270   -1.1850 H   0  0  0  0  0  0  0  0  0  0  0  0
    2.0490    1.4090    1.2200 H   0  0  0  0  0  0  0  0  0  0  0  0
    1.4110    2.9230    0.5800 H   0  0  0  0  0  0  0  0  0  0  0  0
    1.2720    2.5470   -2.3580 H   0  0  0  0  0  0  0  0  0  0  0  0
   -0.1570    1.5300   -2.5100 H   0  0  0  0  0  0  0  0  0  0  0  0
   -0.1640    2.9090   -1.4060 H   0  0  0  0  0  0  0  0  0  0  0  0
  2  1  1  1
  2  3  1  0
  2 17  1  0
  2  9  1  0
  3 38  1  0
  3 39  1  0
  3  4  1  0
  4 40  1  0
  4 41  1  0
  4  5  1  0
  5  9  1  0
  5  7  1  0
  5  6  1  1
  7 42  1  0
  7  8  2  0
  8 44  1  0
  8 43  1  0
  9 10  1  6
  9 11  1  0
 10 47  1  0
 10 46  1  0
 10 45  1  0
 11 12  1  0
 11 48  1  0
 11 49  1  0
 12 13  1  6
 12 15  1  0
 12 14  1  0
 14 50  1  0
 15 17  1  0
 15 36  1  0
 15 16  1  1
 17 18  1  6
 17 19  1  0
 19 20  1  6
 19 25  1  0
 19 21  1  0
 21 22  1  0
 22 24  2  0
 22 23  1  0
 23 52  1  0
 23 51  1  0
 23 53  1  0
 25 54  1  0
 25 26  2  0
 26 27  1  0
 26 36  1  0
 27 56  1  0
 27 55  1  0
 27 28  1  0
 28 29  1  6
 28 34  1  0
 28 30  1  0
 30 31  1  0
 31 33  2  0
 31 32  1  0
 32 57  1  0
 32 59  1  0
 32 58  1  0
 34 61  1  0
 34 35  1  0
 34 60  1  0
 35 36  1  0
 35 63  1  0
 35 62  1  0
 36 37  1  6
 37 65  1  0
 37 64  1  0
 37 66  1  0
M  END
>  <id>  (71) 
171

>  <scaffolds>  (71) 
['C1=C2CCCCC2C2CCC3CCCC3C2C1', 'C1=CCCCC1', 'C1=CCC2CCCCC2C1', 'C1CCCCC1', 'C1=C2CCCCC2CCC1']

>  <name>  (71) 
Pregna-5,20-diene-3[alpha],7[alpha],11[alpha]-triol 3[alpha],7[alpha]-diacetate

>  <formula>  (71) 
C25H36O5

>  <SMILES>  (71) 
[H][C@@]12CC[C@H](C=C)[C@@]1(C)C[C@@H](O)[C@@]4([H])[C@@]2([H])[C@H](OC(C)=O)C=C3C[C@H](OC(C)=O)CC[C@@]34C

>  <ChEMBL_id>  (71) 


>  <ZINC_id>  (71) 


>  <PubChem_id>  (71) 


>  <DrugBank_id>  (71) 


>  <CAS_no>  (71) 
190451-07-1

>  <references>  (71) 
[{'journal': {'name': 'Thesis, Rhodes University', 'id': 2}, 'title': 'Structural and Synthetic Investigations of South African Marine Natural Products', 'year': 1999, 'start_page': None, 'volume': None, 'issue': None, 'doi': None, 'isbn': None, 'despositor': {'code': 'rah', 'first_name': 'Rowan', 'last_name': 'Hatherley', 'id': 20}, 'refauthors_set': [{'author': {'first_name': 'Denzil', 'initials': 'DR', 'last_name': 'Beukes', 'id': 453}, 'first_author': True, 'id': 618}], 'id': 232}, {'journal': {'name': 'Journal of Natural Products', 'id': 5}, 'title': 'New Polyhydroxylated Pregnadienes from the South African Soft Coral Pieterfaurea unilobata', 'year': 1997, 'start_page': 573, 'volume': 60, 'issue': 6, 'doi': '10.1021/np960684h', 'isbn': '', 'despositor': {'code': 'rah', 'first_name': 'Rowan', 'last_name': 'Hatherley', 'id': 20}, 'refauthors_set': [{'author': {'first_name': 'Michael', 'initials': 'MT', 'last_name': 'Davies-Coleman', 'id': 449}, 'first_author': None, 'id': 626}, {'author': {'first_name': 'Denzil', 'initials': 'DR', 'last_name': 'Beukes', 'id': 453}, 'first_author': True, 'id': 627}, {'author': {'first_name': 'Drake', 'initials': 'DS', 'last_name': 'Eggleston', 'id': 458}, 'first_author': None, 'id': 628}, {'author': {'first_name': '', 'initials': 'RC', 'last_name': 'Haltiwanger', 'id': 459}, 'first_author': None, 'id': 629}, {'author': {'first_name': 'Brian', 'initials': 'B', 'last_name': 'Tomkowicz', 'id': 460}, 'first_author': None, 'id': 630}], 'id': 235}]

>  <classifications>  (71) 
[{'classification': 'Pregnadiene', 'id': 812}, {'classification': 'Steroid', 'id': 835}, {'classification': 'Steroids and steroid derivatives (Classyfire)', 'id': 942}]

>  <molecular_mass>  (71) 
416.55

$$$$
SANC00172_minRM1.pdb
     RDKit          3D

 66 69  0  0  1  0  0  0  0  0999 V2000
    1.9330    2.4110   -0.1920 H   0  0  0  0  0  0  0  0  0  0  0  0
    2.2650    1.3920   -0.5320 C   0  0  2  0  0  0  0  0  0  0  0  0
    3.2190    1.5870   -1.7090 C   0  0  0  0  0  0  0  0  0  0  0  0
    4.5600    1.9570   -1.0480 C   0  0  0  0  0  0  0  0  0  0  0  0
    4.3970    1.7090    0.4690 C   0  0  2  0  0  0  0  0  0  0  0  0
    4.1580    2.6840    0.9670 H   0  0  0  0  0  0  0  0  0  0  0  0
    5.6070    1.1210    1.1130 C   0  0  0  0  0  0  0  0  0  0  0  0
    5.9060    1.3400    2.3880 C   0  0  0  0  0  0  0  0  0  0  0  0
    3.1690    0.7780    0.5490 C   0  0  2  0  0  0  0  0  0  0  0  0
    3.5870   -0.6530    0.2250 C   0  0  0  0  0  0  0  0  0  0  0  0
    2.4030    0.8310    1.8630 C   0  0  0  0  0  0  0  0  0  0  0  0
    1.1140    0.0220    1.7420 C   0  0  0  0  0  0  0  0  0  0  0  0
    0.2400    0.4360    0.5490 C   0  0  1  0  0  0  0  0  0  0  0  0
   -0.1470    1.4680    0.7670 H   0  0  0  0  0  0  0  0  0  0  0  0
    1.0350    0.5250   -0.7590 C   0  0  1  0  0  0  0  0  0  0  0  0
    1.3590   -0.4950   -1.0910 H   0  0  0  0  0  0  0  0  0  0  0  0
    0.1390    1.1190   -1.8620 C   0  0  2  0  0  0  0  0  0  0  0  0
    0.6660    1.0260   -2.8540 H   0  0  0  0  0  0  0  0  0  0  0  0
   -0.0680    2.4740   -1.5620 O   0  0  0  0  0  0  0  0  0  0  0  0
   -1.1800    0.4090   -1.9250 C   0  0  0  0  0  0  0  0  0  0  0  0
   -1.6860   -0.2930   -0.9140 C   0  0  0  0  0  0  0  0  0  0  0  0
   -3.0000   -0.9870   -1.0730 C   0  0  0  0  0  0  0  0  0  0  0  0
   -3.9530   -0.6950    0.0920 C   0  0  2  0  0  0  0  0  0  0  0  0
   -4.8810   -1.3230   -0.0070 H   0  0  0  0  0  0  0  0  0  0  0  0
   -4.2630    0.6820   -0.0330 O   0  0  0  0  0  0  0  0  0  0  0  0
   -5.3110    1.1780    0.6710 C   0  0  0  0  0  0  0  0  0  0  0  0
   -5.4870    2.6440    0.4360 C   0  0  0  0  0  0  0  0  0  0  0  0
   -5.9950    0.4580    1.3750 O   0  0  0  0  0  0  0  0  0  0  0  0
   -3.2650   -0.9660    1.4280 C   0  0  0  0  0  0  0  0  0  0  0  0
   -1.9690   -0.1770    1.5380 C   0  0  0  0  0  0  0  0  0  0  0  0
   -0.9850   -0.5040    0.3950 C   0  0  2  0  0  0  0  0  0  0  0  0
   -0.6210   -2.0020    0.5200 C   0  0  0  0  0  0  0  0  0  0  0  0
   -0.0480   -2.3970   -0.7120 O   0  0  0  0  0  0  0  0  0  0  0  0
    0.3620   -3.6860   -0.8280 C   0  0  0  0  0  0  0  0  0  0  0  0
    0.9820   -3.9620   -2.1600 C   0  0  0  0  0  0  0  0  0  0  0  0
    0.2020   -4.4730    0.0890 O   0  0  0  0  0  0  0  0  0  0  0  0
    3.3040    0.6750   -2.3320 H   0  0  0  0  0  0  0  0  0  0  0  0
    2.8660    2.3680   -2.4100 H   0  0  0  0  0  0  0  0  0  0  0  0
    5.3940    1.3760   -1.4880 H   0  0  0  0  0  0  0  0  0  0  0  0
    4.8340    3.0120   -1.2470 H   0  0  0  0  0  0  0  0  0  0  0  0
    6.2450    0.4850    0.4910 H   0  0  0  0  0  0  0  0  0  0  0  0
    5.3180    1.9600    3.0570 H   0  0  0  0  0  0  0  0  0  0  0  0
    6.7770    0.9150    2.8760 H   0  0  0  0  0  0  0  0  0  0  0  0
    4.0310   -1.1580    1.0950 H   0  0  0  0  0  0  0  0  0  0  0  0
    2.7450   -1.2790   -0.1130 H   0  0  0  0  0  0  0  0  0  0  0  0
    4.3340   -0.7120   -0.5800 H   0  0  0  0  0  0  0  0  0  0  0  0
    3.0260    0.4530    2.7000 H   0  0  0  0  0  0  0  0  0  0  0  0
    2.1740    1.8800    2.1490 H   0  0  0  0  0  0  0  0  0  0  0  0
    1.3590   -1.0630    1.7080 H   0  0  0  0  0  0  0  0  0  0  0  0
    0.5320    0.1290    2.6840 H   0  0  0  0  0  0  0  0  0  0  0  0
   -0.7580    2.8010   -2.1460 H   0  0  0  0  0  0  0  0  0  0  0  0
   -1.7210    0.5230   -2.8700 H   0  0  0  0  0  0  0  0  0  0  0  0
   -3.4950   -0.7220   -2.0330 H   0  0  0  0  0  0  0  0  0  0  0  0
   -2.8360   -2.0840   -1.1510 H   0  0  0  0  0  0  0  0  0  0  0  0
   -4.5290    3.1830    0.3620 H   0  0  0  0  0  0  0  0  0  0  0  0
   -6.0320    2.8180   -0.5050 H   0  0  0  0  0  0  0  0  0  0  0  0
   -6.0680    3.1060    1.2490 H   0  0  0  0  0  0  0  0  0  0  0  0
   -3.9360   -0.7320    2.2810 H   0  0  0  0  0  0  0  0  0  0  0  0
   -3.0710   -2.0590    1.5230 H   0  0  0  0  0  0  0  0  0  0  0  0
   -2.1970    0.9110    1.5460 H   0  0  0  0  0  0  0  0  0  0  0  0
   -1.4950   -0.3720    2.5240 H   0  0  0  0  0  0  0  0  0  0  0  0
    0.0880   -2.1900    1.3620 H   0  0  0  0  0  0  0  0  0  0  0  0
   -1.5200   -2.6260    0.7490 H   0  0  0  0  0  0  0  0  0  0  0  0
    1.3080   -3.0540   -2.6890 H   0  0  0  0  0  0  0  0  0  0  0  0
    1.8640   -4.6130   -2.0480 H   0  0  0  0  0  0  0  0  0  0  0  0
    0.2680   -4.4860   -2.8130 H   0  0  0  0  0  0  0  0  0  0  0  0
  2  1  1  1
  2  3  1  0
  2 15  1  0
  2  9  1  0
  3 38  1  0
  3 37  1  0
  3  4  1  0
  4 39  1  0
  4 40  1  0
  4  5  1  0
  5  9  1  0
  5  6  1  1
  5  7  1  0
  7 41  1  0
  7  8  2  0
  8 43  1  0
  8 42  1  0
  9 10  1  6
  9 11  1  0
 10 46  1  0
 10 45  1  0
 10 44  1  0
 11 12  1  0
 11 48  1  0
 11 47  1  0
 12 13  1  0
 12 49  1  0
 12 50  1  0
 13 15  1  0
 13 31  1  0
 13 14  1  1
 15 17  1  0
 15 16  1  6
 17 18  1  6
 17 20  1  0
 17 19  1  0
 19 51  1  0
 20 52  1  0
 20 21  2  0
 21 22  1  0
 21 31  1  0
 22 53  1  0
 22 54  1  0
 22 23  1  0
 23 25  1  0
 23 24  1  6
 23 29  1  0
 25 26  1  0
 26 27  1  0
 26 28  2  0
 27 56  1  0
 27 55  1  0
 27 57  1  0
 29 59  1  0
 29 30  1  0
 29 58  1  0
 30 31  1  0
 30 60  1  0
 30 61  1  0
 31 32  1  1
 32 33  1  0
 32 63  1  0
 32 62  1  0
 33 34  1  0
 34 35  1  0
 34 36  2  0
 35 66  1  0
 35 64  1  0
 35 65  1  0
M  END
>  <id>  (72) 
172

>  <scaffolds>  (72) 
['C1=C2CCCCC2C2CCC3CCCC3C2C1', 'C1=CCCCC1', 'C1=CCC2CCCCC2C1', 'C1CCCCC1', 'C1=C2CCCCC2CCC1']

>  <name>  (72) 
Pregna-5, 20-diene-3[alpha], 7[alpha], 19-triol 3[alpha], 19-diacetate

>  <formula>  (72) 
C25H36O5

>  <SMILES>  (72) 
[H][C@@]12CC[C@H](C=C)[C@@]1(C)CC[C@@]4([H])[C@@]2([H])[C@H](O)C=C3C[C@H](OC(C)=O)CC[C@@]34COC(C)=O

>  <ChEMBL_id>  (72) 


>  <ZINC_id>  (72) 


>  <PubChem_id>  (72) 


>  <DrugBank_id>  (72) 


>  <CAS_no>  (72) 
190451-08-2

>  <references>  (72) 
[{'journal': {'name': 'Thesis, Rhodes University', 'id': 2}, 'title': 'Structural and Synthetic Investigations of South African Marine Natural Products', 'year': 1999, 'start_page': None, 'volume': None, 'issue': None, 'doi': None, 'isbn': None, 'despositor': {'code': 'rah', 'first_name': 'Rowan', 'last_name': 'Hatherley', 'id': 20}, 'refauthors_set': [{'author': {'first_name': 'Denzil', 'initials': 'DR', 'last_name': 'Beukes', 'id': 453}, 'first_author': True, 'id': 618}], 'id': 232}, {'journal': {'name': 'Journal of Natural Products', 'id': 5}, 'title': 'New Polyhydroxylated Pregnadienes from the South African Soft Coral Pieterfaurea unilobata', 'year': 1997, 'start_page': 573, 'volume': 60, 'issue': 6, 'doi': '10.1021/np960684h', 'isbn': '', 'despositor': {'code': 'rah', 'first_name': 'Rowan', 'last_name': 'Hatherley', 'id': 20}, 'refauthors_set': [{'author': {'first_name': 'Michael', 'initials': 'MT', 'last_name': 'Davies-Coleman', 'id': 449}, 'first_author': None, 'id': 626}, {'author': {'first_name': 'Denzil', 'initials': 'DR', 'last_name': 'Beukes', 'id': 453}, 'first_author': True, 'id': 627}, {'author': {'first_name': 'Drake', 'initials': 'DS', 'last_name': 'Eggleston', 'id': 458}, 'first_author': None, 'id': 628}, {'author': {'first_name': '', 'initials': 'RC', 'last_name': 'Haltiwanger', 'id': 459}, 'first_author': None, 'id': 629}, {'author': {'first_name': 'Brian', 'initials': 'B', 'last_name': 'Tomkowicz', 'id': 460}, 'first_author': None, 'id': 630}], 'id': 235}]

>  <classifications>  (72) 
[{'classification': 'Pregnadiene', 'id': 812}, {'classification': 'Steroid', 'id': 835}, {'classification': 'Steroids and steroid derivatives (Classyfire)', 'id': 942}]

>  <molecular_mass>  (72) 
416.55

$$$$
SANC00173_minRM1.pdb
     RDKit          3D

 72 75  0  0  1  0  0  0  0  0999 V2000
    1.9450    1.9910    0.7670 H   0  0  0  0  0  0  0  0  0  0  0  0
    2.2770    1.2240    0.0170 C   0  0  2  0  0  0  0  0  0  0  0  0
    3.1280    1.9380   -1.0320 C   0  0  0  0  0  0  0  0  0  0  0  0
    4.5150    2.0630   -0.3740 C   0  0  0  0  0  0  0  0  0  0  0  0
    4.4800    1.2090    0.9130 C   0  0  2  0  0  0  0  0  0  0  0  0
    4.2630    1.8810    1.7830 H   0  0  0  0  0  0  0  0  0  0  0  0
    5.7520    0.4750    1.1710 C   0  0  0  0  0  0  0  0  0  0  0  0
    6.2070    0.2470    2.3980 C   0  0  0  0  0  0  0  0  0  0  0  0
    3.2790    0.2680    0.6810 C   0  0  2  0  0  0  0  0  0  0  0  0
    3.6940   -0.8800   -0.2340 C   0  0  0  0  0  0  0  0  0  0  0  0
    2.6210   -0.2590    1.9430 C   0  0  0  0  0  0  0  0  0  0  0  0
    1.3210   -1.0080    1.5810 C   0  0  1  0  0  0  0  0  0  0  0  0
    1.5870   -1.9600    1.0410 H   0  0  0  0  0  0  0  0  0  0  0  0
    0.6410   -1.3010    2.7720 O   0  0  0  0  0  0  0  0  0  0  0  0
    0.3270   -0.1690    0.7320 C   0  0  1  0  0  0  0  0  0  0  0  0
   -0.0380    0.6690    1.3850 H   0  0  0  0  0  0  0  0  0  0  0  0
    1.0560    0.4570   -0.4680 C   0  0  1  0  0  0  0  0  0  0  0  0
    1.3780   -0.3460   -1.1830 H   0  0  0  0  0  0  0  0  0  0  0  0
    0.1100    1.3880   -1.2400 C   0  0  2  0  0  0  0  0  0  0  0  0
    0.6220    1.7680   -2.1670 H   0  0  0  0  0  0  0  0  0  0  0  0
   -0.2050    2.4670   -0.3710 O   0  0  0  0  0  0  0  0  0  0  0  0
   -0.8790    3.5260   -0.8800 C   0  0  0  0  0  0  0  0  0  0  0  0
   -1.1800    4.5450    0.1720 C   0  0  0  0  0  0  0  0  0  0  0  0
   -1.1530    3.5940   -2.0650 O   0  0  0  0  0  0  0  0  0  0  0  0
   -1.1530    0.6790   -1.5930 C   0  0  0  0  0  0  0  0  0  0  0  0
   -1.5980   -0.3790   -0.9190 C   0  0  0  0  0  0  0  0  0  0  0  0
   -2.8690   -1.0340   -1.3580 C   0  0  0  0  0  0  0  0  0  0  0  0
   -3.8800   -1.1220   -0.2090 C   0  0  2  0  0  0  0  0  0  0  0  0
   -4.7740   -1.7240   -0.5310 H   0  0  0  0  0  0  0  0  0  0  0  0
   -4.2460    0.2220    0.0510 O   0  0  0  0  0  0  0  0  0  0  0  0
   -5.3510    0.4590    0.7990 C   0  0  0  0  0  0  0  0  0  0  0  0
   -5.5770    1.9250    0.9880 C   0  0  0  0  0  0  0  0  0  0  0  0
   -6.0370   -0.4540    1.2230 O   0  0  0  0  0  0  0  0  0  0  0  0
   -3.2310   -1.7410    1.0260 C   0  0  0  0  0  0  0  0  0  0  0  0
   -1.9580   -1.0010    1.4120 C   0  0  0  0  0  0  0  0  0  0  0  0
   -0.9140   -0.9890    0.2740 C   0  0  2  0  0  0  0  0  0  0  0  0
   -0.5620   -2.4590   -0.0490 C   0  0  0  0  0  0  0  0  0  0  0  0
    0.1650   -2.4410   -1.2630 O   0  0  0  0  0  0  0  0  0  0  0  0
    0.5140   -3.6350   -1.8050 C   0  0  0  0  0  0  0  0  0  0  0  0
    1.2660   -3.4590   -3.0830 C   0  0  0  0  0  0  0  0  0  0  0  0
    0.2210   -4.6790   -1.2520 O   0  0  0  0  0  0  0  0  0  0  0  0
    3.1730    1.3740   -1.9850 H   0  0  0  0  0  0  0  0  0  0  0  0
    2.7110    2.9240   -1.3150 H   0  0  0  0  0  0  0  0  0  0  0  0
    5.3170    1.7490   -1.0700 H   0  0  0  0  0  0  0  0  0  0  0  0
    4.7620    3.1170   -0.1400 H   0  0  0  0  0  0  0  0  0  0  0  0
    6.3060    0.1170    0.2960 H   0  0  0  0  0  0  0  0  0  0  0  0
    7.1280   -0.2900    2.6000 H   0  0  0  0  0  0  0  0  0  0  0  0
    5.7080    0.5700    3.3070 H   0  0  0  0  0  0  0  0  0  0  0  0
    4.2120   -1.6790    0.3180 H   0  0  0  0  0  0  0  0  0  0  0  0
    2.8420   -1.3490   -0.7520 H   0  0  0  0  0  0  0  0  0  0  0  0
    4.3780   -0.5680   -1.0360 H   0  0  0  0  0  0  0  0  0  0  0  0
    3.3140   -0.9250    2.5000 H   0  0  0  0  0  0  0  0  0  0  0  0
    2.4040    0.5620    2.6590 H   0  0  0  0  0  0  0  0  0  0  0  0
    1.1930   -1.8950    3.2880 H   0  0  0  0  0  0  0  0  0  0  0  0
   -1.4310    4.0930    1.1440 H   0  0  0  0  0  0  0  0  0  0  0  0
   -0.3110    5.2010    0.3310 H   0  0  0  0  0  0  0  0  0  0  0  0
   -2.0260    5.1810   -0.1260 H   0  0  0  0  0  0  0  0  0  0  0  0
   -1.7010    1.0980   -2.4450 H   0  0  0  0  0  0  0  0  0  0  0  0
   -3.3300   -0.5060   -2.2220 H   0  0  0  0  0  0  0  0  0  0  0  0
   -2.6640   -2.0510   -1.7550 H   0  0  0  0  0  0  0  0  0  0  0  0
   -5.7700    2.4240    0.0260 H   0  0  0  0  0  0  0  0  0  0  0  0
   -6.4380    2.1140    1.6440 H   0  0  0  0  0  0  0  0  0  0  0  0
   -4.7000    2.4150    1.4360 H   0  0  0  0  0  0  0  0  0  0  0  0
   -3.9400   -1.7620    1.8800 H   0  0  0  0  0  0  0  0  0  0  0  0
   -3.0160   -2.8150    0.8200 H   0  0  0  0  0  0  0  0  0  0  0  0
   -2.2060    0.0420    1.7050 H   0  0  0  0  0  0  0  0  0  0  0  0
   -1.5490   -1.4610    2.3340 H   0  0  0  0  0  0  0  0  0  0  0  0
    0.0380   -2.9390    0.7580 H   0  0  0  0  0  0  0  0  0  0  0  0
   -1.4750   -3.0980   -0.1350 H   0  0  0  0  0  0  0  0  0  0  0  0
    2.2470   -2.9960   -2.9020 H   0  0  0  0  0  0  0  0  0  0  0  0
    1.4370   -4.4230   -3.5830 H   0  0  0  0  0  0  0  0  0  0  0  0
    0.7250   -2.8090   -3.7890 H   0  0  0  0  0  0  0  0  0  0  0  0
  2  1  1  1
  2  3  1  0
  2 17  1  0
  2  9  1  0
  3 42  1  0
  3 43  1  0
  3  4  1  0
  4 44  1  0
  4 45  1  0
  4  5  1  0
  5  9  1  0
  5  7  1  0
  5  6  1  1
  7 46  1  0
  7  8  2  0
  8 47  1  0
  8 48  1  0
  9 10  1  6
  9 11  1  0
 10 51  1  0
 10 50  1  0
 10 49  1  0
 11 12  1  0
 11 52  1  0
 11 53  1  0
 12 15  1  0
 12 13  1  6
 12 14  1  0
 14 54  1  0
 15 17  1  0
 15 36  1  0
 15 16  1  1
 17 19  1  0
 17 18  1  6
 19 20  1  6
 19 25  1  0
 19 21  1  0
 21 22  1  0
 22 24  2  0
 22 23  1  0
 23 57  1  0
 23 56  1  0
 23 55  1  0
 25 58  1  0
 25 26  2  0
 26 27  1  0
 26 36  1  0
 27 59  1  0
 27 60  1  0
 27 28  1  0
 28 29  1  6
 28 30  1  0
 28 34  1  0
 30 31  1  0
 31 32  1  0
 31 33  2  0
 32 61  1  0
 32 63  1  0
 32 62  1  0
 34 65  1  0
 34 35  1  0
 34 64  1  0
 35 36  1  0
 35 66  1  0
 35 67  1  0
 36 37  1  6
 37 38  1  0
 37 69  1  0
 37 68  1  0
 38 39  1  0
 39 40  1  0
 39 41  2  0
 40 72  1  0
 40 71  1  0
 40 70  1  0
M  END
>  <id>  (73) 
173

>  <scaffolds>  (73) 
['C1=C2CCCCC2C2CCC3CCCC3C2C1', 'C1=CCCCC1', 'C1=CCC2CCCCC2C1', 'C1CCCCC1', 'C1=C2CCCCC2CCC1']

>  <name>  (73) 
Pregna-5-20-diene-3[alpha], 7[alpha], 11[alpha], 19-tetrol 3[alpha], 7[alpha], 19-triacetate

>  <formula>  (73) 
C27H38O7

>  <SMILES>  (73) 
[H][C@@]12CC[C@H](C=C)[C@@]1(C)C[C@@H](O)[C@@]4([H])[C@@]2([H])[C@H](OC(C)=O)C=C3C[C@H](OC(C)=O)CC[C@@]34COC(C)=O

>  <ChEMBL_id>  (73) 


>  <ZINC_id>  (73) 


>  <PubChem_id>  (73) 


>  <DrugBank_id>  (73) 


>  <CAS_no>  (73) 
190451-09-3

>  <references>  (73) 
[{'journal': {'name': 'Thesis, Rhodes University', 'id': 2}, 'title': 'Structural and Synthetic Investigations of South African Marine Natural Products', 'year': 1999, 'start_page': None, 'volume': None, 'issue': None, 'doi': None, 'isbn': None, 'despositor': {'code': 'rah', 'first_name': 'Rowan', 'last_name': 'Hatherley', 'id': 20}, 'refauthors_set': [{'author': {'first_name': 'Denzil', 'initials': 'DR', 'last_name': 'Beukes', 'id': 453}, 'first_author': True, 'id': 618}], 'id': 232}, {'journal': {'name': 'Journal of Natural Products', 'id': 5}, 'title': 'New Polyhydroxylated Pregnadienes from the South African Soft Coral Pieterfaurea unilobata', 'year': 1997, 'start_page': 573, 'volume': 60, 'issue': 6, 'doi': '10.1021/np960684h', 'isbn': '', 'despositor': {'code': 'rah', 'first_name': 'Rowan', 'last_name': 'Hatherley', 'id': 20}, 'refauthors_set': [{'author': {'first_name': 'Michael', 'initials': 'MT', 'last_name': 'Davies-Coleman', 'id': 449}, 'first_author': None, 'id': 626}, {'author': {'first_name': 'Denzil', 'initials': 'DR', 'last_name': 'Beukes', 'id': 453}, 'first_author': True, 'id': 627}, {'author': {'first_name': 'Drake', 'initials': 'DS', 'last_name': 'Eggleston', 'id': 458}, 'first_author': None, 'id': 628}, {'author': {'first_name': '', 'initials': 'RC', 'last_name': 'Haltiwanger', 'id': 459}, 'first_author': None, 'id': 629}, {'author': {'first_name': 'Brian', 'initials': 'B', 'last_name': 'Tomkowicz', 'id': 460}, 'first_author': None, 'id': 630}], 'id': 235}]

>  <classifications>  (73) 
[{'classification': 'Pregnadiene', 'id': 812}, {'classification': 'Steroid', 'id': 835}, {'classification': 'Steroids and steroid derivatives (Classyfire)', 'id': 942}]

>  <molecular_mass>  (73) 
474.58

$$$$
SANC00174_minRM1.pdb
     RDKit          3D

 86 90  0  0  1  0  0  0  0  0999 V2000
    2.5600   -0.7400   -1.2310 H   0  0  0  0  0  0  0  0  0  0  0  0
    2.7910    0.3010   -0.8650 C   0  0  2  0  0  0  0  0  0  0  0  0
    2.0940    1.2680   -1.8180 C   0  0  0  0  0  0  0  0  0  0  0  0
    0.6140    0.9150   -1.9490 C   0  0  0  0  0  0  0  0  0  0  0  0
   -0.0980    0.9650   -0.5900 C   0  0  1  0  0  0  0  0  0  0  0  0
   -0.2110    2.4220   -0.1250 C   0  0  0  0  0  0  0  0  0  0  0  0
   -1.5210    0.4620   -0.7240 C   0  0  0  0  0  0  0  0  0  0  0  0
   -2.3190    1.0240   -1.6380 C   0  0  0  0  0  0  0  0  0  0  0  0
   -3.7830    0.7640   -1.6670 C   0  0  0  0  0  0  0  0  0  0  0  0
   -4.2340    0.5700   -0.2160 C   0  0  1  0  0  0  0  0  0  0  0  0
   -3.8100    1.7950    0.5770 C   0  0  0  0  0  0  0  0  0  0  0  0
   -3.5470    2.9080    0.1530 O   0  0  0  0  0  0  0  0  0  0  0  0
   -3.8310    1.6140    1.9170 O   0  0  0  0  0  0  0  0  0  0  0  0
   -5.7600    0.5390   -0.0700 C   0  0  0  0  0  0  0  0  0  0  0  0
   -6.3790   -0.7020   -0.6890 C   0  0  0  0  0  0  0  0  0  0  0  0
   -5.7420   -1.9750   -0.1310 C   0  0  1  0  0  0  0  0  0  0  0  0
   -6.0290   -2.1330    1.3600 C   0  0  0  0  0  0  0  0  0  0  0  0
   -6.3300   -3.1830   -0.8670 C   0  0  0  0  0  0  0  0  0  0  0  0
   -4.2330   -1.9160   -0.3850 C   0  0  0  0  0  0  0  0  0  0  0  0
   -3.5700   -0.7140    0.2980 C   0  0  1  0  0  0  0  0  0  0  0  0
   -3.8010   -0.8120    1.3960 H   0  0  0  0  0  0  0  0  0  0  0  0
   -2.0110   -0.6800    0.1250 C   0  0  1  0  0  0  0  0  0  0  0  0
   -1.5140   -1.9380   -0.6120 C   0  0  0  0  0  0  0  0  0  0  0  0
   -1.4080   -0.6740    1.5490 C   0  0  0  0  0  0  0  0  0  0  0  0
   -0.0920    0.0810    1.7100 C   0  0  0  0  0  0  0  0  0  0  0  0
    0.6800    0.0840    0.3990 C   0  0  2  0  0  0  0  0  0  0  0  0
    0.6630   -0.9690   -0.0030 H   0  0  0  0  0  0  0  0  0  0  0  0
    2.1810    0.4230    0.5450 C   0  0  2  0  0  0  0  0  0  0  0  0
    2.4140    1.7720    1.2060 C   0  0  0  0  0  0  0  0  0  0  0  0
    2.8350   -0.6510    1.4360 C   0  0  0  0  0  0  0  0  0  0  0  0
    4.3470   -0.4870    1.4710 C   0  0  0  0  0  0  0  0  0  0  0  0
    4.9080   -0.6290    0.0560 C   0  0  2  0  0  0  0  0  0  0  0  0
    4.6900   -1.6630   -0.3310 H   0  0  0  0  0  0  0  0  0  0  0  0
    6.3050   -0.3890    0.0890 O   0  0  0  0  0  0  0  0  0  0  0  0
    7.1250   -1.3610    0.5570 C   0  0  0  0  0  0  0  0  0  0  0  0
    8.5580   -0.9370    0.5240 C   0  0  0  0  0  0  0  0  0  0  0  0
    6.6900   -2.4360    0.9290 O   0  0  0  0  0  0  0  0  0  0  0  0
    4.3280    0.4200   -0.9260 C   0  0  1  0  0  0  0  0  0  0  0  0
    4.7860    0.0410   -2.3430 C   0  0  0  0  0  0  0  0  0  0  0  0
    4.8520    1.8230   -0.6420 C   0  0  0  0  0  0  0  0  0  0  0  0
    2.2140    2.3230   -1.4960 H   0  0  0  0  0  0  0  0  0  0  0  0
    2.5740    1.2400   -2.8230 H   0  0  0  0  0  0  0  0  0  0  0  0
    0.1360    1.6070   -2.6740 H   0  0  0  0  0  0  0  0  0  0  0  0
    0.4900   -0.0900   -2.4060 H   0  0  0  0  0  0  0  0  0  0  0  0
   -0.9390    3.0080   -0.7060 H   0  0  0  0  0  0  0  0  0  0  0  0
   -0.5320    2.4930    0.9270 H   0  0  0  0  0  0  0  0  0  0  0  0
    0.7340    2.9800   -0.2050 H   0  0  0  0  0  0  0  0  0  0  0  0
   -1.9630    1.7610   -2.3650 H   0  0  0  0  0  0  0  0  0  0  0  0
   -4.3270    1.6020   -2.1500 H   0  0  0  0  0  0  0  0  0  0  0  0
   -4.0160   -0.1240   -2.2910 H   0  0  0  0  0  0  0  0  0  0  0  0
   -3.5700    2.4200    2.3830 H   0  0  0  0  0  0  0  0  0  0  0  0
   -6.0510    0.6120    1.0000 H   0  0  0  0  0  0  0  0  0  0  0  0
   -6.2010    1.4500   -0.5320 H   0  0  0  0  0  0  0  0  0  0  0  0
   -7.4760   -0.7040   -0.5120 H   0  0  0  0  0  0  0  0  0  0  0  0
   -6.2880   -0.6710   -1.7960 H   0  0  0  0  0  0  0  0  0  0  0  0
   -7.0950   -2.0060    1.5940 H   0  0  0  0  0  0  0  0  0  0  0  0
   -5.7420   -3.1270    1.7320 H   0  0  0  0  0  0  0  0  0  0  0  0
   -5.4760   -1.4090    1.9800 H   0  0  0  0  0  0  0  0  0  0  0  0
   -6.1820   -3.1300   -1.9550 H   0  0  0  0  0  0  0  0  0  0  0  0
   -5.8800   -4.1320   -0.5390 H   0  0  0  0  0  0  0  0  0  0  0  0
   -7.4130   -3.2750   -0.7010 H   0  0  0  0  0  0  0  0  0  0  0  0
   -3.7620   -2.8590   -0.0270 H   0  0  0  0  0  0  0  0  0  0  0  0
   -4.0500   -1.9000   -1.4820 H   0  0  0  0  0  0  0  0  0  0  0  0
   -1.7890   -1.9370   -1.6770 H   0  0  0  0  0  0  0  0  0  0  0  0
   -0.4170   -2.0380   -0.5890 H   0  0  0  0  0  0  0  0  0  0  0  0
   -1.9060   -2.8700   -0.1740 H   0  0  0  0  0  0  0  0  0  0  0  0
   -2.1420   -0.2580    2.2760 H   0  0  0  0  0  0  0  0  0  0  0  0
   -1.2820   -1.7230    1.8940 H   0  0  0  0  0  0  0  0  0  0  0  0
   -0.2920    1.1210    2.0570 H   0  0  0  0  0  0  0  0  0  0  0  0
    0.5070   -0.3660    2.5340 H   0  0  0  0  0  0  0  0  0  0  0  0
    1.7990    1.9160    2.1060 H   0  0  0  0  0  0  0  0  0  0  0  0
    3.4590    1.9040    1.5410 H   0  0  0  0  0  0  0  0  0  0  0  0
    2.2080    2.6270    0.5430 H   0  0  0  0  0  0  0  0  0  0  0  0
    2.4190   -0.6000    2.4670 H   0  0  0  0  0  0  0  0  0  0  0  0
    2.5760   -1.6760    1.0930 H   0  0  0  0  0  0  0  0  0  0  0  0
    4.6330    0.4870    1.9250 H   0  0  0  0  0  0  0  0  0  0  0  0
    4.7950   -1.2440    2.1490 H   0  0  0  0  0  0  0  0  0  0  0  0
    8.6920    0.1440    0.6820 H   0  0  0  0  0  0  0  0  0  0  0  0
    9.1410   -1.4610    1.2960 H   0  0  0  0  0  0  0  0  0  0  0  0
    9.0050   -1.1800   -0.4520 H   0  0  0  0  0  0  0  0  0  0  0  0
    4.4680   -0.9680   -2.6450 H   0  0  0  0  0  0  0  0  0  0  0  0
    4.3830    0.7320   -3.1000 H   0  0  0  0  0  0  0  0  0  0  0  0
    5.8800    0.0620   -2.4480 H   0  0  0  0  0  0  0  0  0  0  0  0
    5.9270    1.9180   -0.8630 H   0  0  0  0  0  0  0  0  0  0  0  0
    4.3540    2.5890   -1.2530 H   0  0  0  0  0  0  0  0  0  0  0  0
    4.7410    2.1300    0.4080 H   0  0  0  0  0  0  0  0  0  0  0  0
  2  1  1  6
  2  3  1  0
  2 38  1  0
  2 28  1  0
  3 42  1  0
  3  4  1  0
  3 41  1  0
  4 43  1  0
  4 44  1  0
  4  5  1  0
  5  7  1  0
  5  6  1  1
  5 26  1  0
  6 45  1  0
  6 47  1  0
  6 46  1  0
  7  8  2  0
  7 22  1  0
  8 48  1  0
  8  9  1  0
  9 50  1  0
  9 49  1  0
  9 10  1  0
 10 14  1  0
 10 20  1  0
 10 11  1  1
 11 12  2  0
 11 13  1  0
 13 51  1  0
 14 15  1  0
 14 53  1  0
 14 52  1  0
 15 55  1  0
 15 54  1  0
 15 16  1  0
 16 18  1  6
 16 19  1  0
 16 17  1  0
 17 56  1  0
 17 57  1  0
 17 58  1  0
 18 59  1  0
 18 61  1  0
 18 60  1  0
 19 63  1  0
 19 62  1  0
 19 20  1  0
 20 22  1  0
 20 21  1  1
 22 23  1  6
 22 24  1  0
 23 64  1  0
 23 65  1  0
 23 66  1  0
 24 25  1  0
 24 68  1  0
 24 67  1  0
 25 26  1  0
 25 69  1  0
 25 70  1  0
 26 27  1  6
 26 28  1  0
 28 29  1  1
 28 30  1  0
 29 73  1  0
 29 72  1  0
 29 71  1  0
 30 75  1  0
 30 31  1  0
 30 74  1  0
 31 32  1  0
 31 76  1  0
 31 77  1  0
 32 38  1  0
 32 33  1  6
 32 34  1  0
 34 35  1  0
 35 36  1  0
 35 37  2  0
 36 80  1  0
 36 78  1  0
 36 79  1  0
 38 39  1  6
 38 40  1  0
 39 82  1  0
 39 81  1  0
 39 83  1  0
 40 85  1  0
 40 84  1  0
 40 86  1  0
M  END
>  <id>  (74) 
174

>  <scaffolds>  (74) 
['C1=CCCCC1', 'C1=CCC2CCCCC2C1', 'C1=C2C(CCC3C2CCC2CCCCC23)C2CCCCC2C1', 'C1CCCCC1', 'C=C1CCCC2CCCCC12', 'C1=C2CCCCC2CCC1', 'C1=C2C3CCCCC3CCC2C2CCCCC2C1', 'C1CCC2CCCCC2C1']

>  <name>  (74) 
D-Friedoolean-14-en-oic acid

>  <formula>  (74) 
C32H50O4

>  <SMILES>  (74) 
[H][C@@]45CC[C@@]3(C)C2=CC[C@@]1(C(=O)O)CCC(C)(C)C[C@@]1([H])[C@]2(C)CC[C@]3([H])[C@@]4(C)CC[C@H](OC(C)=O)C5(C)C

>  <ChEMBL_id>  (74) 
CHEMBL439422

>  <ZINC_id>  (74) 


>  <PubChem_id>  (74) 
 161616

>  <DrugBank_id>  (74) 


>  <CAS_no>  (74) 
28937-85-1

>  <references>  (74) 
[{'journal': {'name': 'Journal of Ethnopharmacology', 'id': 7}, 'title': 'Antibacterial activities and cytotoxicity of terpenoids isolated from Spirostachys africana', 'year': 2008, 'start_page': 194, 'volume': 116, 'issue': 1, 'doi': '10.1016/j.jep.2007.11.017', 'isbn': '', 'despositor': {'code': 'NFA', 'first_name': 'Ngonidzashe', 'last_name': 'Faya', 'id': 21}, 'refauthors_set': [{'author': {'first_name': 'Matlakala', 'initials': 'MC', 'last_name': 'Mathabe', 'id': 473}, 'first_author': True, 'id': 632}, {'author': {'first_name': 'Ahmed', 'initials': 'AA', 'last_name': 'Hussein', 'id': 440}, 'first_author': None, 'id': 1230}, {'author': {'first_name': 'Roumiana', 'initials': 'RV', 'last_name': 'Nikolova', 'id': 475}, 'first_author': None, 'id': 1231}, {'author': {'first_name': 'Adriaan', 'initials': 'AE', 'last_name': 'Basson', 'id': 476}, 'first_author': None, 'id': 1232}, {'author': {'first_name': 'Jacobus', 'initials': 'JJM', 'last_name': 'Meyer', 'id': 467}, 'first_author': None, 'id': 1233}, {'author': {'first_name': 'Namrita', 'initials': 'N', 'last_name': 'Lall', 'id': 441}, 'first_author': None, 'id': 1234}], 'id': 238}]

>  <classifications>  (74) 
[{'classification': 'Terpenoid', 'id': 839}, {'classification': 'Triterpene', 'id': 842}, {'classification': 'Phenol lipids (Classyfire)', 'id': 951}]

>  <molecular_mass>  (74) 
498.73

$$$$
SANC00175_minRM1.pdb
     RDKit          3D

 81 85  0  0  1  0  0  0  0  0999 V2000
    4.4310   -2.3610    1.6890 C   0  0  0  0  0  0  0  0  0  0  0  0
    4.3970   -2.2760    0.2030 C   0  0  0  0  0  0  0  0  0  0  0  0
    4.3920   -3.3830   -0.5360 C   0  0  0  0  0  0  0  0  0  0  0  0
    4.4150   -0.9140   -0.4170 C   0  0  2  0  0  0  0  0  0  0  0  0
    4.2640   -1.0060   -1.5220 H   0  0  0  0  0  0  0  0  0  0  0  0
    5.7590   -0.2030   -0.1240 C   0  0  0  0  0  0  0  0  0  0  0  0
    5.4270    1.2360    0.3070 C   0  0  0  0  0  0  0  0  0  0  0  0
    3.9720    1.4310   -0.1370 C   0  0  2  0  0  0  0  0  0  0  0  0
    3.9700    1.7840   -1.6240 C   0  0  0  0  0  0  0  0  0  0  0  0
    3.1770    2.4660    0.6470 C   0  0  0  0  0  0  0  0  0  0  0  0
    1.7040    2.4150    0.2430 C   0  0  0  0  0  0  0  0  0  0  0  0
    1.0760    1.0140    0.3870 C   0  0  2  0  0  0  0  0  0  0  0  0
    1.0370    0.6860    1.8840 C   0  0  0  0  0  0  0  0  0  0  0  0
    1.9420   -0.0180   -0.3740 C   0  0  2  0  0  0  0  0  0  0  0  0
    1.9730    0.2540   -1.4640 H   0  0  0  0  0  0  0  0  0  0  0  0
    1.3590   -1.4190   -0.2520 C   0  0  0  0  0  0  0  0  0  0  0  0
   -0.0710   -1.4440   -0.7810 C   0  0  0  0  0  0  0  0  0  0  0  0
   -0.9380   -0.4350   -0.0310 C   0  0  2  0  0  0  0  0  0  0  0  0
   -0.8530   -0.6790    1.0670 H   0  0  0  0  0  0  0  0  0  0  0  0
   -2.4390   -0.5920   -0.3840 C   0  0  1  0  0  0  0  0  0  0  0  0
   -2.6840   -0.4580   -1.8810 C   0  0  0  0  0  0  0  0  0  0  0  0
   -2.8930   -1.9970    0.0510 C   0  0  0  0  0  0  0  0  0  0  0  0
   -4.3960   -2.1620   -0.1060 C   0  0  0  0  0  0  0  0  0  0  0  0
   -5.1270   -1.1350    0.7680 C   0  0  2  0  0  0  0  0  0  0  0  0
   -4.8520   -1.3200    1.8460 H   0  0  0  0  0  0  0  0  0  0  0  0
   -6.5120   -1.2480    0.5990 O   0  0  0  0  0  0  0  0  0  0  0  0
   -4.7530    0.3210    0.3920 C   0  0  1  0  0  0  0  0  0  0  0  0
   -5.3610    0.7300   -0.9440 C   0  0  0  0  0  0  0  0  0  0  0  0
   -5.3470    1.2490    1.4630 C   0  0  0  0  0  0  0  0  0  0  0  0
   -3.2160    0.4410    0.4500 C   0  0  2  0  0  0  0  0  0  0  0  0
   -2.9440    0.2610    1.5280 H   0  0  0  0  0  0  0  0  0  0  0  0
   -2.7290    1.8380    0.0780 C   0  0  0  0  0  0  0  0  0  0  0  0
   -1.2700    2.0000    0.4960 C   0  0  0  0  0  0  0  0  0  0  0  0
   -0.3660    0.9870   -0.2200 C   0  0  1  0  0  0  0  0  0  0  0  0
   -0.3120    1.3820   -1.6980 C   0  0  0  0  0  0  0  0  0  0  0  0
    3.3680    0.0470    0.1590 C   0  0  1  0  0  0  0  0  0  0  0  0
    3.3410   -0.1130    1.2770 H   0  0  0  0  0  0  0  0  0  0  0  0
    5.4370   -2.6240    2.0510 H   0  0  0  0  0  0  0  0  0  0  0  0
    4.1510   -1.4140    2.1800 H   0  0  0  0  0  0  0  0  0  0  0  0
    3.7440   -3.1280    2.0780 H   0  0  0  0  0  0  0  0  0  0  0  0
    4.3960   -4.3820   -0.1140 H   0  0  0  0  0  0  0  0  0  0  0  0
    4.3810   -3.3920   -1.6210 H   0  0  0  0  0  0  0  0  0  0  0  0
    6.3510   -0.7230    0.6540 H   0  0  0  0  0  0  0  0  0  0  0  0
    6.4170   -0.2210   -1.0150 H   0  0  0  0  0  0  0  0  0  0  0  0
    5.5420    1.3670    1.4010 H   0  0  0  0  0  0  0  0  0  0  0  0
    6.1160    1.9830   -0.1310 H   0  0  0  0  0  0  0  0  0  0  0  0
    4.7470    1.2570   -2.1960 H   0  0  0  0  0  0  0  0  0  0  0  0
    3.0180    1.5360   -2.1220 H   0  0  0  0  0  0  0  0  0  0  0  0
    4.1490    2.8550   -1.7920 H   0  0  0  0  0  0  0  0  0  0  0  0
    3.2910    2.3130    1.7410 H   0  0  0  0  0  0  0  0  0  0  0  0
    3.5850    3.4860    0.4840 H   0  0  0  0  0  0  0  0  0  0  0  0
    1.1450    3.1590    0.8510 H   0  0  0  0  0  0  0  0  0  0  0  0
    1.5840    2.7920   -0.7970 H   0  0  0  0  0  0  0  0  0  0  0  0
    0.7740    1.5510    2.5110 H   0  0  0  0  0  0  0  0  0  0  0  0
    0.3130   -0.1030    2.1430 H   0  0  0  0  0  0  0  0  0  0  0  0
    2.0080    0.3300    2.2670 H   0  0  0  0  0  0  0  0  0  0  0  0
    1.9790   -2.1450   -0.8240 H   0  0  0  0  0  0  0  0  0  0  0  0
    1.4080   -1.7930    0.7910 H   0  0  0  0  0  0  0  0  0  0  0  0
   -0.0800   -1.2390   -1.8760 H   0  0  0  0  0  0  0  0  0  0  0  0
   -0.4900   -2.4700   -0.6930 H   0  0  0  0  0  0  0  0  0  0  0  0
   -1.9610   -1.0280   -2.4830 H   0  0  0  0  0  0  0  0  0  0  0  0
   -3.6810   -0.8290   -2.1820 H   0  0  0  0  0  0  0  0  0  0  0  0
   -2.6380    0.5870   -2.2300 H   0  0  0  0  0  0  0  0  0  0  0  0
   -2.3570   -2.7740   -0.5380 H   0  0  0  0  0  0  0  0  0  0  0  0
   -2.6000   -2.2060    1.1020 H   0  0  0  0  0  0  0  0  0  0  0  0
   -4.7020   -2.0730   -1.1710 H   0  0  0  0  0  0  0  0  0  0  0  0
   -4.6980   -3.1940    0.1740 H   0  0  0  0  0  0  0  0  0  0  0  0
   -6.7690   -2.1230    0.9010 H   0  0  0  0  0  0  0  0  0  0  0  0
   -6.4620    0.7500   -0.9080 H   0  0  0  0  0  0  0  0  0  0  0  0
   -5.0560    1.7380   -1.2560 H   0  0  0  0  0  0  0  0  0  0  0  0
   -5.1080    0.0490   -1.7700 H   0  0  0  0  0  0  0  0  0  0  0  0
   -4.9900    1.0220    2.4790 H   0  0  0  0  0  0  0  0  0  0  0  0
   -5.0930    2.3040    1.2740 H   0  0  0  0  0  0  0  0  0  0  0  0
   -6.4440    1.1890    1.5030 H   0  0  0  0  0  0  0  0  0  0  0  0
   -2.8380    2.0300   -1.0130 H   0  0  0  0  0  0  0  0  0  0  0  0
   -3.3550    2.6200    0.5630 H   0  0  0  0  0  0  0  0  0  0  0  0
   -0.9420    3.0390    0.2760 H   0  0  0  0  0  0  0  0  0  0  0  0
   -1.1910    1.9170    1.5990 H   0  0  0  0  0  0  0  0  0  0  0  0
    0.3590    2.2370   -1.8840 H   0  0  0  0  0  0  0  0  0  0  0  0
    0.0290    0.5670   -2.3550 H   0  0  0  0  0  0  0  0  0  0  0  0
   -1.2970    1.6890   -2.0900 H   0  0  0  0  0  0  0  0  0  0  0  0
  1  2  1  0
  1 38  1  0
  1 40  1  0
  1 39  1  0
  2  3  2  0
  2  4  1  0
  3 42  1  0
  3 41  1  0
  4  5  1  6
  4  6  1  0
  4 36  1  0
  6 44  1  0
  6  7  1  0
  6 43  1  0
  7  8  1  0
  7 46  1  0
  7 45  1  0
  8  9  1  6
  8 36  1  0
  8 10  1  0
  9 47  1  0
  9 48  1  0
  9 49  1  0
 10 11  1  0
 10 51  1  0
 10 50  1  0
 11 53  1  0
 11 12  1  0
 11 52  1  0
 12 14  1  0
 12 34  1  0
 12 13  1  1
 13 55  1  0
 13 56  1  0
 13 54  1  0
 14 15  1  6
 14 16  1  0
 14 36  1  0
 16 57  1  0
 16 17  1  0
 16 58  1  0
 17 59  1  0
 17 60  1  0
 17 18  1  0
 18 20  1  0
 18 34  1  0
 18 19  1  1
 20 21  1  6
 20 22  1  0
 20 30  1  0
 21 61  1  0
 21 63  1  0
 21 62  1  0
 22 64  1  0
 22 23  1  0
 22 65  1  0
 23 66  1  0
 23 67  1  0
 23 24  1  0
 24 27  1  0
 24 26  1  0
 24 25  1  1
 26 68  1  0
 27 28  1  6
 27 30  1  0
 27 29  1  0
 28 71  1  0
 28 70  1  0
 28 69  1  0
 29 73  1  0
 29 74  1  0
 29 72  1  0
 30 32  1  0
 30 31  1  1
 32 75  1  0
 32 33  1  0
 32 76  1  0
 33 34  1  0
 33 77  1  0
 33 78  1  0
 34 35  1  6
 35 80  1  0
 35 81  1  0
 35 79  1  0
 36 37  1  1
M  END
>  <id>  (75) 
175

>  <scaffolds>  (75) 
['C1CCC2C(C1)CCC1C2CCC2C3CCCC3CCC21', 'C1CCC(C2CCCC2)CC1', 'C1CCCCC1', 'C1CCC2C(C1)CCC1C3CCCC3CCC21', 'C1CCC2CCCCC2C1']

>  <name>  (75) 
Lupeol

>  <formula>  (75) 
C30H50O

>  <SMILES>  (75) 
CC(=C)[C@@H]1CC[C@]2(C)CC[C@]3(C)[C@H](CC[C@@H]4[C@@]5(C)CC[C@H](O)C(C)(C)[C@@H]5CC[C@@]34C)[C@@H]12

>  <ChEMBL_id>  (75) 
CHEMBL289191 

>  <ZINC_id>  (75) 
ZINC04081455

>  <PubChem_id>  (75) 
 259846

>  <DrugBank_id>  (75) 


>  <CAS_no>  (75) 
545-47-1

>  <references>  (75) 
[{'journal': {'name': 'Journal of Ethnopharmacology', 'id': 7}, 'title': 'Antibacterial activities and cytotoxicity of terpenoids isolated from Spirostachys africana', 'year': 2008, 'start_page': 194, 'volume': 116, 'issue': 1, 'doi': '10.1016/j.jep.2007.11.017', 'isbn': '', 'despositor': {'code': 'NFA', 'first_name': 'Ngonidzashe', 'last_name': 'Faya', 'id': 21}, 'refauthors_set': [{'author': {'first_name': 'Matlakala', 'initials': 'MC', 'last_name': 'Mathabe', 'id': 473}, 'first_author': True, 'id': 632}, {'author': {'first_name': 'Ahmed', 'initials': 'AA', 'last_name': 'Hussein', 'id': 440}, 'first_author': None, 'id': 1230}, {'author': {'first_name': 'Roumiana', 'initials': 'RV', 'last_name': 'Nikolova', 'id': 475}, 'first_author': None, 'id': 1231}, {'author': {'first_name': 'Adriaan', 'initials': 'AE', 'last_name': 'Basson', 'id': 476}, 'first_author': None, 'id': 1232}, {'author': {'first_name': 'Jacobus', 'initials': 'JJM', 'last_name': 'Meyer', 'id': 467}, 'first_author': None, 'id': 1233}, {'author': {'first_name': 'Namrita', 'initials': 'N', 'last_name': 'Lall', 'id': 441}, 'first_author': None, 'id': 1234}], 'id': 238}, {'journal': {'name': 'Journal of Natural Products', 'id': 5}, 'title': 'Antibacterial Activity of Naphthoquinones and Triterpenoids from Euclea natalensis Root Bark', 'year': 2004, 'start_page': 1936, 'volume': 67, 'issue': 11, 'doi': '10.1021/np030465d', 'isbn': '', 'despositor': {'code': 'NFA', 'first_name': 'Ngonidzashe', 'last_name': 'Faya', 'id': 21}, 'refauthors_set': [{'author': {'first_name': 'Oliver', 'initials': 'O', 'last_name': 'Weigenand', 'id': 715}, 'first_author': True, 'id': 1044}, {'author': {'first_name': 'Ahmed', 'initials': 'AA', 'last_name': 'Hussein', 'id': 440}, 'first_author': None, 'id': 1123}, {'author': {'first_name': 'Namrita', 'initials': 'N', 'last_name': 'Lall', 'id': 441}, 'first_author': None, 'id': 1124}, {'author': {'first_name': 'Jacobus', 'initials': 'JM', 'last_name': 'Meyer', 'id': 716}, 'first_author': None, 'id': 1125}], 'id': 346}, {'journal': {'name': 'Journal of Natural Products', 'id': 5}, 'title': 'Cembranolides from the Leaves of Croton gratissimus', 'year': 2011, 'start_page': 2349, 'volume': 74, 'issue': None, 'doi': '10.1021/np2002012', 'isbn': '', 'despositor': {'code': 'NFA', 'first_name': 'Ngonidzashe', 'last_name': 'Faya', 'id': 21}, 'refauthors_set': [{'author': {'first_name': 'Moses', 'initials': 'MK', 'last_name': 'Langat', 'id': 730}, 'first_author': True, 'id': 1048}, {'author': {'first_name': 'Neil', 'initials': 'NR', 'last_name': 'Crouch', 'id': 524}, 'first_author': None, 'id': 1142}, {'author': {'first_name': 'Peter', 'initials': 'PJ', 'last_name': 'Smith', 'id': 490}, 'first_author': None, 'id': 1143}, {'author': {'first_name': 'Dulcie', 'initials': 'DA', 'last_name': 'Mulholland', 'id': 525}, 'first_author': None, 'id': 1144}], 'id': 351}]

>  <classifications>  (75) 
[{'classification': 'Terpenoid', 'id': 839}, {'classification': 'Triterpene', 'id': 842}, {'classification': 'Phenol lipids (Classyfire)', 'id': 951}]

>  <molecular_mass>  (75) 
426.72

$$$$
SANC00176_minRM1.pdb
     RDKit          3D

 28 28  0  0  1  0  0  0  0  0999 V2000
    3.3290    1.0770    0.1310 C   0  0  0  0  0  0  0  0  0  0  0  0
    1.8940    0.7250   -0.0030 C   0  0  0  0  0  0  0  0  0  0  0  0
    1.4760   -0.5530   -0.0680 C   0  0  0  0  0  0  0  0  0  0  0  0
    2.4170   -1.5270    0.0540 O   0  0  0  0  0  0  0  0  0  0  0  0
    0.0550   -0.9310   -0.2400 C   0  0  0  0  0  0  0  0  0  0  0  0
   -0.2710   -2.1070   -0.2470 O   0  0  0  0  0  0  0  0  0  0  0  0
   -0.9180    0.2020   -0.4590 C   0  0  1  0  0  0  0  0  0  0  0  0
   -2.3630   -0.2320   -0.1720 C   0  0  1  0  0  0  0  0  0  0  0  0
   -2.5870   -0.5190    1.3060 C   0  0  0  0  0  0  0  0  0  0  0  0
   -3.3510    0.8260   -0.6520 C   0  0  0  0  0  0  0  0  0  0  0  0
   -0.4730    1.3940    0.3820 C   0  0  0  0  0  0  0  0  0  0  0  0
    0.9170    1.8460   -0.0580 C   0  0  0  0  0  0  0  0  0  0  0  0
    3.6750    0.9230    1.1650 H   0  0  0  0  0  0  0  0  0  0  0  0
    3.9730    0.4550   -0.5100 H   0  0  0  0  0  0  0  0  0  0  0  0
    3.5430    2.1240   -0.1290 H   0  0  0  0  0  0  0  0  0  0  0  0
    2.0240   -2.3760   -0.1810 H   0  0  0  0  0  0  0  0  0  0  0  0
   -0.8380    0.4690   -1.5480 H   0  0  0  0  0  0  0  0  0  0  0  0
   -2.5600   -1.1740   -0.7510 H   0  0  0  0  0  0  0  0  0  0  0  0
   -3.5520   -1.0200    1.4750 H   0  0  0  0  0  0  0  0  0  0  0  0
   -1.8170   -1.1800    1.7280 H   0  0  0  0  0  0  0  0  0  0  0  0
   -2.6060    0.3900    1.9250 H   0  0  0  0  0  0  0  0  0  0  0  0
   -3.2170    1.0730   -1.7150 H   0  0  0  0  0  0  0  0  0  0  0  0
   -4.3900    0.4810   -0.5410 H   0  0  0  0  0  0  0  0  0  0  0  0
   -3.2830    1.7710   -0.0950 H   0  0  0  0  0  0  0  0  0  0  0  0
   -1.1920    2.2340    0.2960 H   0  0  0  0  0  0  0  0  0  0  0  0
   -0.4590    1.1390    1.4630 H   0  0  0  0  0  0  0  0  0  0  0  0
    1.2560    2.6930    0.5780 H   0  0  0  0  0  0  0  0  0  0  0  0
    0.8970    2.2630   -1.0890 H   0  0  0  0  0  0  0  0  0  0  0  0
  1 14  1  0
  1 15  1  0
  1  2  1  0
  1 13  1  0
  2  3  2  0
  2 12  1  0
  3  5  1  0
  3  4  1  0
  4 16  1  0
  5  7  1  0
  5  6  2  0
  7 17  1  6
  7  8  1  0
  7 11  1  0
  8 18  1  6
  8 10  1  0
  8  9  1  0
  9 19  1  0
  9 20  1  0
  9 21  1  0
 10 22  1  0
 10 23  1  0
 10 24  1  0
 11 12  1  0
 11 25  1  0
 11 26  1  0
 12 28  1  0
 12 27  1  0
M  END
>  <id>  (76) 
176

>  <scaffolds>  (76) 
['C1=CCCCC1', 'O=C1C=CCCC1']

>  <name>  (76) 
Diosphenol 2

>  <formula>  (76) 
C10H16O2

>  <SMILES>  (76) 
CC1=C(O)C(=O)C(C(C)C)CC1

>  <ChEMBL_id>  (76) 


>  <ZINC_id>  (76) 


>  <PubChem_id>  (76) 
 79023

>  <DrugBank_id>  (76) 


>  <CAS_no>  (76) 
490-03-9

>  <references>  (76) 
[{'journal': {'name': 'Journal of Ethnopharmacology', 'id': 7}, 'title': 'Antibacterial activities and cytotoxicity of terpenoids isolated from Spirostachys africana', 'year': 2008, 'start_page': 194, 'volume': 116, 'issue': 1, 'doi': '10.1016/j.jep.2007.11.017', 'isbn': '', 'despositor': {'code': 'NFA', 'first_name': 'Ngonidzashe', 'last_name': 'Faya', 'id': 21}, 'refauthors_set': [{'author': {'first_name': 'Matlakala', 'initials': 'MC', 'last_name': 'Mathabe', 'id': 473}, 'first_author': True, 'id': 632}, {'author': {'first_name': 'Ahmed', 'initials': 'AA', 'last_name': 'Hussein', 'id': 440}, 'first_author': None, 'id': 1230}, {'author': {'first_name': 'Roumiana', 'initials': 'RV', 'last_name': 'Nikolova', 'id': 475}, 'first_author': None, 'id': 1231}, {'author': {'first_name': 'Adriaan', 'initials': 'AE', 'last_name': 'Basson', 'id': 476}, 'first_author': None, 'id': 1232}, {'author': {'first_name': 'Jacobus', 'initials': 'JJM', 'last_name': 'Meyer', 'id': 467}, 'first_author': None, 'id': 1233}, {'author': {'first_name': 'Namrita', 'initials': 'N', 'last_name': 'Lall', 'id': 441}, 'first_author': None, 'id': 1234}], 'id': 238}]

>  <classifications>  (76) 
[{'classification': 'Diterpene', 'id': 771}, {'classification': 'Terpenoid', 'id': 839}, {'classification': 'Phenol lipids (Classyfire)', 'id': 951}]

>  <molecular_mass>  (76) 
168.23

$$$$
SANC00177_minRM1.pdb
     RDKit          3D

175181  0  0  1  0  0  0  0  0999 V2000
   -2.9610    0.7370   -0.7020 H   0  0  0  0  0  0  0  0  0  0  0  0
   -3.0630    0.6980    0.4150 C   0  0  2  0  0  0  0  0  0  0  0  0
   -1.7110    0.3740    1.0380 C   0  0  0  0  0  0  0  0  0  0  0  0
   -3.5530    2.0730    0.9190 C   0  0  1  0  0  0  0  0  0  0  0  0
   -3.5420    2.1170    2.0400 H   0  0  0  0  0  0  0  0  0  0  0  0
   -2.6160    2.9780    0.3690 O   0  0  0  0  0  0  0  0  0  0  0  0
   -2.4990    4.2090    0.9560 C   0  0  0  0  0  0  0  0  0  0  0  0
   -3.4720    4.9220    1.0520 O   0  0  0  0  0  0  0  0  0  0  0  0
   -1.0950    4.5510    1.3630 C   0  0  0  0  0  0  0  0  0  0  0  0
   -0.2900    5.2130    0.2250 C   0  0  1  0  0  0  0  0  0  0  0  0
    0.4270    4.4580   -0.2150 H   0  0  0  0  0  0  0  0  0  0  0  0
   -1.1660    5.8030   -0.8800 C   0  0  0  0  0  0  0  0  0  0  0  0
   -0.2930    6.5630   -1.8800 C   0  0  2  0  0  0  0  0  0  0  0  0
   -0.9400    7.1020   -2.6280 H   0  0  0  0  0  0  0  0  0  0  0  0
    0.5950    5.6720   -2.5280 O   0  0  0  0  0  0  0  0  0  0  0  0
    0.1250    4.9200   -3.5550 C   0  0  0  0  0  0  0  0  0  0  0  0
    1.1960    4.0670   -4.1570 C   0  0  0  0  0  0  0  0  0  0  0  0
   -1.0430    4.9810   -3.8980 O   0  0  0  0  0  0  0  0  0  0  0  0
    0.6020    7.5760   -1.1630 C   0  0  0  0  0  0  0  0  0  0  0  0
    1.2770    7.0020    0.0970 C   0  0  2  0  0  0  0  0  0  0  0  0
    1.7760    8.1550    0.9950 C   0  0  0  0  0  0  0  0  0  0  0  0
    2.7740    7.6800    2.0580 C   0  0  1  0  0  0  0  0  0  0  0  0
    3.4340    8.8850    2.7420 C   0  0  0  0  0  0  0  0  0  0  0  0
    2.0240    6.9610    2.9900 O   0  0  0  0  0  0  0  0  0  0  0  0
    3.8410    6.7990    1.3910 C   0  0  0  0  0  0  0  0  0  0  0  0
    3.1430    5.6440    0.6620 C   0  0  2  0  0  0  0  0  0  0  0  0
    2.5520    5.0390    1.4030 H   0  0  0  0  0  0  0  0  0  0  0  0
    4.1510    4.7430   -0.0830 C   0  0  0  0  0  0  0  0  0  0  0  0
    3.8340    3.3020    0.1690 C   0  0  0  0  0  0  0  0  0  0  0  0
    2.6310    2.8210   -0.1320 C   0  0  0  0  0  0  0  0  0  0  0  0
    4.9150    2.4530    0.7730 C   0  0  1  0  0  0  0  0  0  0  0  0
    5.7840    3.1030    1.0640 H   0  0  0  0  0  0  0  0  0  0  0  0
    4.3990    1.7780    2.0370 C   0  0  0  0  0  0  0  0  0  0  0  0
    5.4240    1.4590   -0.2930 C   0  0  2  0  0  0  0  0  0  0  0  0
    5.6480    2.0340   -1.2350 H   0  0  0  0  0  0  0  0  0  0  0  0
    4.4260    0.4990   -0.4840 O   0  0  0  0  0  0  0  0  0  0  0  0
    6.7100    0.7190    0.1550 C   0  0  2  0  0  0  0  0  0  0  0  0
    6.5250    0.1900    1.1230 H   0  0  0  0  0  0  0  0  0  0  0  0
    7.8730    1.6860    0.3240 C   0  0  0  0  0  0  0  0  0  0  0  0
    7.0570   -0.2800   -0.9340 C   0  0  0  0  0  0  0  0  0  0  0  0
    7.3970    0.1170   -2.0370 O   0  0  0  0  0  0  0  0  0  0  0  0
    6.9300   -1.7490   -0.6330 C   0  0  0  0  0  0  0  0  0  0  0  0
    8.3150   -2.3560   -0.3670 C   0  0  2  0  0  0  0  0  0  0  0  0
    8.8580   -1.6990    0.3690 H   0  0  0  0  0  0  0  0  0  0  0  0
    9.1630   -2.5290   -1.6250 C   0  0  0  0  0  0  0  0  0  0  0  0
    8.7250   -3.7220   -2.4770 C   0  0  2  0  0  0  0  0  0  0  0  0
    9.4980   -3.9040   -3.2770 H   0  0  0  0  0  0  0  0  0  0  0  0
    7.4560   -3.5380   -3.0500 O   0  0  0  0  0  0  0  0  0  0  0  0
    7.4450   -2.6970   -4.1720 C   0  0  0  0  0  0  0  0  0  0  0  0
    8.6200   -4.9690   -1.5960 C   0  0  0  0  0  0  0  0  0  0  0  0
    7.8590   -4.7280   -0.2800 C   0  0  2  0  0  0  0  0  0  0  0  0
    8.1760   -5.8580    0.7350 C   0  0  0  0  0  0  0  0  0  0  0  0
    6.8800   -6.5290    1.2020 C   0  0  1  0  0  0  0  0  0  0  0  0
    6.4240   -7.1290    0.3660 H   0  0  0  0  0  0  0  0  0  0  0  0
    7.2440   -7.3510    2.2740 O   0  0  0  0  0  0  0  0  0  0  0  0
    5.9190   -5.4230    1.6490 C   0  0  0  0  0  0  0  0  0  0  0  0
    5.5840   -4.5290    0.4430 C   0  0  2  0  0  0  0  0  0  0  0  0
    5.5560   -3.4460    0.7620 H   0  0  0  0  0  0  0  0  0  0  0  0
    4.2600   -4.9590   -0.1300 C   0  0  0  0  0  0  0  0  0  0  0  0
    3.1170   -4.4830    0.3630 C   0  0  0  0  0  0  0  0  0  0  0  0
    1.7900   -4.9660   -0.1230 C   0  0  0  0  0  0  0  0  0  0  0  0
    0.6590   -4.4750    0.7810 C   0  0  0  0  0  0  0  0  0  0  0  0
   -0.6470   -5.2190    0.5010 C   0  0  0  0  0  0  0  0  0  0  0  0
   -1.7760   -4.6400    1.3700 C   0  0  1  0  0  0  0  0  0  0  0  0
   -1.3400   -4.2660    2.3400 H   0  0  0  0  0  0  0  0  0  0  0  0
   -2.3220   -3.5800    0.6200 O   0  0  0  0  0  0  0  0  0  0  0  0
   -3.3050   -2.8190    1.2750 C   0  0  2  0  0  0  0  0  0  0  0  0
   -2.6780   -2.1000    2.2830 O   0  0  0  0  0  0  0  0  0  0  0  0
   -4.4570   -3.6900    1.8080 C   0  0  0  0  0  0  0  0  0  0  0  0
   -3.9690   -4.9570    2.5220 C   0  0  2  0  0  0  0  0  0  0  0  0
   -4.8390   -5.6560    2.6770 H   0  0  0  0  0  0  0  0  0  0  0  0
   -3.3780   -4.6430    3.7530 O   0  0  0  0  0  0  0  0  0  0  0  0
   -2.8760   -5.6650    1.6960 C   0  0  1  0  0  0  0  0  0  0  0  0
   -2.4300   -6.4870    2.3150 H   0  0  0  0  0  0  0  0  0  0  0  0
   -3.4800   -6.2650    0.4370 C   0  0  0  0  0  0  0  0  0  0  0  0
   -3.7440   -1.7560    0.1840 C   0  0  1  0  0  0  0  0  0  0  0  0
   -2.8950   -1.6240   -0.5450 H   0  0  0  0  0  0  0  0  0  0  0  0
   -4.8830   -2.2400   -0.4580 O   0  0  0  0  0  0  0  0  0  0  0  0
   -4.1190   -0.3690    0.7900 C   0  0  2  0  0  0  0  0  0  0  0  0
   -4.2380   -0.4270    1.9060 H   0  0  0  0  0  0  0  0  0  0  0  0
   -5.3410   -0.0200    0.1810 O   0  0  0  0  0  0  0  0  0  0  0  0
   -5.8950    1.1540    0.7240 C   0  0  2  0  0  0  0  0  0  0  0  0
   -6.0230    1.0790    1.8410 H   0  0  0  0  0  0  0  0  0  0  0  0
   -7.2710    1.3150    0.0540 C   0  0  0  0  0  0  0  0  0  0  0  0
   -8.2600    0.4410    0.7550 C   0  0  0  0  0  0  0  0  0  0  0  0
   -8.8870    0.8530    1.8530 C   0  0  0  0  0  0  0  0  0  0  0  0
   -8.5030   -0.9120    0.1760 C   0  0  0  0  0  0  0  0  0  0  0  0
   -9.6480   -0.8390   -0.8540 C   0  0  2  0  0  0  0  0  0  0  0  0
   -9.3720   -0.1670   -1.7130 H   0  0  0  0  0  0  0  0  0  0  0  0
  -10.7800   -0.2220   -0.3240 O   0  0  0  0  0  0  0  0  0  0  0  0
   -9.9280   -2.2190   -1.3840 C   0  0  0  0  0  0  0  0  0  0  0  0
  -11.1590   -2.7010   -1.5600 C   0  0  0  0  0  0  0  0  0  0  0  0
  -11.4260   -4.0170   -2.0930 C   0  0  0  0  0  0  0  0  0  0  0  0
  -12.6040   -4.6210   -2.1750 C   0  0  0  0  0  0  0  0  0  0  0  0
  -10.0340   -4.8870   -2.7130 Cl  0  0  0  0  0  0  0  0  0  0  0  0
   -4.9770    2.3620    0.3860 C   0  0  1  0  0  0  0  0  0  0  0  0
   -4.9470    2.5360   -0.7210 H   0  0  0  0  0  0  0  0  0  0  0  0
   -5.5060    3.4290    1.1140 O   0  0  0  0  0  0  0  0  0  0  0  0
    6.5060   -4.6520   -0.6190 O   0  0  0  0  0  0  0  0  0  0  0  0
    8.2130   -3.5410    0.3720 O   0  0  0  0  0  0  0  0  0  0  0  0
    2.3070    6.1670   -0.3470 O   0  0  0  0  0  0  0  0  0  0  0  0
    0.4050    6.2480    0.8850 O   0  0  0  0  0  0  0  0  0  0  0  0
   -1.3040   -0.5890    0.6960 H   0  0  0  0  0  0  0  0  0  0  0  0
   -0.9480    1.1260    0.7840 H   0  0  0  0  0  0  0  0  0  0  0  0
   -1.7550    0.3250    2.1370 H   0  0  0  0  0  0  0  0  0  0  0  0
   -1.1490    5.2050    2.2660 H   0  0  0  0  0  0  0  0  0  0  0  0
   -0.5640    3.6400    1.7180 H   0  0  0  0  0  0  0  0  0  0  0  0
   -1.7460    5.0060   -1.3920 H   0  0  0  0  0  0  0  0  0  0  0  0
   -1.9280    6.4920   -0.4580 H   0  0  0  0  0  0  0  0  0  0  0  0
    1.1940    3.0680   -3.6940 H   0  0  0  0  0  0  0  0  0  0  0  0
    1.0270    3.9340   -5.2370 H   0  0  0  0  0  0  0  0  0  0  0  0
    2.2060    4.4850   -4.0270 H   0  0  0  0  0  0  0  0  0  0  0  0
    1.3700    7.9810   -1.8550 H   0  0  0  0  0  0  0  0  0  0  0  0
   -0.0220    8.4480   -0.8730 H   0  0  0  0  0  0  0  0  0  0  0  0
    2.2580    8.9240    0.3560 H   0  0  0  0  0  0  0  0  0  0  0  0
    0.9130    8.6630    1.4740 H   0  0  0  0  0  0  0  0  0  0  0  0
    2.6920    9.5190    3.2490 H   0  0  0  0  0  0  0  0  0  0  0  0
    4.1650    8.5820    3.5050 H   0  0  0  0  0  0  0  0  0  0  0  0
    3.9710    9.5260    2.0310 H   0  0  0  0  0  0  0  0  0  0  0  0
    2.6290    6.6160    3.6540 H   0  0  0  0  0  0  0  0  0  0  0  0
    4.4500    7.4020    0.6880 H   0  0  0  0  0  0  0  0  0  0  0  0
    4.5630    6.4080    2.1360 H   0  0  0  0  0  0  0  0  0  0  0  0
    4.1460    4.9350   -1.1790 H   0  0  0  0  0  0  0  0  0  0  0  0
    5.1900    4.9950    0.2170 H   0  0  0  0  0  0  0  0  0  0  0  0
    1.8350    3.4400   -0.5510 H   0  0  0  0  0  0  0  0  0  0  0  0
    2.3230    1.7920    0.0160 H   0  0  0  0  0  0  0  0  0  0  0  0
    3.6610    0.9880    1.8440 H   0  0  0  0  0  0  0  0  0  0  0  0
    5.2070    1.3170    2.6220 H   0  0  0  0  0  0  0  0  0  0  0  0
    3.9110    2.5050    2.7030 H   0  0  0  0  0  0  0  0  0  0  0  0
    4.4040    0.2870   -1.4210 H   0  0  0  0  0  0  0  0  0  0  0  0
    7.6850    2.4250    1.1170 H   0  0  0  0  0  0  0  0  0  0  0  0
    8.8010    1.1620    0.5970 H   0  0  0  0  0  0  0  0  0  0  0  0
    8.0880    2.2520   -0.5950 H   0  0  0  0  0  0  0  0  0  0  0  0
    6.2600   -1.9290    0.2400 H   0  0  0  0  0  0  0  0  0  0  0  0
    6.3990   -2.2530   -1.4680 H   0  0  0  0  0  0  0  0  0  0  0  0
    9.1800   -1.5930   -2.2180 H   0  0  0  0  0  0  0  0  0  0  0  0
   10.2240   -2.6800   -1.3280 H   0  0  0  0  0  0  0  0  0  0  0  0
    6.3770   -2.6160   -4.4410 H   0  0  0  0  0  0  0  0  0  0  0  0
    7.8350   -1.6790   -3.9810 H   0  0  0  0  0  0  0  0  0  0  0  0
    7.9940   -3.1250   -5.0320 H   0  0  0  0  0  0  0  0  0  0  0  0
    8.1490   -5.8060   -2.1540 H   0  0  0  0  0  0  0  0  0  0  0  0
    9.6510   -5.3130   -1.3640 H   0  0  0  0  0  0  0  0  0  0  0  0
    8.8520   -6.6200    0.2960 H   0  0  0  0  0  0  0  0  0  0  0  0
    8.7500   -5.4720    1.6060 H   0  0  0  0  0  0  0  0  0  0  0  0
    6.4540   -7.8190    2.5590 H   0  0  0  0  0  0  0  0  0  0  0  0
    4.9960   -5.8440    2.0980 H   0  0  0  0  0  0  0  0  0  0  0  0
    6.3740   -4.8300    2.4700 H   0  0  0  0  0  0  0  0  0  0  0  0
    4.2890   -5.6920   -0.9440 H   0  0  0  0  0  0  0  0  0  0  0  0
    3.1100   -3.7210    1.1540 H   0  0  0  0  0  0  0  0  0  0  0  0
    1.6260   -4.6250   -1.1680 H   0  0  0  0  0  0  0  0  0  0  0  0
    1.7870   -6.0750   -0.1870 H   0  0  0  0  0  0  0  0  0  0  0  0
    0.9440   -4.6060    1.8480 H   0  0  0  0  0  0  0  0  0  0  0  0
    0.5160   -3.3820    0.6550 H   0  0  0  0  0  0  0  0  0  0  0  0
   -0.9030   -5.1740   -0.5790 H   0  0  0  0  0  0  0  0  0  0  0  0
   -0.5230   -6.3010    0.7180 H   0  0  0  0  0  0  0  0  0  0  0  0
   -2.3550   -2.6920    2.9710 H   0  0  0  0  0  0  0  0  0  0  0  0
   -5.1050   -3.0720    2.4640 H   0  0  0  0  0  0  0  0  0  0  0  0
   -5.1310   -4.0070    0.9840 H   0  0  0  0  0  0  0  0  0  0  0  0
   -4.0740   -4.3340    4.3410 H   0  0  0  0  0  0  0  0  0  0  0  0
   -3.7850   -5.5060   -0.2980 H   0  0  0  0  0  0  0  0  0  0  0  0
   -2.7750   -6.9300   -0.0830 H   0  0  0  0  0  0  0  0  0  0  0  0
   -4.3690   -6.8760    0.6520 H   0  0  0  0  0  0  0  0  0  0  0  0
   -4.5940   -2.6220   -1.2910 H   0  0  0  0  0  0  0  0  0  0  0  0
   -7.5920    2.3790    0.0990 H   0  0  0  0  0  0  0  0  0  0  0  0
   -7.2200    1.0880   -1.0330 H   0  0  0  0  0  0  0  0  0  0  0  0
   -9.6180    0.2590    2.3930 H   0  0  0  0  0  0  0  0  0  0  0  0
   -8.7270    1.8250    2.3100 H   0  0  0  0  0  0  0  0  0  0  0  0
   -7.5790   -1.3080   -0.2980 H   0  0  0  0  0  0  0  0  0  0  0  0
   -8.7440   -1.6500    0.9700 H   0  0  0  0  0  0  0  0  0  0  0  0
  -11.0200   -0.6770    0.4910 H   0  0  0  0  0  0  0  0  0  0  0  0
   -9.0360   -2.8010   -1.6500 H   0  0  0  0  0  0  0  0  0  0  0  0
  -12.0570   -2.1160   -1.3220 H   0  0  0  0  0  0  0  0  0  0  0  0
  -13.5270   -4.1700   -1.8260 H   0  0  0  0  0  0  0  0  0  0  0  0
  -12.7390   -5.6080   -2.6020 H   0  0  0  0  0  0  0  0  0  0  0  0
   -5.5840    4.1810    0.5170 H   0  0  0  0  0  0  0  0  0  0  0  0
  2  1  1  6
  2 79  1  0
  2  4  1  0
  2  3  1  0
  3103  1  0
  3104  1  0
  3105  1  0
  4  6  1  0
  4 96  1  0
  4  5  1  1
  6  7  1  0
  7  8  2  0
  7  9  1  0
  9 10  1  0
  9107  1  0
  9106  1  0
 10 12  1  0
 10 11  1  6
 10102  1  0
 12 13  1  0
 12108  1  0
 12109  1  0
 13 14  1  6
 13 15  1  0
 13 19  1  0
 15 16  1  0
 16 17  1  0
 16 18  2  0
 17111  1  0
 17112  1  0
 17110  1  0
 19113  1  0
 19114  1  0
 20 19  1  6
 20101  1  0
 20102  1  0
 20 21  1  0
 21115  1  0
 21116  1  0
 21 22  1  0
 22 25  1  0
 22 23  1  0
 22 24  1  1
 23119  1  0
 23117  1  0
 23118  1  0
 24120  1  0
 25 26  1  0
 25121  1  0
 25122  1  0
 26101  1  0
 26 28  1  0
 26 27  1  1
 28123  1  0
 28 29  1  0
 28124  1  0
 29 30  2  0
 29 31  1  0
 30125  1  0
 30126  1  0
 31 34  1  0
 31 32  1  1
 31 33  1  0
 33127  1  0
 33128  1  0
 33129  1  0
 34 35  1  6
 34 36  1  0
 34 37  1  0
 36130  1  0
 37 40  1  0
 37 39  1  0
 37 38  1  1
 39133  1  0
 39132  1  0
 39131  1  0
 40 41  2  0
 40 42  1  0
 42135  1  0
 42 43  1  0
 42134  1  0
 43 45  1  0
 43 44  1  1
 43100  1  0
 45 46  1  0
 45136  1  0
 45137  1  0
 46 47  1  6
 46 48  1  0
 46 50  1  0
 48 49  1  0
 49140  1  0
 49138  1  0
 49139  1  0
 50141  1  0
 50142  1  0
 51 50  1  6
 51 99  1  0
 51100  1  0
 51 52  1  0
 52143  1  0
 52 53  1  0
 52144  1  0
 53 54  1  6
 53 56  1  0
 53 55  1  0
 55145  1  0
 56 57  1  0
 56146  1  0
 56147  1  0
 57 99  1  0
 57 59  1  0
 57 58  1  1
 59148  1  0
 59 60  2  0
 60 61  1  0
 60149  1  0
 61150  1  0
 61151  1  0
 61 62  1  0
 62 63  1  0
 62153  1  0
 62152  1  0
 63154  1  0
 63155  1  0
 63 64  1  0
 64 66  1  0
 64 73  1  0
 64 65  1  1
 66 67  1  0
 67 76  1  0
 67 69  1  0
 67 68  1  1
 68156  1  0
 69158  1  0
 69157  1  0
 69 70  1  0
 70 73  1  0
 70 71  1  1
 70 72  1  0
 72159  1  0
 73 75  1  0
 73 74  1  1
 75160  1  0
 75161  1  0
 75162  1  0
 76 77  1  6
 76 78  1  0
 76 79  1  0
 78163  1  0
 79 81  1  0
 79 80  1  1
 81 82  1  0
 82 84  1  0
 82 96  1  0
 82 83  1  1
 84165  1  0
 84164  1  0
 84 85  1  0
 85 87  1  0
 85 86  2  0
 86167  1  0
 86166  1  0
 87 88  1  0
 87168  1  0
 87169  1  0
 88 89  1  6
 88 91  1  0
 88 90  1  0
 90170  1  0
 91171  1  0
 91 92  2  0
 92 93  1  0
 92172  1  0
 93 95  1  0
 93 94  2  0
 94174  1  0
 94173  1  0
 96 97  1  6
 96 98  1  0
 98175  1  0
M  END
>  <id>  (77) 
177

>  <scaffolds>  (77) 
['C1CCOCC1', 'C=C1CCCC(=O)CC2CCCC3(CCCC(C=CCCCC4CCCC(CC5CC(CCO5)OC(=O)CC5CCCC6(CCCC(C1)O6)O5)O4)O3)O2']

>  <name>  (77) 
Spongiostatin 4

>  <formula>  (77) 
C61H93ClO20

>  <SMILES>  (77) 
Cl/C(=C)/C=C/[C@H](O)C/C(=C)C[C@H]3OC4[C@@H](O)[C@@]7(O)O[C@@H](CCC\C=C/[C@H]6O[C@]1(OC(C[C@@H](OC)C1)CC(=O)[C@@H](C)[C@H](O)[C@H](\C(=C)C[C@H]5O[C@]2(OC(C[C@@H](OC(=O)C)C2)CC(=O)O[C@@H]([C@@H]3O)[C@H]4C)C[C@@](O)(C)C5)C)C[C@H](O)C6)[C@@H](C)[C@H](O)C7

>  <ChEMBL_id>  (77) 


>  <ZINC_id>  (77) 


>  <PubChem_id>  (77) 
 6479882

>  <DrugBank_id>  (77) 


>  <CAS_no>  (77) 
153745-94-9

>  <references>  (77) 
[{'journal': {'name': 'Journal of the Chemical Society, Chemical Communications', 'id': 8}, 'title': 'Isolation and structure of the powerful human cancer cell growth inhibitors spongistatins 4 and 5 from an African Spirastrella spinispirulifera (Porifera)', 'year': 1993, 'start_page': 1805, 'volume': None, 'issue': 24, 'doi': '10.1039/C39930001805', 'isbn': '', 'despositor': {'code': 'TMM', 'first_name': 'Thommas', 'last_name': 'Musyoka', 'id': 22}, 'refauthors_set': [{'author': {'first_name': 'George', 'initials': 'GR', 'last_name': 'Pettit', 'id': 478}, 'first_author': True, 'id': 633}, {'author': {'first_name': '', 'initials': 'LH', 'last_name': 'Cherry', 'id': 493}, 'first_author': False, 'id': 655}, {'author': {'first_name': '', 'initials': 'AC', 'last_name': 'Zbigniew', 'id': 494}, 'first_author': False, 'id': 656}, {'author': {'first_name': '', 'initials': 'G', 'last_name': 'Feng', 'id': 496}, 'first_author': False, 'id': 657}, {'author': {'first_name': '', 'initials': 'MS', 'last_name': 'Jean', 'id': 499}, 'first_author': False, 'id': 658}, {'author': {'first_name': '', 'initials': 'RB', 'last_name': 'Michael', 'id': 501}, 'first_author': False, 'id': 659}, {'author': {'first_name': '', 'initials': 'DC', 'last_name': 'Nigel', 'id': 502}, 'first_author': False, 'id': 660}, {'author': {'first_name': '', 'initials': 'EB', 'last_name': 'Fred', 'id': 503}, 'first_author': False, 'id': 661}], 'id': 239}]

>  <classifications>  (77) 
[{'classification': 'Polyketide', 'id': 810}, {'classification': 'Organooxygen compounds (Classyfire)', 'id': 954}]

>  <molecular_mass>  (77) 
1181.83

$$$$
SANC00178_minRM1.pdb
     RDKit          3D

140152  0  0  1  0  0  0  0  0999 V2000
  -11.8290   -0.6030   -1.7030 C   0  0  0  0  0  0  0  0  0  0  0  0
  -10.4590   -0.9010   -1.1060 C   0  0  1  0  0  0  0  0  0  0  0  0
   -9.9680   -1.7000   -1.7240 H   0  0  0  0  0  0  0  0  0  0  0  0
   -9.5790    0.3420   -1.1800 C   0  0  1  0  0  0  0  0  0  0  0  0
   -9.4850    0.6330   -2.2560 H   0  0  0  0  0  0  0  0  0  0  0  0
  -10.0850    1.5630   -0.4020 C   0  0  0  0  0  0  0  0  0  0  0  0
   -8.8330    2.2240    0.0920 C   0  0  0  0  0  0  0  0  0  0  0  0
   -7.7770    1.4180   -0.0220 C   0  0  0  0  0  0  0  0  0  0  0  0
   -8.1760    0.0830   -0.5930 C   0  0  1  0  0  0  0  0  0  0  0  0
   -8.2300   -0.9930    0.5000 C   0  0  0  0  0  0  0  0  0  0  0  0
   -9.4670   -1.0360    1.1450 O   0  0  0  0  0  0  0  0  0  0  0  0
  -10.5500   -1.4350    0.3370 C   0  0  2  0  0  0  0  0  0  0  0  0
  -10.6760   -2.9910    0.4910 C   0  0  1  0  0  0  0  0  0  0  0  0
   -9.6840   -3.5090    0.4940 H   0  0  0  0  0  0  0  0  0  0  0  0
  -11.3970   -3.1090    1.8450 C   0  0  0  0  0  0  0  0  0  0  0  0
  -12.1770   -1.7880    1.9620 C   0  0  1  0  0  0  0  0  0  0  0  0
  -11.6460   -0.8890    1.0030 O   0  0  0  0  0  0  0  0  0  0  0  0
  -13.6450   -1.9800    1.6130 C   0  0  0  0  0  0  0  0  0  0  0  0
  -12.0250   -1.1560    3.3440 C   0  0  0  0  0  0  0  0  0  0  0  0
  -11.4660   -3.4400   -0.5610 O   0  0  0  0  0  0  0  0  0  0  0  0
   -7.1550   -0.3570   -1.6070 C   0  0  0  0  0  0  0  0  0  0  0  0
   -7.4490   -0.7720   -2.7120 O   0  0  0  0  0  0  0  0  0  0  0  0
   -5.7310   -0.2640   -1.1350 C   0  0  0  0  0  0  0  0  0  0  0  0
   -5.4170    1.1800   -0.7520 C   0  0  1  0  0  0  0  0  0  0  0  0
   -5.5820    1.8190   -1.6590 H   0  0  0  0  0  0  0  0  0  0  0  0
   -6.3610    1.6640    0.3550 C   0  0  1  0  0  0  0  0  0  0  0  0
   -6.1790    1.0910    1.3010 H   0  0  0  0  0  0  0  0  0  0  0  0
   -6.0850    3.1450    0.6150 C   0  0  0  0  0  0  0  0  0  0  0  0
   -4.6360    3.3500    1.0400 C   0  0  0  0  0  0  0  0  0  0  0  0
   -3.6580    2.7950    0.0050 C   0  0  2  0  0  0  0  0  0  0  0  0
   -3.7780    3.3860   -0.9410 H   0  0  0  0  0  0  0  0  0  0  0  0
   -3.9460    1.3210   -0.3070 C   0  0  2  0  0  0  0  0  0  0  0  0
   -3.0370    0.9130   -1.4770 C   0  0  0  0  0  0  0  0  0  0  0  0
   -1.6040    1.1520   -1.1370 C   0  0  0  0  0  0  0  0  0  0  0  0
   -1.2240    2.1590   -0.2270 C   0  0  0  0  0  0  0  0  0  0  0  0
   -2.2260    2.9830    0.5160 C   0  0  0  0  0  0  0  0  0  0  0  0
    0.0800    2.3920    0.0610 N   0  0  0  0  0  0  0  0  0  0  0  0
    0.9930    1.5910   -0.5390 C   0  0  0  0  0  0  0  0  0  0  0  0
    2.4290    1.8550   -0.2240 C   0  0  0  0  0  0  0  0  0  0  0  0
    3.2920    0.5990   -0.4330 C   0  0  1  0  0  0  0  0  0  0  0  0
    3.0380    0.0890   -1.8590 C   0  0  1  0  0  0  0  0  0  0  0  0
    3.2150    0.9350   -2.5750 H   0  0  0  0  0  0  0  0  0  0  0  0
    3.9820   -1.0550   -2.2280 C   0  0  0  0  0  0  0  0  0  0  0  0
    5.4370   -0.6380   -2.0650 C   0  0  0  0  0  0  0  0  0  0  0  0
    5.6960   -0.1840   -0.6300 C   0  0  2  0  0  0  0  0  0  0  0  0
    5.4970   -1.0430    0.0610 H   0  0  0  0  0  0  0  0  0  0  0  0
    4.7770    1.0030   -0.3020 C   0  0  2  0  0  0  0  0  0  0  0  0
    4.9890    1.8200   -1.0430 H   0  0  0  0  0  0  0  0  0  0  0  0
    5.0800    1.5350    1.0980 C   0  0  0  0  0  0  0  0  0  0  0  0
    6.5490    1.9850    1.2080 C   0  0  2  0  0  0  0  0  0  0  0  0
    6.7320    2.8040    0.4610 H   0  0  0  0  0  0  0  0  0  0  0  0
    7.4870    0.7820    0.9300 C   0  0  1  0  0  0  0  0  0  0  0  0
    7.1050    0.2440   -0.4260 C   0  0  0  0  0  0  0  0  0  0  0  0
    8.1060    0.2460   -1.3040 C   0  0  0  0  0  0  0  0  0  0  0  0
    9.3410    0.8840   -0.7440 C   0  0  1  0  0  0  0  0  0  0  0  0
    9.6370    1.7770   -1.3460 H   0  0  0  0  0  0  0  0  0  0  0  0
    8.9950    1.1810    0.7600 C   0  0  2  0  0  0  0  0  0  0  0  0
   10.0350    0.3240    1.5380 C   0  0  1  0  0  0  0  0  0  0  0  0
    9.5660   -0.2420    2.3800 H   0  0  0  0  0  0  0  0  0  0  0  0
   10.5660   -0.6330    0.4470 C   0  0  1  0  0  0  0  0  0  0  0  0
   10.4500    0.0250   -0.7810 O   0  0  0  0  0  0  0  0  0  0  0  0
   12.0090   -1.1840    0.5950 C   0  0  1  0  0  0  0  0  0  0  0  0
   12.2900   -1.2500    1.6810 H   0  0  0  0  0  0  0  0  0  0  0  0
   11.9190   -2.5960   -0.0170 C   0  0  0  0  0  0  0  0  0  0  0  0
   10.4130   -2.8310   -0.2460 C   0  0  1  0  0  0  0  0  0  0  0  0
    9.7340   -1.7610    0.3750 O   0  0  0  0  0  0  0  0  0  0  0  0
   10.0780   -2.8670   -1.7310 C   0  0  0  0  0  0  0  0  0  0  0  0
    9.9420   -4.1220    0.4620 C   0  0  0  0  0  0  0  0  0  0  0  0
    8.6170   -4.3600    0.1080 O   0  0  0  0  0  0  0  0  0  0  0  0
   12.8570   -0.3140   -0.0860 O   0  0  0  0  0  0  0  0  0  0  0  0
   11.1750    1.1390    2.1320 C   0  0  0  0  0  0  0  0  0  0  0  0
    9.0880    2.5340    1.0560 O   0  0  0  0  0  0  0  0  0  0  0  0
    7.2680   -0.2780    2.0020 C   0  0  0  0  0  0  0  0  0  0  0  0
    6.7080    2.4100    2.5300 O   0  0  0  0  0  0  0  0  0  0  0  0
    1.5940   -0.3870   -2.0230 C   0  0  0  0  0  0  0  0  0  0  0  0
    0.6080    0.5640   -1.4260 C   0  0  0  0  0  0  0  0  0  0  0  0
   -0.6930    0.3500   -1.7360 N   0  0  0  0  0  0  0  0  0  0  0  0
    2.9070   -0.4460    0.6090 C   0  0  0  0  0  0  0  0  0  0  0  0
   -3.6450    0.4300    0.8930 C   0  0  0  0  0  0  0  0  0  0  0  0
  -12.3000    0.2950   -1.2780 H   0  0  0  0  0  0  0  0  0  0  0  0
  -11.7610   -0.4490   -2.7910 H   0  0  0  0  0  0  0  0  0  0  0  0
  -12.5440   -1.4240   -1.5470 H   0  0  0  0  0  0  0  0  0  0  0  0
  -10.7000    2.2390   -1.0240 H   0  0  0  0  0  0  0  0  0  0  0  0
  -10.7320    1.3020    0.4580 H   0  0  0  0  0  0  0  0  0  0  0  0
   -8.8680    3.2380    0.4970 H   0  0  0  0  0  0  0  0  0  0  0  0
   -7.9470   -1.9900    0.0920 H   0  0  0  0  0  0  0  0  0  0  0  0
   -7.5160   -0.7940    1.3310 H   0  0  0  0  0  0  0  0  0  0  0  0
  -12.0430   -3.9980    1.9160 H   0  0  0  0  0  0  0  0  0  0  0  0
  -10.6680   -3.2300    2.6690 H   0  0  0  0  0  0  0  0  0  0  0  0
  -14.1420   -2.6390    2.3330 H   0  0  0  0  0  0  0  0  0  0  0  0
  -14.1970   -1.0370    1.6160 H   0  0  0  0  0  0  0  0  0  0  0  0
  -13.7710   -2.4170    0.6110 H   0  0  0  0  0  0  0  0  0  0  0  0
  -10.9920   -0.8720    3.5520 H   0  0  0  0  0  0  0  0  0  0  0  0
  -12.6190   -0.2470    3.4440 H   0  0  0  0  0  0  0  0  0  0  0  0
  -12.3490   -1.8350    4.1390 H   0  0  0  0  0  0  0  0  0  0  0  0
  -11.5340   -4.3960   -0.4720 H   0  0  0  0  0  0  0  0  0  0  0  0
   -5.5690   -0.9540   -0.2800 H   0  0  0  0  0  0  0  0  0  0  0  0
   -5.0310   -0.6320   -1.9180 H   0  0  0  0  0  0  0  0  0  0  0  0
   -6.3250    3.7510   -0.2830 H   0  0  0  0  0  0  0  0  0  0  0  0
   -6.7580    3.5370    1.4050 H   0  0  0  0  0  0  0  0  0  0  0  0
   -4.4390    4.4320    1.2000 H   0  0  0  0  0  0  0  0  0  0  0  0
   -4.4710    2.8960    2.0400 H   0  0  0  0  0  0  0  0  0  0  0  0
   -3.2110   -0.1490   -1.7570 H   0  0  0  0  0  0  0  0  0  0  0  0
   -3.2820    1.4820   -2.4010 H   0  0  0  0  0  0  0  0  0  0  0  0
   -1.9490    4.0600    0.4710 H   0  0  0  0  0  0  0  0  0  0  0  0
   -2.1490    2.7290    1.5970 H   0  0  0  0  0  0  0  0  0  0  0  0
    2.7760    2.6960   -0.8650 H   0  0  0  0  0  0  0  0  0  0  0  0
    2.5460    2.2370    0.8160 H   0  0  0  0  0  0  0  0  0  0  0  0
    3.7760   -1.9650   -1.6240 H   0  0  0  0  0  0  0  0  0  0  0  0
    3.7950   -1.3810   -3.2740 H   0  0  0  0  0  0  0  0  0  0  0  0
    6.1050   -1.4860   -2.3300 H   0  0  0  0  0  0  0  0  0  0  0  0
    5.6960    0.1620   -2.7900 H   0  0  0  0  0  0  0  0  0  0  0  0
    4.4130    2.3880    1.3530 H   0  0  0  0  0  0  0  0  0  0  0  0
    4.8470    0.7660    1.8720 H   0  0  0  0  0  0  0  0  0  0  0  0
    8.1150   -0.1340   -2.3210 H   0  0  0  0  0  0  0  0  0  0  0  0
   12.4970   -2.6900   -0.9530 H   0  0  0  0  0  0  0  0  0  0  0  0
   12.3620   -3.3490    0.6530 H   0  0  0  0  0  0  0  0  0  0  0  0
   10.4610   -3.7800   -2.2020 H   0  0  0  0  0  0  0  0  0  0  0  0
    8.9960   -2.8400   -1.9080 H   0  0  0  0  0  0  0  0  0  0  0  0
   10.4970   -2.0140   -2.2810 H   0  0  0  0  0  0  0  0  0  0  0  0
   10.5360   -4.9940    0.1070 H   0  0  0  0  0  0  0  0  0  0  0  0
   10.1030   -4.0470    1.5550 H   0  0  0  0  0  0  0  0  0  0  0  0
    8.0630   -4.3040    0.9320 H   0  0  0  0  0  0  0  0  0  0  0  0
   13.7240   -0.7370   -0.1120 H   0  0  0  0  0  0  0  0  0  0  0  0
   10.8120    1.9290    2.8070 H   0  0  0  0  0  0  0  0  0  0  0  0
   11.8440    0.5210    2.7500 H   0  0  0  0  0  0  0  0  0  0  0  0
   11.8120    1.6150    1.3720 H   0  0  0  0  0  0  0  0  0  0  0  0
    9.9240    2.8690    0.7160 H   0  0  0  0  0  0  0  0  0  0  0  0
    6.2020   -0.3980    2.2650 H   0  0  0  0  0  0  0  0  0  0  0  0
    7.6210   -1.2760    1.6840 H   0  0  0  0  0  0  0  0  0  0  0  0
    7.7890   -0.0170    2.9430 H   0  0  0  0  0  0  0  0  0  0  0  0
    7.3390    3.1440    2.5290 H   0  0  0  0  0  0  0  0  0  0  0  0
    1.3680   -0.5550   -3.1000 H   0  0  0  0  0  0  0  0  0  0  0  0
    1.4410   -1.3860   -1.5570 H   0  0  0  0  0  0  0  0  0  0  0  0
    1.8200   -0.5120    0.7700 H   0  0  0  0  0  0  0  0  0  0  0  0
    3.2350   -1.4620    0.3500 H   0  0  0  0  0  0  0  0  0  0  0  0
    3.3410   -0.2250    1.5990 H   0  0  0  0  0  0  0  0  0  0  0  0
   -4.0300    0.8310    1.8410 H   0  0  0  0  0  0  0  0  0  0  0  0
   -4.0830   -0.5770    0.7850 H   0  0  0  0  0  0  0  0  0  0  0  0
   -2.5690    0.2690    1.0530 H   0  0  0  0  0  0  0  0  0  0  0  0
  1 81  1  0
  1 82  1  0
  1 80  1  0
  1  2  1  0
  2  3  1  6
  2  4  1  0
  2 12  1  0
  4  5  1  6
  4  9  1  0
  4  6  1  0
  6 83  1  0
  6  7  1  0
  6 84  1  0
  7  8  2  0
  7 85  1  0
  8 26  1  0
  9  8  1  0
  9 21  1  6
  9 10  1  0
 10 86  1  0
 10 11  1  0
 10 87  1  0
 12 11  1  1
 12 13  1  0
 12 17  1  0
 13 20  1  0
 13 14  1  1
 13 15  1  0
 15 88  1  0
 15 16  1  0
 15 89  1  0
 16 17  1  0
 16 18  1  6
 16 19  1  0
 18 92  1  0
 18 91  1  0
 18 90  1  0
 19 94  1  0
 19 93  1  0
 19 95  1  0
 20 96  1  0
 21 22  2  0
 21 23  1  0
 23 98  1  0
 23 24  1  0
 23 97  1  0
 24 25  1  6
 24 32  1  0
 24 26  1  0
 26 28  1  0
 26 27  1  1
 28 99  1  0
 28 29  1  0
 28100  1  0
 29 30  1  0
 29101  1  0
 29102  1  0
 30 31  1  6
 30 32  1  0
 30 36  1  0
 32 33  1  0
 32 79  1  1
 33104  1  0
 33103  1  0
 33 34  1  0
 34 77  2  0
 34 35  1  0
 35 37  2  0
 35 36  1  0
 36105  1  0
 36106  1  0
 37 38  1  0
 38 76  2  0
 38 39  1  0
 39107  1  0
 39 40  1  0
 39108  1  0
 40 41  1  0
 40 47  1  0
 40 78  1  1
 41 42  1  6
 41 43  1  0
 41 75  1  0
 43110  1  0
 43 44  1  0
 43109  1  0
 44112  1  0
 44111  1  0
 44 45  1  0
 45 53  1  0
 45 47  1  0
 45 46  1  1
 47 48  1  6
 47 49  1  0
 49 50  1  0
 49113  1  0
 49114  1  0
 50 51  1  6
 50 52  1  0
 50 74  1  0
 52 53  1  0
 52 57  1  0
 52 73  1  1
 53 54  2  0
 54115  1  0
 54 55  1  0
 55 56  1  6
 55 61  1  0
 55 57  1  0
 57 72  1  6
 57 58  1  0
 58 60  1  0
 58 71  1  0
 58 59  1  1
 60 61  1  6
 60 66  1  0
 60 62  1  0
 62 70  1  0
 62 64  1  0
 62 63  1  1
 64116  1  0
 64 65  1  0
 64117  1  0
 65 67  1  6
 65 66  1  0
 65 68  1  0
 67120  1  0
 67118  1  0
 67119  1  0
 68121  1  0
 68 69  1  0
 68122  1  0
 69123  1  0
 70124  1  0
 71127  1  0
 71126  1  0
 71125  1  0
 72128  1  0
 73130  1  0
 73129  1  0
 73131  1  0
 74132  1  0
 75133  1  0
 75134  1  0
 75 76  1  0
 76 77  1  0
 78136  1  0
 78135  1  0
 78137  1  0
 79139  1  0
 79140  1  0
 79138  1  0
M  END
>  <id>  (78) 
178

>  <scaffolds>  (78) 
['O=C1CC2C(CCC3Cc4nc5c(nc4CC32)CC2CCC3C4=CC6OC7(CCCO7)CC6C4CCC3C2C5)C2=CCC3CC4(CCCO4)OCC123', 'C1CCOCC1', 'C1CCCCC1', 'C=C1CCCC2CCCCC12', 'O=C1CC2C(CCC3Cc4nc5c(nc4CC32)CC2CCC3C4=CC6OC7(CCCO7)CC6C4CCC3C2C5)C2=CCC3CCOCC123', 'C1CCC2CCCCC2C1']

>  <name>  (78) 
Cephalostatin 1

>  <formula>  (78) 
C54H74N2O10

>  <SMILES>  (78) 
C[C@H]1[C@H]2CC=C3[C@]2(CO[C@]14[C@@H](CC(O4)(C)C)O)C(=O)C[C@H]5[C@H]3CC[C@@H]6[C@@]5(CC7=C(C6)N=C8C[C@]9([C@@H](CC[C@@H]1[C@@H]9C[C@H]([C@]2(C1=C[C@H]1[C@@]2([C@@H]([C@@]2(O1)[C@@H](C[C@@](O2)(C)CO)O)C)O)C)O)CC8=N7)C)C

>  <ChEMBL_id>  (78) 
CHEMBL269081

>  <ZINC_id>  (78) 


>  <PubChem_id>  (78) 
 10328411

>  <DrugBank_id>  (78) 


>  <CAS_no>  (78) 
112088-56-9

>  <references>  (78) 
[{'journal': {'name': 'Journal of the American Chemical Society', 'id': 9}, 'title': 'Isolation and structure of the powerful cell growth inhibitor cephalostatin 1', 'year': 1988, 'start_page': 2006, 'volume': 110, 'issue': 6, 'doi': '10.1021/ja00214a078', 'isbn': '', 'despositor': {'code': 'TMM', 'first_name': 'Thommas', 'last_name': 'Musyoka', 'id': 22}, 'refauthors_set': [{'author': {'first_name': 'George', 'initials': 'GR', 'last_name': 'Pettit', 'id': 478}, 'first_author': True, 'id': 634}, {'author': {'first_name': '', 'initials': 'I', 'last_name': 'Masuo', 'id': 506}, 'first_author': False, 'id': 668}, {'author': {'first_name': '', 'initials': 'Y', 'last_name': 'Kamano', 'id': 507}, 'first_author': False, 'id': 669}, {'author': {'first_name': '', 'initials': 'LD', 'last_name': 'Dennis', 'id': 511}, 'first_author': False, 'id': 670}, {'author': {'first_name': '', 'initials': 'A', 'last_name': 'Christoph', 'id': 509}, 'first_author': False, 'id': 671}, {'author': {'first_name': '', 'initials': 'D', 'last_name': 'Claude', 'id': 510}, 'first_author': False, 'id': 672}, {'author': {'first_name': '', 'initials': 'DC', 'last_name': 'Nigel', 'id': 502}, 'first_author': False, 'id': 673}, {'author': {'first_name': '', 'initials': 'MS', 'last_name': 'Jean', 'id': 499}, 'first_author': False, 'id': 674}, {'author': {'first_name': '', 'initials': 'LD', 'last_name': 'Dennis', 'id': 511}, 'first_author': False, 'id': 675}, {'author': {'first_name': '', 'initials': 'SK', 'last_name': 'Timothy', 'id': 512}, 'first_author': False, 'id': 676}], 'id': 241}]

>  <classifications>  (78) 
[{'classification': 'Steroid', 'id': 835}, {'classification': 'Steroids and steroid derivatives (Classyfire)', 'id': 942}]

>  <molecular_mass>  (78) 
911.17

$$$$
SANC00179_minRM1.pdb
     RDKit          3D

 80 81  0  0  1  0  0  0  0  0999 V2000
    3.6480   -1.4740    0.8700 O   0  0  0  0  0  0  0  0  0  0  0  0
    2.9180   -0.5500    0.5840 C   0  0  0  0  0  0  0  0  0  0  0  0
    3.4330    0.7340   -0.0440 C   0  0  2  0  0  0  0  0  0  0  0  0
    3.0120    1.6030    0.5270 H   0  0  0  0  0  0  0  0  0  0  0  0
    2.9500    0.8200   -1.4900 C   0  0  0  0  0  0  0  0  0  0  0  0
    4.9320    0.7800    0.0290 C   0  0  0  0  0  0  0  0  0  0  0  0
    5.4640   -0.0870   -0.8760 O   0  0  0  0  0  0  0  0  0  0  0  0
    6.8170   -0.2410   -0.9020 C   0  0  0  0  0  0  0  0  0  0  0  0
    7.2100   -1.2880   -1.8810 C   0  0  0  0  0  0  0  0  0  0  0  0
    7.6640    0.4770   -0.1390 C   0  0  0  0  0  0  0  0  0  0  0  0
    9.1280    0.2700   -0.2360 C   0  0  0  0  0  0  0  0  0  0  0  0
    7.1400    1.4830    0.7860 C   0  0  0  0  0  0  0  0  0  0  0  0
    7.8620    2.2170    1.4450 O   0  0  0  0  0  0  0  0  0  0  0  0
    5.6730    1.5450    0.8550 C   0  0  0  0  0  0  0  0  0  0  0  0
    5.0500    2.4600    1.8430 C   0  0  0  0  0  0  0  0  0  0  0  0
    1.4300   -0.6090    0.8870 C   0  0  2  0  0  0  0  0  0  0  0  0
    0.9020    0.2700    0.4440 H   0  0  0  0  0  0  0  0  0  0  0  0
    1.2940   -0.5580    2.4040 C   0  0  0  0  0  0  0  0  0  0  0  0
    0.8670   -1.9260    0.3070 C   0  0  2  0  0  0  0  0  0  0  0  0
    1.4170   -2.8050    0.7460 H   0  0  0  0  0  0  0  0  0  0  0  0
    1.1500   -2.0350   -1.0490 O   0  0  0  0  0  0  0  0  0  0  0  0
   -0.6410   -2.1030    0.5950 C   0  0  2  0  0  0  0  0  0  0  0  0
   -0.7910   -2.1590    1.7040 H   0  0  0  0  0  0  0  0  0  0  0  0
   -1.1490   -3.3960   -0.0350 C   0  0  0  0  0  0  0  0  0  0  0  0
   -1.4680   -0.9790    0.0280 C   0  0  0  0  0  0  0  0  0  0  0  0
   -1.1610   -0.1940   -0.8520 O   0  0  0  0  0  0  0  0  0  0  0  0
   -2.6830   -0.9240    0.6230 O   0  0  0  0  0  0  0  0  0  0  0  0
   -3.6670   -0.0310    0.1350 C   0  0  2  0  0  0  0  0  0  0  0  0
   -3.2170    0.8840   -0.3460 H   0  0  0  0  0  0  0  0  0  0  0  0
   -4.4890    0.4060    1.3630 C   0  0  2  0  0  0  0  0  0  0  0  0
   -3.8330    0.9970    2.0510 H   0  0  0  0  0  0  0  0  0  0  0  0
   -5.0720   -0.7650    2.1430 C   0  0  0  0  0  0  0  0  0  0  0  0
   -5.6180    1.3210    0.8200 C   0  0  1  0  0  0  0  0  0  0  0  0
   -6.4970    1.5610    1.8710 O   0  0  0  0  0  0  0  0  0  0  0  0
   -5.0640    2.6650    0.2950 C   0  0  0  0  0  0  0  0  0  0  0  0
   -6.1470    3.5230   -0.3310 C   0  0  0  0  0  0  0  0  0  0  0  0
   -6.3980    0.6460   -0.1340 O   0  0  0  0  0  0  0  0  0  0  0  0
   -5.7140    0.1730   -1.2670 C   0  0  2  0  0  0  0  0  0  0  0  0
   -5.3090    1.0270   -1.8760 H   0  0  0  0  0  0  0  0  0  0  0  0
   -6.7830   -0.5800   -2.0780 C   0  0  0  0  0  0  0  0  0  0  0  0
   -7.8060    0.3790   -2.6610 C   0  0  0  0  0  0  0  0  0  0  0  0
   -4.5630   -0.7750   -0.8660 C   0  0  1  0  0  0  0  0  0  0  0  0
   -4.9790   -1.6980   -0.3890 H   0  0  0  0  0  0  0  0  0  0  0  0
   -3.7740   -1.1760   -2.1040 C   0  0  0  0  0  0  0  0  0  0  0  0
    1.8670    0.9990   -1.5570 H   0  0  0  0  0  0  0  0  0  0  0  0
    3.4370    1.6470   -2.0270 H   0  0  0  0  0  0  0  0  0  0  0  0
    3.1590   -0.0960   -2.0610 H   0  0  0  0  0  0  0  0  0  0  0  0
    6.3790   -1.6490   -2.5070 H   0  0  0  0  0  0  0  0  0  0  0  0
    7.9890   -0.9170   -2.5630 H   0  0  0  0  0  0  0  0  0  0  0  0
    7.6180   -2.1690   -1.3620 H   0  0  0  0  0  0  0  0  0  0  0  0
    9.5250    0.6690   -1.1810 H   0  0  0  0  0  0  0  0  0  0  0  0
    9.6870    0.7640    0.5710 H   0  0  0  0  0  0  0  0  0  0  0  0
    9.4020   -0.7950   -0.1930 H   0  0  0  0  0  0  0  0  0  0  0  0
    5.7790    2.9020    2.5400 H   0  0  0  0  0  0  0  0  0  0  0  0
    4.5480    3.3080    1.3510 H   0  0  0  0  0  0  0  0  0  0  0  0
    4.3080    1.9480    2.4740 H   0  0  0  0  0  0  0  0  0  0  0  0
    1.6740   -1.4680    2.8920 H   0  0  0  0  0  0  0  0  0  0  0  0
    1.8530    0.2880    2.8320 H   0  0  0  0  0  0  0  0  0  0  0  0
    0.2530   -0.4250    2.7300 H   0  0  0  0  0  0  0  0  0  0  0  0
    0.7850   -1.2800   -1.5230 H   0  0  0  0  0  0  0  0  0  0  0  0
   -1.0250   -3.4070   -1.1290 H   0  0  0  0  0  0  0  0  0  0  0  0
   -0.6040   -4.2720    0.3450 H   0  0  0  0  0  0  0  0  0  0  0  0
   -2.2160   -3.5650    0.1730 H   0  0  0  0  0  0  0  0  0  0  0  0
   -4.3240   -1.5340    2.3780 H   0  0  0  0  0  0  0  0  0  0  0  0
   -5.4840   -0.4360    3.1080 H   0  0  0  0  0  0  0  0  0  0  0  0
   -5.8990   -1.2630    1.6180 H   0  0  0  0  0  0  0  0  0  0  0  0
   -7.3760    1.7470    1.5210 H   0  0  0  0  0  0  0  0  0  0  0  0
   -4.5880    3.2100    1.1370 H   0  0  0  0  0  0  0  0  0  0  0  0
   -4.2330    2.4930   -0.4230 H   0  0  0  0  0  0  0  0  0  0  0  0
   -5.7290    4.4400   -0.7740 H   0  0  0  0  0  0  0  0  0  0  0  0
   -6.6920    3.0060   -1.1340 H   0  0  0  0  0  0  0  0  0  0  0  0
   -6.8970    3.8530    0.4030 H   0  0  0  0  0  0  0  0  0  0  0  0
   -6.2860   -1.1570   -2.8900 H   0  0  0  0  0  0  0  0  0  0  0  0
   -7.2860   -1.3460   -1.4500 H   0  0  0  0  0  0  0  0  0  0  0  0
   -8.3470    0.9360   -1.8820 H   0  0  0  0  0  0  0  0  0  0  0  0
   -7.3490    1.1260   -3.3290 H   0  0  0  0  0  0  0  0  0  0  0  0
   -8.5660   -0.1490   -3.2560 H   0  0  0  0  0  0  0  0  0  0  0  0
   -3.2320   -0.3340   -2.5590 H   0  0  0  0  0  0  0  0  0  0  0  0
   -3.0320   -1.9580   -1.8870 H   0  0  0  0  0  0  0  0  0  0  0  0
   -4.4310   -1.5890   -2.8870 H   0  0  0  0  0  0  0  0  0  0  0  0
  1  2  2  0
  2  3  1  0
  2 16  1  0
  3  5  1  0
  3  6  1  0
  3  4  1  1
  5 47  1  0
  5 46  1  0
  5 45  1  0
  6  7  1  0
  6 14  2  0
  7  8  1  0
  8  9  1  0
  8 10  2  0
  9 49  1  0
  9 48  1  0
  9 50  1  0
 10 11  1  0
 10 12  1  0
 11 51  1  0
 11 53  1  0
 11 52  1  0
 12 14  1  0
 12 13  2  0
 14 15  1  0
 15 55  1  0
 15 56  1  0
 15 54  1  0
 16 19  1  0
 16 17  1  6
 16 18  1  0
 18 59  1  0
 18 58  1  0
 18 57  1  0
 19 21  1  0
 19 22  1  0
 19 20  1  1
 21 60  1  0
 22 24  1  0
 22 25  1  0
 22 23  1  1
 24 61  1  0
 24 63  1  0
 24 62  1  0
 25 26  2  0
 25 27  1  0
 27 28  1  0
 28 42  1  0
 28 29  1  6
 28 30  1  0
 30 33  1  0
 30 31  1  1
 30 32  1  0
 32 66  1  0
 32 64  1  0
 32 65  1  0
 33 37  1  0
 33 35  1  0
 33 34  1  1
 34 67  1  0
 35 69  1  0
 35 36  1  0
 35 68  1  0
 36 71  1  0
 36 70  1  0
 36 72  1  0
 37 38  1  0
 38 40  1  0
 38 39  1  6
 38 42  1  0
 40 73  1  0
 40 41  1  0
 40 74  1  0
 41 76  1  0
 41 77  1  0
 41 75  1  0
 42 44  1  0
 42 43  1  1
 44 80  1  0
 44 78  1  0
 44 79  1  0
M  END
>  <id>  (79) 
179

>  <scaffolds>  (79) 
['C1CCOCC1', 'O=C(CCCC(=O)OC1CCOCC1)Cc1cc(=O)cco1']

>  <name>  (79) 
Sisserone A

>  <formula>  (79) 
C28H44O8

>  <SMILES>  (79) 
O=C([C@H](C)C=1OC(\C)=C(\C)C(=O)C=1C)[C@H](C)[C@H](O)[C@H](C)C(=O)O[C@@H]2[C@H](C)C(O)(CC)O[C@H](CC)[C@H]2C

>  <ChEMBL_id>  (79) 


>  <ZINC_id>  (79) 


>  <PubChem_id>  (79) 


>  <DrugBank_id>  (79) 


>  <CAS_no>  (79) 
274913-20-1

>  <references>  (79) 
[{'journal': {'name': 'Tetrahedron', 'id': 4}, 'title': 'New non-contiguous polypropionates from marine molluscs: a comment on their natural product status', 'year': 2000, 'start_page': 2497, 'volume': 56, 'issue': 16, 'doi': '10.1016/S0040-4020(00)00095-8', 'isbn': '', 'despositor': {'code': 'TMM', 'first_name': 'Thommas', 'last_name': 'Musyoka', 'id': 22}, 'refauthors_set': [{'author': {'first_name': '', 'initials': 'DJ', 'last_name': 'Brecknell', 'id': 481}, 'first_author': True, 'id': 635}, {'author': {'first_name': '', 'initials': 'LA', 'last_name': 'Collett', 'id': 513}, 'first_author': False, 'id': 677}, {'author': {'first_name': 'Michael', 'initials': 'MT', 'last_name': 'Davies-Coleman', 'id': 449}, 'first_author': False, 'id': 678}, {'author': {'first_name': '', 'initials': 'MJ', 'last_name': 'Garsona', 'id': 514}, 'first_author': False, 'id': 679}, {'author': {'first_name': '', 'initials': 'DD', 'last_name': 'Jones', 'id': 515}, 'first_author': False, 'id': 680}], 'id': 242}]

>  <classifications>  (79) 
[{'classification': 'Lyxopyranose', 'id': 792}, {'classification': 'Polypropionate', 'id': 811}, {'classification': 'Pyrans (Classyfire)', 'id': 955}]

>  <molecular_mass>  (79) 
508.64

$$$$
SANC00180_minRM1.pdb
     RDKit          3D

 63 64  0  0  1  0  0  0  0  0999 V2000
   -9.8000    1.6790   -0.3620 C   0  0  0  0  0  0  0  0  0  0  0  0
   -8.4180    1.2620   -0.1100 C   0  0  0  0  0  0  0  0  0  0  0  0
   -7.9050    0.0280    0.1070 C   0  0  0  0  0  0  0  0  0  0  0  0
   -6.4510    0.1370    0.3100 C   0  0  0  0  0  0  0  0  0  0  0  0
   -5.5520   -0.8150    0.5580 C   0  0  0  0  0  0  0  0  0  0  0  0
   -4.0920   -0.5580    0.7510 C   0  0  1  0  0  0  0  0  0  0  0  0
   -3.7290   -0.9530    2.1800 C   0  0  0  0  0  0  0  0  0  0  0  0
   -3.3200   -1.3900   -0.2820 C   0  0  0  0  0  0  0  0  0  0  0  0
   -1.8400   -1.0230   -0.3110 C   0  0  0  0  0  0  0  0  0  0  0  0
   -1.1180   -1.8040   -1.4110 C   0  0  0  0  0  0  0  0  0  0  0  0
    0.3410   -1.4720   -1.3970 C   0  0  0  0  0  0  0  0  0  0  0  0
    1.2240   -2.2820   -0.8090 C   0  0  0  0  0  0  0  0  0  0  0  0
    2.6920   -2.0280   -0.7620 C   0  0  0  0  0  0  0  0  0  0  0  0
    3.1210   -1.7470    0.6800 C   0  0  0  0  0  0  0  0  0  0  0  0
    4.5870   -1.4540    0.7340 C   0  0  0  0  0  0  0  0  0  0  0  0
    5.0370   -0.2120    0.9170 C   0  0  0  0  0  0  0  0  0  0  0  0
    6.4800    0.1510    0.9940 C   0  0  0  0  0  0  0  0  0  0  0  0
    6.8540    1.0480   -0.1890 C   0  0  0  0  0  0  0  0  0  0  0  0
    8.2870    1.3900   -0.1260 C   0  0  0  0  0  0  0  0  0  0  0  0
    8.8700    2.4410    0.5370 C   0  0  0  0  0  0  0  0  0  0  0  0
   10.2300    2.4130    0.3700 O   0  0  0  0  0  0  0  0  0  0  0  0
   10.5120    1.3230   -0.4130 C   0  0  0  0  0  0  0  0  0  0  0  0
    9.3600    0.6590   -0.7460 C   0  0  0  0  0  0  0  0  0  0  0  0
    5.4830   -2.6270    0.5550 C   0  0  0  0  0  0  0  0  0  0  0  0
    0.7200   -0.1930   -2.0500 C   0  0  0  0  0  0  0  0  0  0  0  0
   -6.1140    1.4760    0.2040 O   0  0  0  0  0  0  0  0  0  0  0  0
   -7.2820    2.1940   -0.0470 C   0  0  0  0  0  0  0  0  0  0  0  0
   -7.1790    3.3910   -0.1620 O   0  0  0  0  0  0  0  0  0  0  0  0
   -8.4790   -1.1760    0.1610 O   0  0  0  0  0  0  0  0  0  0  0  0
   -9.8790    2.7640   -0.5300 H   0  0  0  0  0  0  0  0  0  0  0  0
  -10.2200    1.1870   -1.2540 H   0  0  0  0  0  0  0  0  0  0  0  0
  -10.4590    1.4380    0.4860 H   0  0  0  0  0  0  0  0  0  0  0  0
   -5.8870   -1.8560    0.6350 H   0  0  0  0  0  0  0  0  0  0  0  0
   -3.8510    0.5270    0.6020 H   0  0  0  0  0  0  0  0  0  0  0  0
   -4.3750   -0.4510    2.9150 H   0  0  0  0  0  0  0  0  0  0  0  0
   -3.8240   -2.0330    2.3580 H   0  0  0  0  0  0  0  0  0  0  0  0
   -2.6980   -0.6770    2.4380 H   0  0  0  0  0  0  0  0  0  0  0  0
   -3.4470   -2.4750   -0.0810 H   0  0  0  0  0  0  0  0  0  0  0  0
   -3.7680   -1.2370   -1.2880 H   0  0  0  0  0  0  0  0  0  0  0  0
   -1.7120    0.0680   -0.4680 H   0  0  0  0  0  0  0  0  0  0  0  0
   -1.3600   -1.2280    0.6680 H   0  0  0  0  0  0  0  0  0  0  0  0
   -1.2850   -2.8960   -1.2850 H   0  0  0  0  0  0  0  0  0  0  0  0
   -1.5580   -1.5820   -2.4070 H   0  0  0  0  0  0  0  0  0  0  0  0
    0.9030   -3.2070   -0.3180 H   0  0  0  0  0  0  0  0  0  0  0  0
    3.2300   -2.9080   -1.1730 H   0  0  0  0  0  0  0  0  0  0  0  0
    2.9910   -1.1840   -1.4240 H   0  0  0  0  0  0  0  0  0  0  0  0
    2.5200   -0.9100    1.0960 H   0  0  0  0  0  0  0  0  0  0  0  0
    2.8730   -2.6070    1.3380 H   0  0  0  0  0  0  0  0  0  0  0  0
    4.3450    0.6310    1.0270 H   0  0  0  0  0  0  0  0  0  0  0  0
    6.6840    0.6690    1.9560 H   0  0  0  0  0  0  0  0  0  0  0  0
    7.1380   -0.7470    1.0200 H   0  0  0  0  0  0  0  0  0  0  0  0
    6.6200    0.5420   -1.1500 H   0  0  0  0  0  0  0  0  0  0  0  0
    6.2330    1.9700   -0.1950 H   0  0  0  0  0  0  0  0  0  0  0  0
    8.4890    3.2560    1.1380 H   0  0  0  0  0  0  0  0  0  0  0  0
   11.5610    1.1680   -0.6320 H   0  0  0  0  0  0  0  0  0  0  0  0
    9.2550   -0.2300   -1.3520 H   0  0  0  0  0  0  0  0  0  0  0  0
    5.5530   -2.9170   -0.5040 H   0  0  0  0  0  0  0  0  0  0  0  0
    6.5150   -2.4330    0.8940 H   0  0  0  0  0  0  0  0  0  0  0  0
    5.1360   -3.5110    1.1090 H   0  0  0  0  0  0  0  0  0  0  0  0
    0.4770    0.6680   -1.4070 H   0  0  0  0  0  0  0  0  0  0  0  0
    1.8000   -0.1240   -2.2690 H   0  0  0  0  0  0  0  0  0  0  0  0
    0.1990   -0.0340   -3.0060 H   0  0  0  0  0  0  0  0  0  0  0  0
   -9.4280   -1.0550    0.0160 H   0  0  0  0  0  0  0  0  0  0  0  0
  1 31  1  0
  1 30  1  0
  1  2  1  0
  1 32  1  0
  2 27  1  0
  2  3  2  0
  3 29  1  0
  3  4  1  0
  4 26  1  0
  4  5  2  0
  5 33  1  0
  5  6  1  0
  6  8  1  0
  6 34  1  1
  6  7  1  0
  7 36  1  0
  7 37  1  0
  7 35  1  0
  8 39  1  0
  8  9  1  0
  8 38  1  0
  9 10  1  0
  9 40  1  0
  9 41  1  0
 10 43  1  0
 10 11  1  0
 10 42  1  0
 11 25  1  0
 11 12  2  0
 12 13  1  0
 12 44  1  0
 13 46  1  0
 13 45  1  0
 13 14  1  0
 14 15  1  0
 14 47  1  0
 14 48  1  0
 15 24  1  0
 15 16  2  0
 16 17  1  0
 16 49  1  0
 17 18  1  0
 17 51  1  0
 17 50  1  0
 18 52  1  0
 18 53  1  0
 18 19  1  0
 19 23  1  0
 19 20  2  0
 20 21  1  0
 20 54  1  0
 21 22  1  0
 22 23  2  0
 22 55  1  0
 23 56  1  0
 24 57  1  0
 24 58  1  0
 24 59  1  0
 25 62  1  0
 25 61  1  0
 25 60  1  0
 26 27  1  0
 27 28  2  0
 29 63  1  0
M  END
>  <id>  (80) 
180

>  <scaffolds>  (80) 
['c1ccoc1']

>  <name>  (80) 
(18R)-Variabilin

>  <formula>  (80) 
C25H34O4

>  <SMILES>  (80) 
CC1=C(/C(=C/C(C)CCC/C(=C/CC/C(=C/CCC2=COC=C2)/C)/C)/OC1=O)O

>  <ChEMBL_id>  (80) 
CHEMBL463244

>  <ZINC_id>  (80) 


>  <PubChem_id>  (80) 


>  <DrugBank_id>  (80) 


>  <CAS_no>  (80) 
181781-60-2

>  <references>  (80) 
[{'journal': {'name': 'Journal of Natural Products', 'id': 5}, 'title': 'A New Furanosesterterpene from the South African Nudibranch Hypselodoris capensis and a Dictyoceratida Sponge', 'year': 1998, 'start_page': 961, 'volume': 61, 'issue': 7, 'doi': '10.1021/np980051y', 'isbn': '', 'despositor': {'code': 'TMM', 'first_name': 'Thommas', 'last_name': 'Musyoka', 'id': 22}, 'refauthors_set': [{'author': {'first_name': 'Kerry', 'initials': 'KL', 'last_name': 'McPhail', 'id': 483}, 'first_author': True, 'id': 637}, {'author': {'first_name': 'Michael', 'initials': 'MT', 'last_name': 'Davies-Coleman', 'id': 449}, 'first_author': False, 'id': 695}, {'author': {'first_name': 'Philip', 'initials': 'PS', 'last_name': 'Coetzee', 'id': 451}, 'first_author': False, 'id': 696}], 'id': 243}]

>  <classifications>  (80) 
[{'classification': 'Sesquiterpene', 'id': 828}, {'classification': 'Terpenoid', 'id': 839}, {'classification': 'Phenol lipids (Classyfire)', 'id': 951}]

>  <molecular_mass>  (80) 
398.53

$$$$
SANC00181_minRM1.pdb
     RDKit          3D

 36 38  0  0  1  0  0  0  0  0999 V2000
   -1.9340    1.1530   -2.1170 C   0  0  0  0  0  0  0  0  0  0  0  0
   -1.2750    0.7630   -0.8400 C   0  0  0  0  0  0  0  0  0  0  0  0
   -0.4370    1.6080   -0.2410 C   0  0  0  0  0  0  0  0  0  0  0  0
    0.3800    1.1870    0.9340 C   0  0  1  0  0  0  0  0  0  0  0  0
    0.7100    2.0860    1.5180 H   0  0  0  0  0  0  0  0  0  0  0  0
   -0.3400    0.2150    1.8740 C   0  0  0  0  0  0  0  0  0  0  0  0
   -1.5920   -0.4510    1.2880 C   0  0  1  0  0  0  0  0  0  0  0  0
   -1.6810   -1.4800    1.7250 H   0  0  0  0  0  0  0  0  0  0  0  0
   -2.8140    0.3530    1.7400 C   0  0  0  0  0  0  0  0  0  0  0  0
   -1.5600   -0.5890   -0.2480 C   0  0  1  0  0  0  0  0  0  0  0  0
   -2.9380   -1.0950   -0.7180 C   0  0  0  0  0  0  0  0  0  0  0  0
   -0.5400   -1.6290   -0.7680 C   0  0  0  0  0  0  0  0  0  0  0  0
    0.7450   -1.8770    0.0170 C   0  0  0  0  0  0  0  0  0  0  0  0
    1.7190   -0.7800   -0.1000 C   0  0  0  0  0  0  0  0  0  0  0  0
    3.0450   -0.8480   -0.6510 C   0  0  0  0  0  0  0  0  0  0  0  0
    3.5780    0.4080   -0.5100 C   0  0  0  0  0  0  0  0  0  0  0  0
    2.6770    1.2540    0.0900 O   0  0  0  0  0  0  0  0  0  0  0  0
    1.5530    0.5090    0.3340 C   0  0  0  0  0  0  0  0  0  0  0  0
   -3.0040    1.3690   -1.9870 H   0  0  0  0  0  0  0  0  0  0  0  0
   -1.4960    2.0570   -2.5690 H   0  0  0  0  0  0  0  0  0  0  0  0
   -1.8470    0.3650   -2.8810 H   0  0  0  0  0  0  0  0  0  0  0  0
   -0.2410    2.6140   -0.6210 H   0  0  0  0  0  0  0  0  0  0  0  0
    0.3670   -0.5650    2.2380 H   0  0  0  0  0  0  0  0  0  0  0  0
   -0.5960    0.7540    2.8120 H   0  0  0  0  0  0  0  0  0  0  0  0
   -2.8920    1.3200    1.2230 H   0  0  0  0  0  0  0  0  0  0  0  0
   -3.7640   -0.1780    1.5870 H   0  0  0  0  0  0  0  0  0  0  0  0
   -2.7910    0.5750    2.8180 H   0  0  0  0  0  0  0  0  0  0  0  0
   -3.7340   -0.3430   -0.6330 H   0  0  0  0  0  0  0  0  0  0  0  0
   -2.9390   -1.4100   -1.7720 H   0  0  0  0  0  0  0  0  0  0  0  0
   -3.2740   -1.9690   -0.1390 H   0  0  0  0  0  0  0  0  0  0  0  0
   -1.0420   -2.6210   -0.8490 H   0  0  0  0  0  0  0  0  0  0  0  0
   -0.2780   -1.3710   -1.8170 H   0  0  0  0  0  0  0  0  0  0  0  0
    0.5400   -2.0870    1.0910 H   0  0  0  0  0  0  0  0  0  0  0  0
    1.2130   -2.8190   -0.3510 H   0  0  0  0  0  0  0  0  0  0  0  0
    3.5100   -1.7210   -1.0860 H   0  0  0  0  0  0  0  0  0  0  0  0
    4.5290    0.8560   -0.7660 H   0  0  0  0  0  0  0  0  0  0  0  0
  1 21  1  0
  1 20  1  0
  1 19  1  0
  1  2  1  0
  2 10  1  0
  2  3  2  0
  3 22  1  0
  3  4  1  0
  4 18  1  0
  4  5  1  1
  4  6  1  0
  6  7  1  0
  6 23  1  0
  6 24  1  0
  7 10  1  0
  7  8  1  1
  7  9  1  0
  9 25  1  0
  9 26  1  0
  9 27  1  0
 10 12  1  0
 10 11  1  6
 11 29  1  0
 11 28  1  0
 11 30  1  0
 12 32  1  0
 12 31  1  0
 12 13  1  0
 13 34  1  0
 13 14  1  0
 13 33  1  0
 14 15  1  0
 14 18  2  0
 15 35  1  0
 15 16  2  0
 16 36  1  0
 16 17  1  0
 17 18  1  0
M  END
>  <id>  (81) 
181

>  <scaffolds>  (81) 
['C1=CCCCC1', 'c1ccoc1', 'C1=CC2CCC1CCc1ccoc12']

>  <name>  (81) 
Nakafuran 8

>  <formula>  (81) 
C15H20O

>  <SMILES>  (81) 
C\C3=C\[C@H]1C[C@@H](C)[C@]3(C)CCc2ccoc12

>  <ChEMBL_id>  (81) 


>  <ZINC_id>  (81) 


>  <PubChem_id>  (81) 


>  <DrugBank_id>  (81) 


>  <CAS_no>  (81) 
76844-25-2

>  <references>  (81) 
[{'journal': {'name': 'Journal of Natural Products', 'id': 5}, 'title': 'A New Furanosesterterpene from the South African Nudibranch Hypselodoris capensis and a Dictyoceratida Sponge', 'year': 1998, 'start_page': 961, 'volume': 61, 'issue': 7, 'doi': '10.1021/np980051y', 'isbn': '', 'despositor': {'code': 'TMM', 'first_name': 'Thommas', 'last_name': 'Musyoka', 'id': 22}, 'refauthors_set': [{'author': {'first_name': 'Kerry', 'initials': 'KL', 'last_name': 'McPhail', 'id': 483}, 'first_author': True, 'id': 637}, {'author': {'first_name': 'Michael', 'initials': 'MT', 'last_name': 'Davies-Coleman', 'id': 449}, 'first_author': False, 'id': 695}, {'author': {'first_name': 'Philip', 'initials': 'PS', 'last_name': 'Coetzee', 'id': 451}, 'first_author': False, 'id': 696}], 'id': 243}]

>  <classifications>  (81) 
[{'classification': 'Sesquiterpene', 'id': 828}, {'classification': 'Terpenoid', 'id': 839}, {'classification': 'Heteroaromatic compounds (Classyfire)', 'id': 956}]

>  <molecular_mass>  (81) 
216.32

$$$$
SANC00182_minRM1.pdb
     RDKit          3D

 34 35  0  0  0  0  0  0  0  0999 V2000
   -1.3560   -3.3460    0.9750 C   0  0  0  0  0  0  0  0  0  0  0  0
   -0.4000   -2.3710    0.2950 C   0  0  0  0  0  0  0  0  0  0  0  0
    0.0430   -2.9090   -1.0620 C   0  0  0  0  0  0  0  0  0  0  0  0
   -1.0480   -1.0290    0.1240 C   0  0  0  0  0  0  0  0  0  0  0  0
   -2.2430   -0.9450   -0.5890 C   0  0  0  0  0  0  0  0  0  0  0  0
   -2.8750    0.2750   -0.7770 C   0  0  0  0  0  0  0  0  0  0  0  0
   -2.3130    1.4380   -0.2560 C   0  0  0  0  0  0  0  0  0  0  0  0
   -2.9990    2.7430   -0.4410 C   0  0  0  0  0  0  0  0  0  0  0  0
   -1.1200    1.3620    0.4510 C   0  0  0  0  0  0  0  0  0  0  0  0
   -0.4890    0.1350    0.6480 C   0  0  0  0  0  0  0  0  0  0  0  0
    0.7910    0.1390    1.4250 C   0  0  0  0  0  0  0  0  0  0  0  0
    1.8760    0.6810    0.5830 C   0  0  0  0  0  0  0  0  0  0  0  0
    2.7710   -0.0990   -0.2310 C   0  0  0  0  0  0  0  0  0  0  0  0
    3.6100    0.8010   -0.8370 C   0  0  0  0  0  0  0  0  0  0  0  0
    3.2980    2.0820   -0.4590 O   0  0  0  0  0  0  0  0  0  0  0  0
    2.2380    1.9940    0.4070 C   0  0  0  0  0  0  0  0  0  0  0  0
   -0.8530   -4.2890    1.2360 H   0  0  0  0  0  0  0  0  0  0  0  0
   -1.7660   -2.9330    1.9070 H   0  0  0  0  0  0  0  0  0  0  0  0
   -2.2140   -3.6220    0.3470 H   0  0  0  0  0  0  0  0  0  0  0  0
    0.5130   -2.2760    0.9480 H   0  0  0  0  0  0  0  0  0  0  0  0
    0.5530   -3.8790   -0.9670 H   0  0  0  0  0  0  0  0  0  0  0  0
   -0.7940   -3.0640   -1.7570 H   0  0  0  0  0  0  0  0  0  0  0  0
    0.7450   -2.2250   -1.5620 H   0  0  0  0  0  0  0  0  0  0  0  0
   -2.7010   -1.8420   -1.0160 H   0  0  0  0  0  0  0  0  0  0  0  0
   -3.8140    0.3210   -1.3350 H   0  0  0  0  0  0  0  0  0  0  0  0
   -3.7620    2.8980    0.3370 H   0  0  0  0  0  0  0  0  0  0  0  0
   -2.3140    3.6020   -0.3880 H   0  0  0  0  0  0  0  0  0  0  0  0
   -3.5140    2.8160   -1.4110 H   0  0  0  0  0  0  0  0  0  0  0  0
   -0.6670    2.2720    0.8580 H   0  0  0  0  0  0  0  0  0  0  0  0
    0.6780    0.7340    2.3570 H   0  0  0  0  0  0  0  0  0  0  0  0
    1.0610   -0.8810    1.7850 H   0  0  0  0  0  0  0  0  0  0  0  0
    2.7620   -1.1760   -0.3300 H   0  0  0  0  0  0  0  0  0  0  0  0
    4.4390    0.7090   -1.5290 H   0  0  0  0  0  0  0  0  0  0  0  0
    1.8750    2.9370    0.7960 H   0  0  0  0  0  0  0  0  0  0  0  0
  1  2  1  0
  1 19  1  0
  1 17  1  0
  1 18  1  0
  2  3  1  0
  2  4  1  0
  2 20  1  0
  3 22  1  0
  3 23  1  0
  3 21  1  0
  4  5  2  0
  4 10  1  0
  5 24  1  0
  5  6  1  0
  6 25  1  0
  6  7  2  0
  7  8  1  0
  7  9  1  0
  8 28  1  0
  8 27  1  0
  8 26  1  0
  9 10  2  0
  9 29  1  0
 10 11  1  0
 11 12  1  0
 11 31  1  0
 11 30  1  0
 12 13  1  0
 12 16  2  0
 13 14  2  0
 13 32  1  0
 14 33  1  0
 14 15  1  0
 15 16  1  0
 16 34  1  0
M  END
>  <id>  (82) 
182

>  <scaffolds>  (82) 
['c1ccccc1', 'c1ccoc1', 'c1ccc(Cc2ccoc2)cc1']

>  <name>  (82) 
Tsitsikammafuran

>  <formula>  (82) 
C15H18O

>  <SMILES>  (82) 
CC(C)c2ccc(C)cc2Cc1ccoc1

>  <ChEMBL_id>  (82) 


>  <ZINC_id>  (82) 


>  <PubChem_id>  (82) 
 642120

>  <DrugBank_id>  (82) 


>  <CAS_no>  (82) 
321310-28-5

>  <references>  (82) 
[{'journal': {'name': 'Tetrahedron', 'id': 4}, 'title': 'The Structure and Synthesis of Tsitsikammafuran: A New Furanosesquiterpene from a South African Dysidea Sponge', 'year': 2000, 'start_page': 9391, 'volume': 56, 'issue': 47, 'doi': '10.1016/S0040-4020(00)00910-8', 'isbn': '', 'despositor': {'code': 'TMM', 'first_name': 'Thommas', 'last_name': 'Musyoka', 'id': 22}, 'refauthors_set': [{'author': {'first_name': 'Kerry', 'initials': 'KL', 'last_name': 'McPhail', 'id': 483}, 'first_author': True, 'id': 636}, {'author': {'first_name': '', 'initials': 'DEA', 'last_name': 'Rivett', 'id': 527}, 'first_author': False, 'id': 697}, {'author': {'first_name': '', 'initials': 'DE', 'last_name': 'Lack', 'id': 528}, 'first_author': False, 'id': 698}, {'author': {'first_name': 'Michael', 'initials': 'MT', 'last_name': 'Davies-Coleman', 'id': 449}, 'first_author': False, 'id': 699}], 'id': 244}]

>  <classifications>  (82) 
[{'classification': 'Furanosesquiterpene', 'id': 778}, {'classification': 'Sesquiterpene', 'id': 828}, {'classification': 'Terpenoid', 'id': 839}, {'classification': 'Phenol lipids (Classyfire)', 'id': 951}]

>  <molecular_mass>  (82) 
214.3

$$$$
SANC00183_minRM1.pdb
     RDKit          3D

 60 62  0  0  1  0  0  0  0  0999 V2000
   -0.9540   -2.8800   -1.7030 C   0  0  0  0  0  0  0  0  0  0  0  0
   -1.2060   -3.4340   -0.3060 C   0  0  1  0  0  0  0  0  0  0  0  0
   -0.4870   -4.2790   -0.1310 H   0  0  0  0  0  0  0  0  0  0  0  0
   -0.9980   -2.3870    0.7930 C   0  0  0  0  0  0  0  0  0  0  0  0
    0.4200   -1.8220    0.8200 C   0  0  0  0  0  0  0  0  0  0  0  0
    0.5020   -0.6800    1.8490 C   0  0  2  0  0  0  0  0  0  0  0  0
    0.2820   -1.0870    2.8740 H   0  0  0  0  0  0  0  0  0  0  0  0
   -0.4640    0.4520    1.5060 C   0  0  0  0  0  0  0  0  0  0  0  0
    0.0780    1.2170    0.3000 C   0  0  2  0  0  0  0  0  0  0  0  0
    0.2200    0.5540   -0.5970 H   0  0  0  0  0  0  0  0  0  0  0  0
    1.4140    1.8280    0.7060 C   0  0  0  0  0  0  0  0  0  0  0  0
    2.3760    0.6910    1.1180 C   0  0  1  0  0  0  0  0  0  0  0  0
    1.8160   -0.2240    2.0270 O   0  0  0  0  0  0  0  0  0  0  0  0
    2.9850   -0.0780   -0.1050 C   0  0  2  0  0  0  0  0  0  0  0  0
    2.1240   -0.5130   -0.6940 H   0  0  0  0  0  0  0  0  0  0  0  0
    3.9100   -1.2180    0.3530 C   0  0  0  0  0  0  0  0  0  0  0  0
    5.4750   -1.0890   -0.5490 S   0  0  0  0  0  0  0  0  0  0  0  0
    5.0540    0.4930   -1.2750 C   0  0  0  0  0  0  0  0  0  0  0  0
    5.7720    1.1930   -1.9630 O   0  0  0  0  0  0  0  0  0  0  0  0
    3.7410    0.8200   -0.9730 N   0  0  0  0  0  0  0  0  0  0  0  0
    3.4580    1.2220    1.8090 O   0  0  0  0  0  0  0  0  0  0  0  0
   -0.8140    2.2800    0.0150 O   0  0  0  0  0  0  0  0  0  0  0  0
   -1.9410    1.9380   -0.6750 C   0  0  0  0  0  0  0  0  0  0  0  0
   -1.9900    0.8800   -1.2800 O   0  0  0  0  0  0  0  0  0  0  0  0
   -3.0050    2.9460   -0.6090 C   0  0  0  0  0  0  0  0  0  0  0  0
   -4.2310    2.5910   -0.2140 C   0  0  0  0  0  0  0  0  0  0  0  0
   -4.5590    1.2170    0.2800 C   0  0  0  0  0  0  0  0  0  0  0  0
   -4.9870    0.3010   -0.8730 C   0  0  0  0  0  0  0  0  0  0  0  0
   -4.8560   -1.1220   -0.4410 C   0  0  0  0  0  0  0  0  0  0  0  0
   -3.8320   -1.8920   -0.8220 C   0  0  0  0  0  0  0  0  0  0  0  0
   -3.7310   -3.2840   -0.4080 C   0  0  0  0  0  0  0  0  0  0  0  0
   -2.6030   -3.9640   -0.1970 C   0  0  0  0  0  0  0  0  0  0  0  0
   -5.3550    3.5620   -0.2210 C   0  0  0  0  0  0  0  0  0  0  0  0
   -1.3730   -1.8700   -1.8400 H   0  0  0  0  0  0  0  0  0  0  0  0
    0.1170   -2.8190   -1.9440 H   0  0  0  0  0  0  0  0  0  0  0  0
   -1.4010   -3.5150   -2.4780 H   0  0  0  0  0  0  0  0  0  0  0  0
   -1.7420   -1.5660    0.6750 H   0  0  0  0  0  0  0  0  0  0  0  0
   -1.2380   -2.8390    1.7820 H   0  0  0  0  0  0  0  0  0  0  0  0
    1.1520   -2.6170    1.0750 H   0  0  0  0  0  0  0  0  0  0  0  0
    0.7390   -1.4670   -0.1850 H   0  0  0  0  0  0  0  0  0  0  0  0
   -1.4790    0.0440    1.3050 H   0  0  0  0  0  0  0  0  0  0  0  0
   -0.6060    1.1290    2.3740 H   0  0  0  0  0  0  0  0  0  0  0  0
    1.8420    2.4490   -0.1070 H   0  0  0  0  0  0  0  0  0  0  0  0
    1.2820    2.5540    1.5380 H   0  0  0  0  0  0  0  0  0  0  0  0
    4.1340   -1.1960    1.4360 H   0  0  0  0  0  0  0  0  0  0  0  0
    3.4710   -2.2120    0.1600 H   0  0  0  0  0  0  0  0  0  0  0  0
    3.3420    1.7130   -1.2450 H   0  0  0  0  0  0  0  0  0  0  0  0
    3.1930    1.4480    2.7090 H   0  0  0  0  0  0  0  0  0  0  0  0
   -2.7310    3.9580   -0.9180 H   0  0  0  0  0  0  0  0  0  0  0  0
   -3.6950    0.7780    0.8220 H   0  0  0  0  0  0  0  0  0  0  0  0
   -5.3560    1.2570    1.0530 H   0  0  0  0  0  0  0  0  0  0  0  0
   -6.0350    0.5190   -1.1720 H   0  0  0  0  0  0  0  0  0  0  0  0
   -4.3990    0.5100   -1.7910 H   0  0  0  0  0  0  0  0  0  0  0  0
   -5.6450   -1.4930    0.2190 H   0  0  0  0  0  0  0  0  0  0  0  0
   -3.0360   -1.5090   -1.4800 H   0  0  0  0  0  0  0  0  0  0  0  0
   -4.6940   -3.7980   -0.2750 H   0  0  0  0  0  0  0  0  0  0  0  0
   -2.6680   -5.0180    0.0990 H   0  0  0  0  0  0  0  0  0  0  0  0
   -5.0890    4.5420   -0.6430 H   0  0  0  0  0  0  0  0  0  0  0  0
   -6.1980    3.1780   -0.8180 H   0  0  0  0  0  0  0  0  0  0  0  0
   -5.7370    3.7460    0.7940 H   0  0  0  0  0  0  0  0  0  0  0  0
  1 36  1  0
  1 35  1  0
  1 34  1  0
  1  2  1  0
  2 32  1  0
  2  3  1  1
  2  4  1  0
  4 37  1  0
  4  5  1  0
  4 38  1  0
  5 40  1  0
  5 39  1  0
  5  6  1  0
  6  8  1  0
  6 13  1  0
  6  7  1  1
  8  9  1  0
  8 41  1  0
  8 42  1  0
  9 10  1  6
  9 22  1  0
  9 11  1  0
 11 43  1  0
 11 12  1  0
 11 44  1  0
 12 14  1  0
 12 21  1  1
 12 13  1  0
 14 20  1  0
 14 15  1  6
 14 16  1  0
 16 17  1  0
 16 46  1  0
 16 45  1  0
 17 18  1  0
 18 19  2  0
 18 20  1  0
 20 47  1  0
 21 48  1  0
 22 23  1  0
 23 24  2  0
 23 25  1  0
 25 49  1  0
 25 26  2  0
 26 33  1  0
 26 27  1  0
 27 28  1  0
 27 50  1  0
 27 51  1  0
 28 53  1  0
 28 52  1  0
 28 29  1  0
 29 30  2  0
 29 54  1  0
 30 55  1  0
 30 31  1  0
 31 56  1  0
 31 32  2  0
 32 57  1  0
 33 59  1  0
 33 58  1  0
 33 60  1  0
M  END
>  <id>  (83) 
183

>  <scaffolds>  (83) 
['C1CCOCC1', 'O=C1C=CCCC=CC=CCCCC2CC(CC(C3CSC(=O)N3)O2)O1']

>  <name>  (83) 
Latrunculin A

>  <formula>  (83) 
C22H31NO5S

>  <SMILES>  (83) 
C[C@H]/1CC[C@@H]2C[C@H](C[C@@](O2)([C@@H]3CSC(=O)N3)O)OC(=O)/C=C(\CC/C=C/C=C1)/C

>  <ChEMBL_id>  (83) 
CHEMBL404116

>  <ZINC_id>  (83) 


>  <PubChem_id>  (83) 
 445420

>  <DrugBank_id>  (83) 


>  <CAS_no>  (83) 
76343-93-6

>  <references>  (83) 
[{'journal': {'name': 'Tetrahedron', 'id': 4}, 'title': 'Unusual chlorinated homo-diterpenes from the SouthAfrican nudibranch Chromodoris hamiltoni', 'year': 1995, 'start_page': 8189, 'volume': 51, 'issue': 30, 'doi': '10.1016/0040-4020(95)00440-J', 'isbn': '', 'despositor': {'code': 'TMM', 'first_name': 'Thommas', 'last_name': 'Musyoka', 'id': 22}, 'refauthors_set': [{'author': {'first_name': '', 'initials': 'J', 'last_name': 'Pika', 'id': 484}, 'first_author': True, 'id': 638}, {'author': {'first_name': 'John', 'initials': 'DJ', 'last_name': 'Faulkner', 'id': 529}, 'first_author': False, 'id': 700}], 'id': 245}]

>  <classifications>  (83) 
[{'classification': 'Diterpene', 'id': 771}, {'classification': 'Latrunculin', 'id': 791}, {'classification': 'Terpenoid', 'id': 839}, {'classification': 'Macrolides and analogues (Classyfire)', 'id': 945}]

>  <molecular_mass>  (83) 
421.55

$$$$
SANC00184_minRM1.pdb
     RDKit          3D

 56 58  0  0  1  0  0  0  0  0999 V2000
    2.4630   -0.0090   -1.6750 H   0  0  0  0  0  0  0  0  0  0  0  0
    3.0920   -0.1550   -0.7530 C   0  0  2  0  0  0  0  0  0  0  0  0
    3.8130   -1.5120   -0.8280 C   0  0  0  0  0  0  0  0  0  0  0  0
    5.5840   -1.2110   -1.0900 S   0  0  0  0  0  0  0  0  0  0  0  0
    5.4360    0.5500   -0.7970 C   0  0  0  0  0  0  0  0  0  0  0  0
    6.3480    1.3530   -0.7220 O   0  0  0  0  0  0  0  0  0  0  0  0
    4.0970    0.9040   -0.6970 N   0  0  0  0  0  0  0  0  0  0  0  0
    2.1200   -0.0820    0.4740 C   0  0  1  0  0  0  0  0  0  0  0  0
    2.9070   -0.2370    1.6090 O   0  0  0  0  0  0  0  0  0  0  0  0
    1.3410    1.2490    0.5410 C   0  0  0  0  0  0  0  0  0  0  0  0
    0.2530    1.3060   -0.5340 C   0  0  1  0  0  0  0  0  0  0  0  0
    0.6810    1.6820   -1.5020 H   0  0  0  0  0  0  0  0  0  0  0  0
   -0.4180   -0.0570   -0.7320 C   0  0  0  0  0  0  0  0  0  0  0  0
   -0.0800   -0.9980    0.4300 C   0  0  1  0  0  0  0  0  0  0  0  0
   -0.3770   -0.5710    1.4280 H   0  0  0  0  0  0  0  0  0  0  0  0
   -0.7600   -2.3640    0.2560 C   0  0  0  0  0  0  0  0  0  0  0  0
   -2.2450   -2.2530    0.6090 C   0  0  0  0  0  0  0  0  0  0  0  0
   -3.1870   -2.6910   -0.5160 C   0  0  2  0  0  0  0  0  0  0  0  0
   -3.0140   -3.7850   -0.7070 H   0  0  0  0  0  0  0  0  0  0  0  0
   -2.9450   -1.9660   -1.8290 C   0  0  0  0  0  0  0  0  0  0  0  0
   -4.5880   -2.5220   -0.0210 C   0  0  0  0  0  0  0  0  0  0  0  0
   -5.3260   -1.4190    0.0640 C   0  0  0  0  0  0  0  0  0  0  0  0
   -5.0150   -0.0260   -0.3710 C   0  0  0  0  0  0  0  0  0  0  0  0
   -4.2950    0.7450    0.7490 C   0  0  0  0  0  0  0  0  0  0  0  0
   -4.1000    2.1750    0.3610 C   0  0  0  0  0  0  0  0  0  0  0  0
   -5.3520    2.9200    0.0550 C   0  0  0  0  0  0  0  0  0  0  0  0
   -2.9210    2.8040    0.3020 C   0  0  0  0  0  0  0  0  0  0  0  0
   -1.6600    2.1460    0.6560 C   0  0  0  0  0  0  0  0  0  0  0  0
   -1.4090    1.5540    1.6880 O   0  0  0  0  0  0  0  0  0  0  0  0
   -0.7030    2.3150   -0.3050 O   0  0  0  0  0  0  0  0  0  0  0  0
    1.3100   -1.2290    0.4130 O   0  0  0  0  0  0  0  0  0  0  0  0
    3.7020   -2.1210    0.0870 H   0  0  0  0  0  0  0  0  0  0  0  0
    3.4360   -2.1380   -1.6540 H   0  0  0  0  0  0  0  0  0  0  0  0
    3.8210    1.8540   -0.4620 H   0  0  0  0  0  0  0  0  0  0  0  0
    2.3580   -0.4920    2.3550 H   0  0  0  0  0  0  0  0  0  0  0  0
    0.9300    1.3900    1.5640 H   0  0  0  0  0  0  0  0  0  0  0  0
    2.0260    2.1170    0.4440 H   0  0  0  0  0  0  0  0  0  0  0  0
   -1.5210    0.0320   -0.8740 H   0  0  0  0  0  0  0  0  0  0  0  0
   -0.0740   -0.5070   -1.6890 H   0  0  0  0  0  0  0  0  0  0  0  0
   -0.5860   -2.7730   -0.7590 H   0  0  0  0  0  0  0  0  0  0  0  0
   -0.2650   -3.1100    0.9120 H   0  0  0  0  0  0  0  0  0  0  0  0
   -2.4510   -2.8830    1.5020 H   0  0  0  0  0  0  0  0  0  0  0  0
   -2.5130   -1.2230    0.9470 H   0  0  0  0  0  0  0  0  0  0  0  0
   -2.0780   -2.3650   -2.3750 H   0  0  0  0  0  0  0  0  0  0  0  0
   -3.8050   -2.0700   -2.5090 H   0  0  0  0  0  0  0  0  0  0  0  0
   -2.7560   -0.8890   -1.7010 H   0  0  0  0  0  0  0  0  0  0  0  0
   -5.0320   -3.4600    0.3470 H   0  0  0  0  0  0  0  0  0  0  0  0
   -6.3280   -1.5120    0.5060 H   0  0  0  0  0  0  0  0  0  0  0  0
   -4.4230    0.0130   -1.3170 H   0  0  0  0  0  0  0  0  0  0  0  0
   -5.9740    0.4920   -0.6370 H   0  0  0  0  0  0  0  0  0  0  0  0
   -4.8820    0.7070    1.6970 H   0  0  0  0  0  0  0  0  0  0  0  0
   -3.3410    0.2200    1.0000 H   0  0  0  0  0  0  0  0  0  0  0  0
   -5.9200    3.1120    0.9790 H   0  0  0  0  0  0  0  0  0  0  0  0
   -5.1810    3.9020   -0.4110 H   0  0  0  0  0  0  0  0  0  0  0  0
   -6.0200    2.3590   -0.6210 H   0  0  0  0  0  0  0  0  0  0  0  0
   -2.8240    3.8510   -0.0160 H   0  0  0  0  0  0  0  0  0  0  0  0
  2  1  1  6
  2  3  1  0
  2  7  1  0
  2  8  1  0
  3 33  1  0
  3  4  1  0
  3 32  1  0
  4  5  1  0
  5  6  2  0
  5  7  1  0
  7 34  1  0
  8 31  1  0
  8 10  1  0
  8  9  1  1
  9 35  1  0
 10 11  1  0
 10 37  1  0
 10 36  1  0
 11 12  1  6
 11 13  1  0
 11 30  1  0
 13 39  1  0
 13 38  1  0
 13 14  1  0
 14 16  1  0
 14 31  1  0
 14 15  1  1
 16 40  1  0
 16 17  1  0
 16 41  1  0
 17 18  1  0
 17 43  1  0
 17 42  1  0
 18 20  1  0
 18 19  1  6
 18 21  1  0
 20 45  1  0
 20 44  1  0
 20 46  1  0
 21 22  2  0
 21 47  1  0
 22 23  1  0
 22 48  1  0
 23 49  1  0
 23 50  1  0
 23 24  1  0
 24 25  1  0
 24 52  1  0
 24 51  1  0
 25 26  1  0
 25 27  2  0
 26 55  1  0
 26 54  1  0
 26 53  1  0
 27 56  1  0
 27 28  1  0
 28 30  1  0
 28 29  2  0
M  END
>  <id>  (84) 
184

>  <scaffolds>  (84) 
['C1CCOCC1', 'O=C1C=CCCC=CCCCC2CC(CC(C3CSC(=O)N3)O2)O1']

>  <name>  (84) 
Latrunculin B

>  <formula>  (84) 
C20H29NO5S

>  <SMILES>  (84) 
[H][C@]1(CSC(=O)N1)[C@@]1(O)C[C@@]2([H])C[C@@]([H])(CC[C@]([H])(C)\C=C/CC\C(C)=C/C(=O)O2)O1

>  <ChEMBL_id>  (84) 
CHEMBL411879

>  <ZINC_id>  (84) 


>  <PubChem_id>  (84) 


>  <DrugBank_id>  (84) 
DB08080

>  <CAS_no>  (84) 
76343-94-7

>  <references>  (84) 
[{'journal': {'name': 'Tetrahedron', 'id': 4}, 'title': 'Unusual chlorinated homo-diterpenes from the SouthAfrican nudibranch Chromodoris hamiltoni', 'year': 1995, 'start_page': 8189, 'volume': 51, 'issue': 30, 'doi': '10.1016/0040-4020(95)00440-J', 'isbn': '', 'despositor': {'code': 'TMM', 'first_name': 'Thommas', 'last_name': 'Musyoka', 'id': 22}, 'refauthors_set': [{'author': {'first_name': '', 'initials': 'J', 'last_name': 'Pika', 'id': 484}, 'first_author': True, 'id': 638}, {'author': {'first_name': 'John', 'initials': 'DJ', 'last_name': 'Faulkner', 'id': 529}, 'first_author': False, 'id': 700}], 'id': 245}]

>  <classifications>  (84) 
[{'classification': 'Diterpene', 'id': 771}, {'classification': 'Latrunculin', 'id': 791}, {'classification': 'Terpenoid', 'id': 839}, {'classification': 'Macrolides and analogues (Classyfire)', 'id': 945}]

>  <molecular_mass>  (84) 
395.51

$$$$
SANC00185_minRM1.pdb
     RDKit          3D

 56 58  0  0  1  0  0  0  0  0999 V2000
   -5.8920    1.6180    0.1620 C   0  0  0  0  0  0  0  0  0  0  0  0
   -4.6430    1.7070   -0.2870 C   0  0  0  0  0  0  0  0  0  0  0  0
   -4.0050    3.0280   -0.5280 C   0  0  0  0  0  0  0  0  0  0  0  0
   -3.8260    0.4790   -0.5720 C   0  0  1  0  0  0  0  0  0  0  0  0
   -3.7070    0.2950   -2.0820 C   0  0  0  0  0  0  0  0  0  0  0  0
   -2.4490    0.5860    0.0960 C   0  0  0  0  0  0  0  0  0  0  0  0
   -1.6790   -0.7280   -0.0020 C   0  0  0  0  0  0  0  0  0  0  0  0
   -0.4610   -0.8190    0.9260 C   0  0  1  0  0  0  0  0  0  0  0  0
   -0.9910   -0.7300    2.3680 C   0  0  0  0  0  0  0  0  0  0  0  0
    0.2390   -2.1750    0.8070 C   0  0  1  0  0  0  0  0  0  0  0  0
   -1.0330   -3.5510    0.8820 Cl  0  0  0  0  0  0  0  0  0  0  0  0
    1.0450   -2.4420   -0.4620 C   0  0  1  0  0  0  0  0  0  0  0  0
    0.2740   -2.5220   -1.6170 O   0  0  0  0  0  0  0  0  0  0  0  0
    2.0700   -1.3170   -0.6600 C   0  0  0  0  0  0  0  0  0  0  0  0
    1.4820    0.0950   -0.5750 C   0  0  1  0  0  0  0  0  0  0  0  0
    0.6540    0.3940   -1.8260 C   0  0  0  0  0  0  0  0  0  0  0  0
    0.6760    0.2120    0.7390 C   0  0  1  0  0  0  0  0  0  0  0  0
    0.2500    1.6660    0.9740 C   0  0  0  0  0  0  0  0  0  0  0  0
    1.4900    2.4520    1.2350 C   0  0  0  0  0  0  0  0  0  0  0  0
    2.5860    2.1290    0.5620 C   0  0  0  0  0  0  0  0  0  0  0  0
    3.9920    2.5610    0.8300 C   0  0  0  0  0  0  0  0  0  0  0  0
    4.8200    1.5670    0.2480 O   0  0  0  0  0  0  0  0  0  0  0  0
    4.0720    0.7210   -0.5330 C   0  0  0  0  0  0  0  0  0  0  0  0
    4.6750   -0.1590   -1.1030 O   0  0  0  0  0  0  0  0  0  0  0  0
    2.6200    1.1580   -0.5730 C   0  0  1  0  0  0  0  0  0  0  0  0
   -6.4030    0.6820    0.3610 H   0  0  0  0  0  0  0  0  0  0  0  0
   -6.5200    2.4790    0.3700 H   0  0  0  0  0  0  0  0  0  0  0  0
   -3.3300    3.3000    0.2990 H   0  0  0  0  0  0  0  0  0  0  0  0
   -3.4110    3.0530   -1.4530 H   0  0  0  0  0  0  0  0  0  0  0  0
   -4.7340    3.8480   -0.6130 H   0  0  0  0  0  0  0  0  0  0  0  0
   -4.3570   -0.4170   -0.1510 H   0  0  0  0  0  0  0  0  0  0  0  0
   -3.3530   -0.7110   -2.3510 H   0  0  0  0  0  0  0  0  0  0  0  0
   -4.6760    0.4250   -2.5850 H   0  0  0  0  0  0  0  0  0  0  0  0
   -3.0110    1.0060   -2.5500 H   0  0  0  0  0  0  0  0  0  0  0  0
   -1.8560    1.4080   -0.3650 H   0  0  0  0  0  0  0  0  0  0  0  0
   -2.5870    0.8820    1.1600 H   0  0  0  0  0  0  0  0  0  0  0  0
   -2.3670   -1.5720    0.2340 H   0  0  0  0  0  0  0  0  0  0  0  0
   -1.3960   -0.9070   -1.0590 H   0  0  0  0  0  0  0  0  0  0  0  0
   -1.5750   -1.6240    2.6400 H   0  0  0  0  0  0  0  0  0  0  0  0
   -0.1980   -0.6350    3.1230 H   0  0  0  0  0  0  0  0  0  0  0  0
   -1.6680    0.1270    2.5150 H   0  0  0  0  0  0  0  0  0  0  0  0
    0.8720   -2.3810    1.7020 H   0  0  0  0  0  0  0  0  0  0  0  0
    1.6010   -3.4160   -0.3200 H   0  0  0  0  0  0  0  0  0  0  0  0
   -0.3630   -3.2390   -1.4950 H   0  0  0  0  0  0  0  0  0  0  0  0
    2.8580   -1.4560    0.1120 H   0  0  0  0  0  0  0  0  0  0  0  0
    2.5880   -1.4670   -1.6330 H   0  0  0  0  0  0  0  0  0  0  0  0
   -0.2300   -0.2450   -1.9480 H   0  0  0  0  0  0  0  0  0  0  0  0
    0.2750    1.4270   -1.8530 H   0  0  0  0  0  0  0  0  0  0  0  0
    1.2390    0.2480   -2.7480 H   0  0  0  0  0  0  0  0  0  0  0  0
    1.4150   -0.0240    1.5620 H   0  0  0  0  0  0  0  0  0  0  0  0
   -0.3230    2.0850    0.1180 H   0  0  0  0  0  0  0  0  0  0  0  0
   -0.4360    1.7610    1.8400 H   0  0  0  0  0  0  0  0  0  0  0  0
    1.4740    3.2180    2.0130 H   0  0  0  0  0  0  0  0  0  0  0  0
    4.2410    3.5460    0.3810 H   0  0  0  0  0  0  0  0  0  0  0  0
    4.2450    2.6120    1.9090 H   0  0  0  0  0  0  0  0  0  0  0  0
    2.5630    1.7730   -1.5160 H   0  0  0  0  0  0  0  0  0  0  0  0
  1  2  2  0
  1 26  1  0
  1 27  1  0
  2  4  1  0
  2  3  1  0
  3 29  1  0
  3 30  1  0
  3 28  1  0
  4  5  1  0
  4 31  1  1
  4  6  1  0
  5 33  1  0
  5 34  1  0
  5 32  1  0
  6 35  1  0
  6  7  1  0
  6 36  1  0
  7 38  1  0
  7 37  1  0
  8  7  1  6
  8 17  1  0
  8 10  1  0
  8  9  1  0
  9 41  1  0
  9 39  1  0
  9 40  1  0
 10 12  1  0
 10 11  1  0
 10 42  1  1
 12 13  1  0
 12 14  1  0
 12 43  1  1
 13 44  1  0
 14 46  1  0
 14 15  1  0
 14 45  1  0
 15 16  1  6
 15 25  1  0
 15 17  1  0
 16 49  1  0
 16 47  1  0
 16 48  1  0
 17 18  1  0
 17 50  1  1
 18 51  1  0
 18 19  1  0
 18 52  1  0
 19 20  2  0
 19 53  1  0
 20 25  1  0
 20 21  1  0
 21 22  1  0
 21 54  1  0
 21 55  1  0
 22 23  1  0
 23 24  2  0
 23 25  1  0
 25 56  1  6
M  END
>  <id>  (85) 
185

>  <scaffolds>  (85) 
['C1=CCCCC1', 'C1=CCC2CCCCC2C1', 'C1CCCCC1', 'C1=C2COCC2C2CCCCC2C1', 'O=C1CCCO1']

>  <name>  (85) 
Hamiltonin A

>  <formula>  (85) 
C21H31ClO3

>  <SMILES>  (85) 
C=C(C)C(C)CCC1(C)C(Cl)C(O)CC3(C)C1CC=C2COC(=O)C23

>  <ChEMBL_id>  (85) 


>  <ZINC_id>  (85) 


>  <PubChem_id>  (85) 


>  <DrugBank_id>  (85) 


>  <CAS_no>  (85) 
166774-50-1

>  <references>  (85) 
[{'journal': {'name': 'Tetrahedron', 'id': 4}, 'title': 'Unusual chlorinated homo-diterpenes from the SouthAfrican nudibranch Chromodoris hamiltoni', 'year': 1995, 'start_page': 8189, 'volume': 51, 'issue': 30, 'doi': '10.1016/0040-4020(95)00440-J', 'isbn': '', 'despositor': {'code': 'TMM', 'first_name': 'Thommas', 'last_name': 'Musyoka', 'id': 22}, 'refauthors_set': [{'author': {'first_name': '', 'initials': 'J', 'last_name': 'Pika', 'id': 484}, 'first_author': True, 'id': 638}, {'author': {'first_name': 'John', 'initials': 'DJ', 'last_name': 'Faulkner', 'id': 529}, 'first_author': False, 'id': 700}], 'id': 245}]

>  <classifications>  (85) 
[{'classification': 'Diterpene', 'id': 771}, {'classification': 'Hamiltonin', 'id': 782}, {'classification': 'Terpenoid', 'id': 839}, {'classification': 'Phenol lipids (Classyfire)', 'id': 951}]

>  <molecular_mass>  (85) 
366.92

$$$$
SANC00186_minRM1.pdb
     RDKit          3D

 58 60  0  0  1  0  0  0  0  0999 V2000
   -5.6970    1.5820    0.9490 C   0  0  0  0  0  0  0  0  0  0  0  0
   -4.7070    1.7640    0.0800 C   0  0  0  0  0  0  0  0  0  0  0  0
   -4.3750    3.1170   -0.4420 C   0  0  0  0  0  0  0  0  0  0  0  0
   -3.8840    0.6110   -0.4210 C   0  0  1  0  0  0  0  0  0  0  0  0
   -3.8350    0.6120   -1.9440 C   0  0  0  0  0  0  0  0  0  0  0  0
   -2.4740    0.6940    0.1820 C   0  0  0  0  0  0  0  0  0  0  0  0
   -1.6600   -0.5600   -0.1400 C   0  0  0  0  0  0  0  0  0  0  0  0
   -0.4330   -0.8030    0.7510 C   0  0  1  0  0  0  0  0  0  0  0  0
   -0.8960   -0.7450    2.2170 C   0  0  0  0  0  0  0  0  0  0  0  0
    0.1400   -2.2070    0.5530 C   0  0  1  0  0  0  0  0  0  0  0  0
   -1.2330   -3.4880    0.6580 Cl  0  0  0  0  0  0  0  0  0  0  0  0
    0.8360   -2.4960   -0.7720 C   0  0  1  0  0  0  0  0  0  0  0  0
    0.0210   -2.3580   -1.8890 O   0  0  0  0  0  0  0  0  0  0  0  0
    2.0080   -1.5180   -0.9060 C   0  0  0  0  0  0  0  0  0  0  0  0
    1.6070   -0.0510   -0.7270 C   0  0  1  0  0  0  0  0  0  0  0  0
    0.8720    0.4370   -1.9820 C   0  0  0  0  0  0  0  0  0  0  0  0
    0.7770    0.1470    0.5600 C   0  0  1  0  0  0  0  0  0  0  0  0
    0.3920    1.6230    0.6980 C   0  0  0  0  0  0  0  0  0  0  0  0
    1.6230    2.4600    0.7670 C   0  0  0  0  0  0  0  0  0  0  0  0
    2.7420    2.0470    0.1890 C   0  0  0  0  0  0  0  0  0  0  0  0
    4.1340    2.5470    0.4290 C   0  0  0  0  0  0  0  0  0  0  0  0
    4.9840    1.4290    0.2180 O   0  0  0  0  0  0  0  0  0  0  0  0
    4.2110    0.2780   -0.0490 C   0  0  1  0  0  0  0  0  0  0  0  0
    3.9530   -0.3200    1.1800 O   0  0  0  0  0  0  0  0  0  0  0  0
    2.8820    0.8160   -0.6470 C   0  0  1  0  0  0  0  0  0  0  0  0
   -5.9830    0.6160    1.3530 H   0  0  0  0  0  0  0  0  0  0  0  0
   -6.3150    2.3850    1.3370 H   0  0  0  0  0  0  0  0  0  0  0  0
   -4.9130    3.9240    0.0810 H   0  0  0  0  0  0  0  0  0  0  0  0
   -3.3040    3.3520   -0.3460 H   0  0  0  0  0  0  0  0  0  0  0  0
   -4.6340    3.2160   -1.5080 H   0  0  0  0  0  0  0  0  0  0  0  0
   -4.3650   -0.3490   -0.0900 H   0  0  0  0  0  0  0  0  0  0  0  0
   -4.8310    0.7660   -2.3850 H   0  0  0  0  0  0  0  0  0  0  0  0
   -3.1820    1.3960   -2.3530 H   0  0  0  0  0  0  0  0  0  0  0  0
   -3.4650   -0.3420   -2.3460 H   0  0  0  0  0  0  0  0  0  0  0  0
   -1.9500    1.5980   -0.2000 H   0  0  0  0  0  0  0  0  0  0  0  0
   -2.5550    0.8530    1.2800 H   0  0  0  0  0  0  0  0  0  0  0  0
   -2.3310   -1.4460   -0.0700 H   0  0  0  0  0  0  0  0  0  0  0  0
   -1.3700   -0.5210   -1.2100 H   0  0  0  0  0  0  0  0  0  0  0  0
   -1.5950   -1.5650    2.4480 H   0  0  0  0  0  0  0  0  0  0  0  0
   -0.0720   -0.8210    2.9410 H   0  0  0  0  0  0  0  0  0  0  0  0
   -1.4330    0.1860    2.4590 H   0  0  0  0  0  0  0  0  0  0  0  0
    0.8050   -2.4950    1.4000 H   0  0  0  0  0  0  0  0  0  0  0  0
    1.2370   -3.5530   -0.7360 H   0  0  0  0  0  0  0  0  0  0  0  0
   -0.7430   -2.9360   -1.7610 H   0  0  0  0  0  0  0  0  0  0  0  0
    2.7650   -1.8340   -0.1590 H   0  0  0  0  0  0  0  0  0  0  0  0
    2.5110   -1.6660   -1.8860 H   0  0  0  0  0  0  0  0  0  0  0  0
   -0.1630    0.0780   -2.0600 H   0  0  0  0  0  0  0  0  0  0  0  0
    0.8130    1.5350   -2.0410 H   0  0  0  0  0  0  0  0  0  0  0  0
    1.3640    0.1070   -2.9100 H   0  0  0  0  0  0  0  0  0  0  0  0
    1.4800   -0.0830    1.4110 H   0  0  0  0  0  0  0  0  0  0  0  0
   -0.2770    1.9700   -0.1200 H   0  0  0  0  0  0  0  0  0  0  0  0
   -0.1980    1.7890    1.6250 H   0  0  0  0  0  0  0  0  0  0  0  0
    1.5780    3.3830    1.3510 H   0  0  0  0  0  0  0  0  0  0  0  0
    4.4420    3.3500   -0.2740 H   0  0  0  0  0  0  0  0  0  0  0  0
    4.2950    2.9280    1.4590 H   0  0  0  0  0  0  0  0  0  0  0  0
    4.8110   -0.3710   -0.7380 H   0  0  0  0  0  0  0  0  0  0  0  0
    4.7870   -0.4620    1.6390 H   0  0  0  0  0  0  0  0  0  0  0  0
    3.1600    1.1310   -1.6920 H   0  0  0  0  0  0  0  0  0  0  0  0
  1  2  2  0
  1 27  1  0
  1 26  1  0
  2  3  1  0
  2  4  1  0
  3 30  1  0
  3 29  1  0
  3 28  1  0
  4  5  1  0
  4 31  1  1
  4  6  1  0
  5 32  1  0
  5 33  1  0
  5 34  1  0
  6 35  1  0
  6  7  1  0
  6 36  1  0
  7 38  1  0
  7 37  1  0
  8  7  1  6
  8 10  1  0
  8 17  1  0
  8  9  1  0
  9 39  1  0
  9 41  1  0
  9 40  1  0
 10 12  1  0
 10 11  1  0
 10 42  1  1
 12 13  1  0
 12 14  1  0
 12 43  1  1
 13 44  1  0
 14 46  1  0
 14 15  1  0
 14 45  1  0
 15 16  1  6
 15 25  1  0
 15 17  1  0
 16 49  1  0
 16 47  1  0
 16 48  1  0
 17 18  1  0
 17 50  1  1
 18 51  1  0
 18 19  1  0
 18 52  1  0
 19 20  2  0
 19 53  1  0
 20 25  1  0
 20 21  1  0
 21 54  1  0
 21 22  1  0
 21 55  1  0
 22 23  1  0
 23 56  1  6
 23 25  1  0
 23 24  1  0
 24 57  1  0
 25 58  1  6
M  END
>  <id>  (86) 
186

>  <scaffolds>  (86) 
['C1=CCCCC1', 'C1=CCC2CCCCC2C1', 'C1CCCCC1', 'C1=C2COCC2C2CCCCC2C1']

>  <name>  (86) 
Hamiltonin B

>  <formula>  (86) 
C21H33ClO3

>  <SMILES>  (86) 
C=C(C)C(C)CCC1(C)C(Cl)C(O)CC3(C)C1CC=C2COC(O)C23

>  <ChEMBL_id>  (86) 


>  <ZINC_id>  (86) 


>  <PubChem_id>  (86) 


>  <DrugBank_id>  (86) 


>  <CAS_no>  (86) 
166774-51-2

>  <references>  (86) 
[{'journal': {'name': 'Tetrahedron', 'id': 4}, 'title': 'Unusual chlorinated homo-diterpenes from the SouthAfrican nudibranch Chromodoris hamiltoni', 'year': 1995, 'start_page': 8189, 'volume': 51, 'issue': 30, 'doi': '10.1016/0040-4020(95)00440-J', 'isbn': '', 'despositor': {'code': 'TMM', 'first_name': 'Thommas', 'last_name': 'Musyoka', 'id': 22}, 'refauthors_set': [{'author': {'first_name': '', 'initials': 'J', 'last_name': 'Pika', 'id': 484}, 'first_author': True, 'id': 638}, {'author': {'first_name': 'John', 'initials': 'DJ', 'last_name': 'Faulkner', 'id': 529}, 'first_author': False, 'id': 700}], 'id': 245}]

>  <classifications>  (86) 
[{'classification': 'Diterpene', 'id': 771}, {'classification': 'Hamiltonin', 'id': 782}, {'classification': 'Terpenoid', 'id': 839}, {'classification': 'Phenol lipids (Classyfire)', 'id': 951}]

>  <molecular_mass>  (86) 
368.94

$$$$
SANC00187_minRM1.pdb
     RDKit          3D

 56 57  0  0  1  0  0  0  0  0999 V2000
   -5.5540    1.0340   -2.1520 C   0  0  0  0  0  0  0  0  0  0  0  0
   -4.9690    1.1400   -0.9620 C   0  0  0  0  0  0  0  0  0  0  0  0
   -5.7450    0.9750    0.2970 C   0  0  0  0  0  0  0  0  0  0  0  0
   -3.5020    1.4370   -0.8360 C   0  0  1  0  0  0  0  0  0  0  0  0
   -3.3330    2.8920   -0.4090 C   0  0  0  0  0  0  0  0  0  0  0  0
   -2.8430    0.4620    0.1550 C   0  0  0  0  0  0  0  0  0  0  0  0
   -1.3230    0.4990    0.0130 C   0  0  0  0  0  0  0  0  0  0  0  0
   -0.4980   -0.2540    1.0650 C   0  0  1  0  0  0  0  0  0  0  0  0
   -1.0150    0.1260    2.4610 C   0  0  0  0  0  0  0  0  0  0  0  0
   -0.5070   -1.7730    0.9800 C   0  0  1  0  0  0  0  0  0  0  0  0
   -2.2480   -2.4470    1.0500 Cl  0  0  0  0  0  0  0  0  0  0  0  0
    0.1040   -2.3960   -0.2690 C   0  0  1  0  0  0  0  0  0  0  0  0
   -0.5410   -2.0370   -1.4480 O   0  0  0  0  0  0  0  0  0  0  0  0
    1.5660   -1.9470   -0.3820 C   0  0  0  0  0  0  0  0  0  0  0  0
    1.7850   -0.4360   -0.2320 C   0  0  2  0  0  0  0  0  0  0  0  0
    1.4570    0.2760   -1.5390 C   0  0  0  0  0  0  0  0  0  0  0  0
    3.2930   -0.2100    0.0780 C   0  0  1  0  0  0  0  0  0  0  0  0
    4.1210   -0.6560   -1.1170 C   0  0  0  0  0  0  0  0  0  0  0  0
    4.4520   -1.8170   -1.2440 O   0  0  0  0  0  0  0  0  0  0  0  0
    3.5720    1.2120    0.4210 C   0  0  0  0  0  0  0  0  0  0  0  0
    4.9690    1.6880    0.3290 C   0  0  0  0  0  0  0  0  0  0  0  0
    5.9100    0.9180    0.2910 O   0  0  0  0  0  0  0  0  0  0  0  0
    2.6290    2.0370    0.8820 C   0  0  0  0  0  0  0  0  0  0  0  0
    1.2180    1.6280    1.0930 C   0  0  0  0  0  0  0  0  0  0  0  0
    1.0140    0.1170    0.9840 C   0  0  1  0  0  0  0  0  0  0  0  0
   -6.6120    0.8340   -2.2870 H   0  0  0  0  0  0  0  0  0  0  0  0
   -5.0340    1.1370   -3.0980 H   0  0  0  0  0  0  0  0  0  0  0  0
   -5.5860   -0.0230    0.7340 H   0  0  0  0  0  0  0  0  0  0  0  0
   -5.4710    1.7110    1.0670 H   0  0  0  0  0  0  0  0  0  0  0  0
   -6.8310    1.0780    0.1490 H   0  0  0  0  0  0  0  0  0  0  0  0
   -3.0150    1.3080   -1.8390 H   0  0  0  0  0  0  0  0  0  0  0  0
   -3.6530    3.0790    0.6250 H   0  0  0  0  0  0  0  0  0  0  0  0
   -2.2880    3.2300   -0.4760 H   0  0  0  0  0  0  0  0  0  0  0  0
   -3.9180    3.5710   -1.0470 H   0  0  0  0  0  0  0  0  0  0  0  0
   -3.1700    0.6960    1.1870 H   0  0  0  0  0  0  0  0  0  0  0  0
   -3.2300   -0.5590   -0.0450 H   0  0  0  0  0  0  0  0  0  0  0  0
   -1.0500    0.1640   -1.0100 H   0  0  0  0  0  0  0  0  0  0  0  0
   -1.0010    1.5680    0.0300 H   0  0  0  0  0  0  0  0  0  0  0  0
   -1.9610   -0.3880    2.7010 H   0  0  0  0  0  0  0  0  0  0  0  0
   -0.3200   -0.1400    3.2710 H   0  0  0  0  0  0  0  0  0  0  0  0
   -1.2080    1.2030    2.5620 H   0  0  0  0  0  0  0  0  0  0  0  0
   -0.0430   -2.2220    1.8910 H   0  0  0  0  0  0  0  0  0  0  0  0
    0.0720   -3.5200   -0.1520 H   0  0  0  0  0  0  0  0  0  0  0  0
   -1.4650   -2.3080   -1.3650 H   0  0  0  0  0  0  0  0  0  0  0  0
    2.1510   -2.5040    0.3830 H   0  0  0  0  0  0  0  0  0  0  0  0
    1.9730   -2.3130   -1.3500 H   0  0  0  0  0  0  0  0  0  0  0  0
    0.3870    0.2480   -1.7920 H   0  0  0  0  0  0  0  0  0  0  0  0
    1.7570    1.3340   -1.5460 H   0  0  0  0  0  0  0  0  0  0  0  0
    1.9540   -0.1850   -2.4080 H   0  0  0  0  0  0  0  0  0  0  0  0
    3.6060   -0.8190    0.9690 H   0  0  0  0  0  0  0  0  0  0  0  0
    4.3970    0.1200   -1.8530 H   0  0  0  0  0  0  0  0  0  0  0  0
    5.1180    2.7860    0.3080 H   0  0  0  0  0  0  0  0  0  0  0  0
    2.8570    3.0790    1.1410 H   0  0  0  0  0  0  0  0  0  0  0  0
    0.8910    1.9920    2.0930 H   0  0  0  0  0  0  0  0  0  0  0  0
    0.5670    2.1830    0.3770 H   0  0  0  0  0  0  0  0  0  0  0  0
    1.4980   -0.3400    1.8930 H   0  0  0  0  0  0  0  0  0  0  0  0
  1 27  1  0
  1 26  1  0
  1  2  2  0
  2  4  1  0
  2  3  1  0
  3 30  1  0
  3 28  1  0
  3 29  1  0
  4 31  1  6
  4  5  1  0
  4  6  1  0
  5 34  1  0
  5 33  1  0
  5 32  1  0
  6 36  1  0
  6  7  1  0
  6 35  1  0
  7 37  1  0
  7 38  1  0
  8  7  1  6
  8 10  1  0
  8 25  1  0
  8  9  1  0
  9 41  1  0
  9 39  1  0
  9 40  1  0
 10 12  1  0
 10 11  1  0
 10 42  1  1
 12 13  1  0
 12 14  1  0
 12 43  1  1
 13 44  1  0
 14 46  1  0
 14 15  1  0
 14 45  1  0
 15 16  1  6
 15 17  1  0
 15 25  1  0
 16 49  1  0
 16 47  1  0
 16 48  1  0
 17 18  1  0
 17 20  1  0
 17 50  1  1
 18 51  1  0
 18 19  2  0
 20 21  1  0
 20 23  2  0
 21 22  2  0
 21 52  1  0
 23 24  1  0
 23 53  1  0
 24 55  1  0
 24 25  1  0
 24 54  1  0
 25 56  1  1
M  END
>  <id>  (87) 
187

>  <scaffolds>  (87) 
['C1=CCCCC1', 'C1=CCC2CCCCC2C1', 'C1CCCCC1']

>  <name>  (87) 
Hamiltonin C

>  <formula>  (87) 
C21H31ClO3

>  <SMILES>  (87) 
C=C(C)C(C)CCC2(C)C(Cl)C(O)CC1(C)C(C=O)C(C=O)=CCC12

>  <ChEMBL_id>  (87) 


>  <ZINC_id>  (87) 


>  <PubChem_id>  (87) 


>  <DrugBank_id>  (87) 


>  <CAS_no>  (87) 
166774-52-3

>  <references>  (87) 
[{'journal': {'name': 'Tetrahedron', 'id': 4}, 'title': 'Unusual chlorinated homo-diterpenes from the SouthAfrican nudibranch Chromodoris hamiltoni', 'year': 1995, 'start_page': 8189, 'volume': 51, 'issue': 30, 'doi': '10.1016/0040-4020(95)00440-J', 'isbn': '', 'despositor': {'code': 'TMM', 'first_name': 'Thommas', 'last_name': 'Musyoka', 'id': 22}, 'refauthors_set': [{'author': {'first_name': '', 'initials': 'J', 'last_name': 'Pika', 'id': 484}, 'first_author': True, 'id': 638}, {'author': {'first_name': 'John', 'initials': 'DJ', 'last_name': 'Faulkner', 'id': 529}, 'first_author': False, 'id': 700}], 'id': 245}]

>  <classifications>  (87) 
[{'classification': 'Diterpene', 'id': 771}, {'classification': 'Hamiltonin', 'id': 782}, {'classification': 'Terpenoid', 'id': 839}, {'classification': 'Phenol lipids (Classyfire)', 'id': 951}]

>  <molecular_mass>  (87) 
366.92

$$$$
SANC00188_minRM1.pdb
     RDKit          3D

 55 57  0  0  1  0  0  0  0  0999 V2000
   -6.3970   -0.1610   -1.3300 C   0  0  0  0  0  0  0  0  0  0  0  0
   -5.6230    0.3040   -0.3510 C   0  0  0  0  0  0  0  0  0  0  0  0
   -6.0970    0.3100    1.0590 C   0  0  0  0  0  0  0  0  0  0  0  0
   -4.2460    0.8340   -0.6380 C   0  0  1  0  0  0  0  0  0  0  0  0
   -4.3050    2.3590   -0.6710 C   0  0  0  0  0  0  0  0  0  0  0  0
   -3.2310    0.3280    0.3960 C   0  0  0  0  0  0  0  0  0  0  0  0
   -1.8060    0.7340    0.0210 C   0  0  0  0  0  0  0  0  0  0  0  0
   -0.7280   -0.0990    0.7530 C   0  0  1  0  0  0  0  0  0  0  0  0
   -0.9990   -0.0100    2.2540 C   0  0  0  0  0  0  0  0  0  0  0  0
   -0.8310   -1.5540    0.3200 C   0  0  1  0  0  0  0  0  0  0  0  0
   -0.7570   -1.6270   -1.5570 Cl  0  0  0  0  0  0  0  0  0  0  0  0
    0.3390   -2.4240    0.7740 C   0  0  1  0  0  0  0  0  0  0  0  0
    0.1280   -3.7440    0.3920 O   0  0  0  0  0  0  0  0  0  0  0  0
    1.6630   -1.8680    0.2390 C   0  0  0  0  0  0  0  0  0  0  0  0
    1.8720   -0.4370    0.7240 C   0  0  1  0  0  0  0  0  0  0  0  0
    2.2610   -0.4190    2.2020 C   0  0  0  0  0  0  0  0  0  0  0  0
    3.0250    0.1910    0.0210 C   0  0  0  0  0  0  0  0  0  0  0  0
    3.1400    1.5110   -0.1860 C   0  0  0  0  0  0  0  0  0  0  0  0
    4.4350    1.7980   -0.8870 C   0  0  0  0  0  0  0  0  0  0  0  0
    5.0470    0.5220   -1.0710 O   0  0  0  0  0  0  0  0  0  0  0  0
    4.2390   -0.4530   -0.5330 C   0  0  0  0  0  0  0  0  0  0  0  0
    4.6120   -1.5980   -0.5780 O   0  0  0  0  0  0  0  0  0  0  0  0
    2.1170    2.4800    0.2070 C   0  0  0  0  0  0  0  0  0  0  0  0
    2.2690    3.6760    0.0640 O   0  0  0  0  0  0  0  0  0  0  0  0
    0.8710    1.8780    0.8140 C   0  0  0  0  0  0  0  0  0  0  0  0
    0.6560    0.4400    0.3390 C   0  0  2  0  0  0  0  0  0  0  0  0
   -6.1040   -0.2020   -2.3760 H   0  0  0  0  0  0  0  0  0  0  0  0
   -7.4030   -0.5400   -1.1760 H   0  0  0  0  0  0  0  0  0  0  0  0
   -7.1890    0.2610    1.1460 H   0  0  0  0  0  0  0  0  0  0  0  0
   -5.7110   -0.5630    1.6080 H   0  0  0  0  0  0  0  0  0  0  0  0
   -5.7760    1.2040    1.6240 H   0  0  0  0  0  0  0  0  0  0  0  0
   -3.9200    0.4670   -1.6520 H   0  0  0  0  0  0  0  0  0  0  0  0
   -3.3690    2.8080   -1.0440 H   0  0  0  0  0  0  0  0  0  0  0  0
   -5.0970    2.7140   -1.3530 H   0  0  0  0  0  0  0  0  0  0  0  0
   -4.5030    2.8080    0.3160 H   0  0  0  0  0  0  0  0  0  0  0  0
   -3.4800    0.7070    1.4100 H   0  0  0  0  0  0  0  0  0  0  0  0
   -3.3220   -0.7770    0.4670 H   0  0  0  0  0  0  0  0  0  0  0  0
   -1.6600    0.6670   -1.0800 H   0  0  0  0  0  0  0  0  0  0  0  0
   -1.6480    1.8140    0.2490 H   0  0  0  0  0  0  0  0  0  0  0  0
   -1.8610   -0.6210    2.5690 H   0  0  0  0  0  0  0  0  0  0  0  0
   -0.1580   -0.3440    2.8800 H   0  0  0  0  0  0  0  0  0  0  0  0
   -1.2250    1.0190    2.5740 H   0  0  0  0  0  0  0  0  0  0  0  0
   -1.8230   -2.0080    0.5540 H   0  0  0  0  0  0  0  0  0  0  0  0
    0.3410   -2.4950    1.8950 H   0  0  0  0  0  0  0  0  0  0  0  0
    0.2500   -3.8140   -0.5640 H   0  0  0  0  0  0  0  0  0  0  0  0
    2.5010   -2.5300    0.5470 H   0  0  0  0  0  0  0  0  0  0  0  0
    1.6910   -1.9080   -0.8730 H   0  0  0  0  0  0  0  0  0  0  0  0
    3.0570   -1.1540    2.4190 H   0  0  0  0  0  0  0  0  0  0  0  0
    2.6600    0.5590    2.5270 H   0  0  0  0  0  0  0  0  0  0  0  0
    1.4340   -0.6650    2.8780 H   0  0  0  0  0  0  0  0  0  0  0  0
    4.3040    2.2730   -1.8810 H   0  0  0  0  0  0  0  0  0  0  0  0
    5.1210    2.4400   -0.2950 H   0  0  0  0  0  0  0  0  0  0  0  0
    0.9440    1.9530    1.9200 H   0  0  0  0  0  0  0  0  0  0  0  0
   -0.0150    2.5060    0.5580 H   0  0  0  0  0  0  0  0  0  0  0  0
    0.6410    0.4550   -0.7900 H   0  0  0  0  0  0  0  0  0  0  0  0
  1 27  1  0
  1 28  1  0
  1  2  2  0
  2  4  1  0
  2  3  1  0
  3 29  1  0
  3 30  1  0
  3 31  1  0
  4 32  1  6
  4  5  1  0
  4  6  1  0
  5 34  1  0
  5 33  1  0
  5 35  1  0
  6  7  1  0
  6 37  1  0
  6 36  1  0
  7 38  1  0
  7 39  1  0
  8  7  1  6
  8 10  1  0
  8 26  1  0
  8  9  1  0
  9 40  1  0
  9 42  1  0
  9 41  1  0
 10 11  1  0
 10 43  1  1
 10 12  1  0
 12 14  1  0
 12 13  1  0
 12 44  1  1
 13 45  1  0
 14 47  1  0
 14 46  1  0
 14 15  1  0
 15 17  1  0
 15 26  1  0
 15 16  1  1
 16 48  1  0
 16 49  1  0
 16 50  1  0
 17 21  1  0
 17 18  2  0
 18 19  1  0
 18 23  1  0
 19 51  1  0
 19 20  1  0
 19 52  1  0
 20 21  1  0
 21 22  2  0
 23 24  2  0
 23 25  1  0
 25 26  1  0
 25 54  1  0
 25 53  1  0
 26 55  1  6
M  END
>  <id>  (88) 
188

>  <scaffolds>  (88) 
['C1=CC2CCCCC2CC1', 'C1=CCCCC1', 'C1CCCCC1', 'O=C1C=CCCC1']

>  <name>  (88) 
Hamiltonin D

>  <formula>  (88) 
C21H29ClO4

>  <SMILES>  (88) 
C=C(C)C(C)CCC3(C)C(Cl)C(O)CC2(C)C1=C(COC1=O)C(=O)CC23

>  <ChEMBL_id>  (88) 


>  <ZINC_id>  (88) 


>  <PubChem_id>  (88) 


>  <DrugBank_id>  (88) 


>  <CAS_no>  (88) 
166774-53-4

>  <references>  (88) 
[{'journal': {'name': 'Tetrahedron', 'id': 4}, 'title': 'Unusual chlorinated homo-diterpenes from the SouthAfrican nudibranch Chromodoris hamiltoni', 'year': 1995, 'start_page': 8189, 'volume': 51, 'issue': 30, 'doi': '10.1016/0040-4020(95)00440-J', 'isbn': '', 'despositor': {'code': 'TMM', 'first_name': 'Thommas', 'last_name': 'Musyoka', 'id': 22}, 'refauthors_set': [{'author': {'first_name': '', 'initials': 'J', 'last_name': 'Pika', 'id': 484}, 'first_author': True, 'id': 638}, {'author': {'first_name': 'John', 'initials': 'DJ', 'last_name': 'Faulkner', 'id': 529}, 'first_author': False, 'id': 700}], 'id': 245}]

>  <classifications>  (88) 
[{'classification': 'Diterpene', 'id': 771}, {'classification': 'Hamiltonin', 'id': 782}, {'classification': 'Terpenoid', 'id': 839}, {'classification': 'Phenol lipids (Classyfire)', 'id': 951}]

>  <molecular_mass>  (88) 
380.9

$$$$
SANC00189_minRM1.pdb
     RDKit          3D

 66 69  0  0  1  0  0  0  0  0999 V2000
    2.9770    1.0900   -2.1550 O   0  0  0  0  0  0  0  0  0  0  0  0
    2.8120    0.2430   -1.0640 C   0  0  2  0  0  0  0  0  0  0  0  0
    2.1990   -0.5980   -1.4840 H   0  0  0  0  0  0  0  0  0  0  0  0
    2.1090    0.9330    0.1200 C   0  0  0  0  0  0  0  0  0  0  0  0
    0.7150    1.4560   -0.2550 C   0  0  2  0  0  0  0  0  0  0  0  0
    0.6060    1.4070   -1.3720 H   0  0  0  0  0  0  0  0  0  0  0  0
    0.5030    2.8940    0.1250 C   0  0  0  0  0  0  0  0  0  0  0  0
    1.3690    3.6520    0.7900 C   0  0  0  0  0  0  0  0  0  0  0  0
   -0.8100    3.4510   -0.3260 C   0  0  0  0  0  0  0  0  0  0  0  0
   -1.9450    2.6100    0.2470 C   0  0  0  0  0  0  0  0  0  0  0  0
   -1.7640    1.1480   -0.1550 C   0  0  2  0  0  0  0  0  0  0  0  0
   -1.6840    1.1220   -1.2780 H   0  0  0  0  0  0  0  0  0  0  0  0
   -3.0060    0.2950    0.2090 C   0  0  1  0  0  0  0  0  0  0  0  0
   -3.3020    0.3590    1.7000 C   0  0  0  0  0  0  0  0  0  0  0  0
   -4.2230    0.8530   -0.5490 C   0  0  0  0  0  0  0  0  0  0  0  0
   -5.4400   -0.0430   -0.3630 C   0  0  0  0  0  0  0  0  0  0  0  0
   -5.1580   -1.4410   -0.8920 C   0  0  0  0  0  0  0  0  0  0  0  0
   -3.9430   -2.0930   -0.2160 C   0  0  1  0  0  0  0  0  0  0  0  0
   -4.3000   -2.5310    1.2000 C   0  0  0  0  0  0  0  0  0  0  0  0
   -3.5980   -3.3680   -1.0040 C   0  0  0  0  0  0  0  0  0  0  0  0
   -2.7430   -1.1320   -0.3020 C   0  0  2  0  0  0  0  0  0  0  0  0
   -1.4990   -1.6850    0.3840 C   0  0  0  0  0  0  0  0  0  0  0  0
   -0.2810   -0.8590   -0.0170 C   0  0  0  0  0  0  0  0  0  0  0  0
   -0.4250    0.6120    0.3960 C   0  0  1  0  0  0  0  0  0  0  0  0
   -0.2810    0.7380    1.9090 C   0  0  0  0  0  0  0  0  0  0  0  0
    4.1230   -0.2960   -0.6000 C   0  0  0  0  0  0  0  0  0  0  0  0
    5.4490    0.2110   -1.1110 C   0  0  0  0  0  0  0  0  0  0  0  0
    6.4370   -0.5580   -0.4410 O   0  0  0  0  0  0  0  0  0  0  0  0
    5.8070   -1.4570    0.3940 C   0  0  0  0  0  0  0  0  0  0  0  0
    6.4950   -2.2030    1.0480 O   0  0  0  0  0  0  0  0  0  0  0  0
    4.3410   -1.2790    0.2820 C   0  0  0  0  0  0  0  0  0  0  0  0
    3.3080    1.9400   -1.8450 H   0  0  0  0  0  0  0  0  0  0  0  0
    2.0640    0.2370    0.9870 H   0  0  0  0  0  0  0  0  0  0  0  0
    2.7690    1.7450    0.5030 H   0  0  0  0  0  0  0  0  0  0  0  0
    2.3370    3.3030    1.1410 H   0  0  0  0  0  0  0  0  0  0  0  0
    1.1930    4.6920    1.0460 H   0  0  0  0  0  0  0  0  0  0  0  0
   -0.9360    4.5150   -0.0330 H   0  0  0  0  0  0  0  0  0  0  0  0
   -0.8470    3.4740   -1.4370 H   0  0  0  0  0  0  0  0  0  0  0  0
   -1.9930    2.7260    1.3520 H   0  0  0  0  0  0  0  0  0  0  0  0
   -2.9240    3.0020   -0.1090 H   0  0  0  0  0  0  0  0  0  0  0  0
   -3.2670    1.3850    2.0960 H   0  0  0  0  0  0  0  0  0  0  0  0
   -4.3060   -0.0260    1.9510 H   0  0  0  0  0  0  0  0  0  0  0  0
   -2.5960   -0.2370    2.3040 H   0  0  0  0  0  0  0  0  0  0  0  0
   -4.4490    1.8880   -0.2090 H   0  0  0  0  0  0  0  0  0  0  0  0
   -4.0030    0.9650   -1.6320 H   0  0  0  0  0  0  0  0  0  0  0  0
   -5.7550   -0.0690    0.7020 H   0  0  0  0  0  0  0  0  0  0  0  0
   -6.3170    0.3930   -0.8890 H   0  0  0  0  0  0  0  0  0  0  0  0
   -6.0560   -2.0830   -0.7700 H   0  0  0  0  0  0  0  0  0  0  0  0
   -5.0070   -1.3940   -1.9930 H   0  0  0  0  0  0  0  0  0  0  0  0
   -5.1200   -3.2670    1.2060 H   0  0  0  0  0  0  0  0  0  0  0  0
   -3.4600   -3.0150    1.7200 H   0  0  0  0  0  0  0  0  0  0  0  0
   -4.6390   -1.7090    1.8460 H   0  0  0  0  0  0  0  0  0  0  0  0
   -3.3400   -3.1700   -2.0540 H   0  0  0  0  0  0  0  0  0  0  0  0
   -2.7390   -3.9030   -0.5700 H   0  0  0  0  0  0  0  0  0  0  0  0
   -4.4340   -4.0810   -1.0250 H   0  0  0  0  0  0  0  0  0  0  0  0
   -2.5170   -1.0460   -1.4030 H   0  0  0  0  0  0  0  0  0  0  0  0
   -1.6150   -1.7050    1.4890 H   0  0  0  0  0  0  0  0  0  0  0  0
   -1.3370   -2.7510    0.1100 H   0  0  0  0  0  0  0  0  0  0  0  0
    0.6310   -1.3120    0.4260 H   0  0  0  0  0  0  0  0  0  0  0  0
   -0.1210   -0.9380   -1.1150 H   0  0  0  0  0  0  0  0  0  0  0  0
    0.7430    0.4990    2.2420 H   0  0  0  0  0  0  0  0  0  0  0  0
   -0.4970    1.7510    2.2760 H   0  0  0  0  0  0  0  0  0  0  0  0
   -0.9370    0.0570    2.4720 H   0  0  0  0  0  0  0  0  0  0  0  0
    5.5700    0.0740   -2.2060 H   0  0  0  0  0  0  0  0  0  0  0  0
    5.6220    1.2830   -0.8780 H   0  0  0  0  0  0  0  0  0  0  0  0
    3.6380   -1.8830    0.8450 H   0  0  0  0  0  0  0  0  0  0  0  0
  1 32  1  0
  1  2  1  0
  2  3  1  6
  2 26  1  0
  2  4  1  0
  4  5  1  0
  4 34  1  0
  4 33  1  0
  5  6  1  6
  5  7  1  0
  5 24  1  0
  7  9  1  0
  7  8  2  0
  8 36  1  0
  8 35  1  0
  9 38  1  0
  9 37  1  0
  9 10  1  0
 10 11  1  0
 10 40  1  0
 10 39  1  0
 11 12  1  6
 11 13  1  0
 11 24  1  0
 13 15  1  0
 13 21  1  0
 13 14  1  1
 14 42  1  0
 14 41  1  0
 14 43  1  0
 15 45  1  0
 15 16  1  0
 15 44  1  0
 16 17  1  0
 16 47  1  0
 16 46  1  0
 17 49  1  0
 17 48  1  0
 17 18  1  0
 18 20  1  6
 18 21  1  0
 18 19  1  0
 19 50  1  0
 19 51  1  0
 19 52  1  0
 20 53  1  0
 20 55  1  0
 20 54  1  0
 21 56  1  6
 21 22  1  0
 22 23  1  0
 22 58  1  0
 22 57  1  0
 23 60  1  0
 23 24  1  0
 23 59  1  0
 24 25  1  1
 25 61  1  0
 25 62  1  0
 25 63  1  0
 26 27  1  0
 26 31  2  0
 27 64  1  0
 27 65  1  0
 27 28  1  0
 28 29  1  0
 29 31  1  0
 29 30  2  0
 31 66  1  0
M  END
>  <id>  (89) 
189

>  <scaffolds>  (89) 
['C=C1CCC2CCCCC2C1', 'C1CCCCC1', 'C1CCC2CCCCC2C1']

>  <name>  (89) 
Hamiltonin E

>  <formula>  (89) 
C25H38O3

>  <SMILES>  (89) 
O[C@H](C[C@@H]2C(=C)CC[C@@H]1[C@@]3(C)CCCC(C)(C)C3CC[C@]12C)C=4COC(=O)C=4

>  <ChEMBL_id>  (89) 


>  <ZINC_id>  (89) 


>  <PubChem_id>  (89) 


>  <DrugBank_id>  (89) 


>  <CAS_no>  (89) 
166797-74-6

>  <references>  (89) 
[{'journal': {'name': 'Tetrahedron', 'id': 4}, 'title': 'Unusual chlorinated homo-diterpenes from the SouthAfrican nudibranch Chromodoris hamiltoni', 'year': 1995, 'start_page': 8189, 'volume': 51, 'issue': 30, 'doi': '10.1016/0040-4020(95)00440-J', 'isbn': '', 'despositor': {'code': 'TMM', 'first_name': 'Thommas', 'last_name': 'Musyoka', 'id': 22}, 'refauthors_set': [{'author': {'first_name': '', 'initials': 'J', 'last_name': 'Pika', 'id': 484}, 'first_author': True, 'id': 638}, {'author': {'first_name': 'John', 'initials': 'DJ', 'last_name': 'Faulkner', 'id': 529}, 'first_author': False, 'id': 700}], 'id': 245}]

>  <classifications>  (89) 
[{'classification': 'Hamiltonin', 'id': 782}, {'classification': 'Sesquiterpene', 'id': 828}, {'classification': 'Terpenoid', 'id': 839}, {'classification': 'Phenol lipids (Classyfire)', 'id': 951}]

>  <molecular_mass>  (89) 
386.57

$$$$
SANC00190_minRM1.pdb
     RDKit          3D

 40 41  0  0  1  0  0  0  0  0999 V2000
   -0.0870   -1.6630    1.8150 O   0  0  0  0  0  0  0  0  0  0  0  0
    0.1820   -1.0100    0.8210 C   0  0  0  0  0  0  0  0  0  0  0  0
    0.8110   -1.6910   -0.3340 C   0  0  0  0  0  0  0  0  0  0  0  0
    0.0930   -2.2480   -1.3000 C   0  0  0  0  0  0  0  0  0  0  0  0
    2.2920   -1.7950   -0.2300 C   0  0  0  0  0  0  0  0  0  0  0  0
    2.9420   -0.4390   -0.4640 C   0  0  0  0  0  0  0  0  0  0  0  0
    2.4770    0.6290    0.5190 C   0  0  0  0  0  0  0  0  0  0  0  0
    1.1190    1.2850    0.2330 C   0  0  2  0  0  0  0  0  0  0  0  0
   -0.0770    0.4780    0.7870 C   0  0  1  0  0  0  0  0  0  0  0  0
   -0.3010    0.7940    1.8400 H   0  0  0  0  0  0  0  0  0  0  0  0
   -1.2530    0.8630   -0.1260 C   0  0  1  0  0  0  0  0  0  0  0  0
   -1.6470    1.8540    0.2230 H   0  0  0  0  0  0  0  0  0  0  0  0
   -0.6220    1.0520   -1.5070 C   0  0  0  0  0  0  0  0  0  0  0  0
    0.8190    1.5010   -1.2600 C   0  0  0  0  0  0  0  0  0  0  0  0
   -2.4220   -0.1260   -0.1210 C   0  0  1  0  0  0  0  0  0  0  0  0
   -3.0610   -0.1840    1.2630 C   0  0  0  0  0  0  0  0  0  0  0  0
   -3.4760    0.3060   -1.1380 C   0  0  0  0  0  0  0  0  0  0  0  0
    1.1270    2.6500    0.9400 C   0  0  0  0  0  0  0  0  0  0  0  0
   -0.9960   -2.2070   -1.3260 H   0  0  0  0  0  0  0  0  0  0  0  0
    0.5220   -2.7910   -2.1360 H   0  0  0  0  0  0  0  0  0  0  0  0
    2.5680   -2.2050    0.7670 H   0  0  0  0  0  0  0  0  0  0  0  0
    2.6930   -2.5410   -0.9500 H   0  0  0  0  0  0  0  0  0  0  0  0
    4.0460   -0.5520   -0.3880 H   0  0  0  0  0  0  0  0  0  0  0  0
    2.7770   -0.1120   -1.5160 H   0  0  0  0  0  0  0  0  0  0  0  0
    2.4790    0.2240    1.5540 H   0  0  0  0  0  0  0  0  0  0  0  0
    3.2640    1.4170    0.5410 H   0  0  0  0  0  0  0  0  0  0  0  0
   -0.6490    0.1190   -2.1050 H   0  0  0  0  0  0  0  0  0  0  0  0
   -1.1840    1.7850   -2.1190 H   0  0  0  0  0  0  0  0  0  0  0  0
    0.9670    2.5570   -1.5630 H   0  0  0  0  0  0  0  0  0  0  0  0
    1.5220    0.9490   -1.9200 H   0  0  0  0  0  0  0  0  0  0  0  0
   -2.0610   -1.1520   -0.4040 H   0  0  0  0  0  0  0  0  0  0  0  0
   -3.4580    0.7900    1.5830 H   0  0  0  0  0  0  0  0  0  0  0  0
   -3.9040   -0.8910    1.2930 H   0  0  0  0  0  0  0  0  0  0  0  0
   -2.3610   -0.5140    2.0430 H   0  0  0  0  0  0  0  0  0  0  0  0
   -3.8060    1.3440   -0.9870 H   0  0  0  0  0  0  0  0  0  0  0  0
   -3.1230    0.2320   -2.1760 H   0  0  0  0  0  0  0  0  0  0  0  0
   -4.3790   -0.3200   -1.0810 H   0  0  0  0  0  0  0  0  0  0  0  0
    1.8870    3.3320    0.5300 H   0  0  0  0  0  0  0  0  0  0  0  0
    0.1670    3.1790    0.8510 H   0  0  0  0  0  0  0  0  0  0  0  0
    1.3390    2.5620    2.0160 H   0  0  0  0  0  0  0  0  0  0  0  0
  1  2  2  0
  2  3  1  0
  2  9  1  0
  3  4  2  0
  3  5  1  0
  4 20  1  0
  4 19  1  0
  5 22  1  0
  5  6  1  0
  5 21  1  0
  6 24  1  0
  6 23  1  0
  6  7  1  0
  7  8  1  0
  7 26  1  0
  7 25  1  0
  8 14  1  0
  8  9  1  0
  8 18  1  1
  9 11  1  0
  9 10  1  1
 11 13  1  0
 11 15  1  0
 11 12  1  1
 13 28  1  0
 13 27  1  0
 13 14  1  0
 14 30  1  0
 14 29  1  0
 15 17  1  0
 15 31  1  6
 15 16  1  0
 16 33  1  0
 16 32  1  0
 16 34  1  0
 17 36  1  0
 17 37  1  0
 17 35  1  0
 18 38  1  0
 18 39  1  0
 18 40  1  0
M  END
>  <id>  (90) 
190

>  <scaffolds>  (90) 
['C=C1CCCC2CCCC2C1', 'C1CCC2CCCC2CC1', 'C=C1CCCC2CCCC2C1=O']

>  <name>  (90) 
Millecrone A

>  <formula>  (90) 
C15H24O

>  <SMILES>  (90) 
O=C1\C(=C)CCC[C@@]2([C@H]1[C@@H](CC2)C(C)C)C

>  <ChEMBL_id>  (90) 


>  <ZINC_id>  (90) 


>  <PubChem_id>  (90) 


>  <DrugBank_id>  (90) 


>  <CAS_no>  (90) 
154512-19-3

>  <references>  (90) 
[{'journal': {'name': 'Journal of Natural Products', 'id': 5}, 'title': 'Sequestered Chemistry of the Arminacean Nudibranch Leminda millecra in Algoa Bay, South Africa', 'year': 2001, 'start_page': 1183, 'volume': 64, 'issue': 9, 'doi': '10.1021/np010085x', 'isbn': '', 'despositor': {'code': 'TMM', 'first_name': 'Thommas', 'last_name': 'Musyoka', 'id': 22}, 'refauthors_set': [{'author': {'first_name': 'Kerry', 'initials': 'KL', 'last_name': 'McPhail', 'id': 483}, 'first_author': True, 'id': 639}, {'author': {'first_name': 'Michael', 'initials': 'MT', 'last_name': 'Davies-Coleman', 'id': 449}, 'first_author': False, 'id': 701}, {'author': {'first_name': '', 'initials': 'JA', 'last_name': 'Starmer', 'id': 530}, 'first_author': False, 'id': 702}], 'id': 246}]

>  <classifications>  (90) 
[{'classification': 'Millecrone', 'id': 794}, {'classification': 'Sesquiterpene', 'id': 828}, {'classification': 'Terpenoid', 'id': 839}, {'classification': 'Phenol lipids (Classyfire)', 'id': 951}]

>  <molecular_mass>  (90) 
220.35

$$$$
SANC00191_minRM1.pdb
     RDKit          3D

 38 40  0  0  1  0  0  0  0  0999 V2000
    1.6740   -2.8140    1.0980 O   0  0  0  0  0  0  0  0  0  0  0  0
    1.1740   -1.8970    0.4640 C   0  0  0  0  0  0  0  0  0  0  0  0
   -0.1330   -2.1260   -0.2590 C   0  0  0  0  0  0  0  0  0  0  0  0
   -1.1620   -1.4290    0.5820 C   0  0  1  0  0  0  0  0  0  0  0  0
   -1.3180   -1.9480    1.5470 H   0  0  0  0  0  0  0  0  0  0  0  0
   -1.1640    0.0860    0.5630 C   0  0  1  0  0  0  0  0  0  0  0  0
   -1.2980    0.5930    1.5340 H   0  0  0  0  0  0  0  0  0  0  0  0
   -0.2070    0.7730   -0.3690 C   0  0  2  0  0  0  0  0  0  0  0  0
   -0.3260    0.3620   -1.4140 H   0  0  0  0  0  0  0  0  0  0  0  0
    1.2270    0.5660    0.0160 C   0  0  0  0  0  0  0  0  0  0  0  0
    1.9560    1.8680   -0.1290 C   0  0  0  0  0  0  0  0  0  0  0  0
    0.9930    2.8010   -0.8660 C   0  0  0  0  0  0  0  0  0  0  0  0
   -0.4030    2.3030   -0.4710 C   0  0  2  0  0  0  0  0  0  0  0  0
   -1.1550    2.5380   -1.2640 H   0  0  0  0  0  0  0  0  0  0  0  0
   -0.8460    2.9720    0.8200 C   0  0  0  0  0  0  0  0  0  0  0  0
    1.8240   -0.5710    0.3860 C   0  0  0  0  0  0  0  0  0  0  0  0
    3.2690   -0.6180    0.7620 C   0  0  0  0  0  0  0  0  0  0  0  0
   -2.3470   -0.6880   -0.0120 C   0  0  1  0  0  0  0  0  0  0  0  0
   -2.6080   -0.7240   -1.4880 C   0  0  0  0  0  0  0  0  0  0  0  0
   -3.6230   -0.6880    0.7870 C   0  0  0  0  0  0  0  0  0  0  0  0
   -0.0710   -1.7780   -1.3080 H   0  0  0  0  0  0  0  0  0  0  0  0
   -0.3680   -3.2090   -0.3510 H   0  0  0  0  0  0  0  0  0  0  0  0
    2.2280    2.2700    0.8700 H   0  0  0  0  0  0  0  0  0  0  0  0
    2.9140    1.7620   -0.6770 H   0  0  0  0  0  0  0  0  0  0  0  0
    1.1660    3.8660   -0.6230 H   0  0  0  0  0  0  0  0  0  0  0  0
    1.1400    2.7410   -1.9640 H   0  0  0  0  0  0  0  0  0  0  0  0
   -0.8230    4.0690    0.7360 H   0  0  0  0  0  0  0  0  0  0  0  0
   -1.8820    2.7190    1.0910 H   0  0  0  0  0  0  0  0  0  0  0  0
   -0.2050    2.7090    1.6750 H   0  0  0  0  0  0  0  0  0  0  0  0
    3.4030   -1.0390    1.7710 H   0  0  0  0  0  0  0  0  0  0  0  0
    3.8370   -1.2610    0.0710 H   0  0  0  0  0  0  0  0  0  0  0  0
    3.7810    0.3530    0.7780 H   0  0  0  0  0  0  0  0  0  0  0  0
   -1.7430   -0.4080   -2.0940 H   0  0  0  0  0  0  0  0  0  0  0  0
   -2.8820   -1.7370   -1.8160 H   0  0  0  0  0  0  0  0  0  0  0  0
   -3.4350   -0.0560   -1.7760 H   0  0  0  0  0  0  0  0  0  0  0  0
   -4.2130    0.2220    0.6040 H   0  0  0  0  0  0  0  0  0  0  0  0
   -4.2590   -1.5470    0.5260 H   0  0  0  0  0  0  0  0  0  0  0  0
   -3.4570   -0.7390    1.8730 H   0  0  0  0  0  0  0  0  0  0  0  0
  1  2  2  0
  2  3  1  0
  2 16  1  0
  3 21  1  0
  3 22  1  0
  3  4  1  0
  4 18  1  0
  4  6  1  0
  4  5  1  1
  6  8  1  0
  6 18  1  0
  6  7  1  1
  8  9  1  6
  8 13  1  0
  8 10  1  0
 10 11  1  0
 10 16  2  0
 11 12  1  0
 11 24  1  0
 11 23  1  0
 12 26  1  0
 12 25  1  0
 12 13  1  0
 13 14  1  6
 13 15  1  0
 15 27  1  0
 15 28  1  0
 15 29  1  0
 16 17  1  0
 17 31  1  0
 17 32  1  0
 17 30  1  0
 18 19  1  6
 18 20  1  0
 19 33  1  0
 19 34  1  0
 19 35  1  0
 20 37  1  0
 20 36  1  0
 20 38  1  0
M  END
>  <id>  (91) 
191

>  <scaffolds>  (91) 
['O=C1C=C2CCCC2C2CC2C1']

>  <name>  (91) 
Millecrone B

>  <formula>  (91) 
C15H22O

>  <SMILES>  (91) 
O=C2C[C@H]3[C@@H]([C@@H]1C(\CC[C@@H]1C)=C2\C)C3(C)C

>  <ChEMBL_id>  (91) 


>  <ZINC_id>  (91) 


>  <PubChem_id>  (91) 


>  <DrugBank_id>  (91) 


>  <CAS_no>  (91) 
154632-50-5

>  <references>  (91) 
[{'journal': {'name': 'Journal of Natural Products', 'id': 5}, 'title': 'Sequestered Chemistry of the Arminacean Nudibranch Leminda millecra in Algoa Bay, South Africa', 'year': 2001, 'start_page': 1183, 'volume': 64, 'issue': 9, 'doi': '10.1021/np010085x', 'isbn': '', 'despositor': {'code': 'TMM', 'first_name': 'Thommas', 'last_name': 'Musyoka', 'id': 22}, 'refauthors_set': [{'author': {'first_name': 'Kerry', 'initials': 'KL', 'last_name': 'McPhail', 'id': 483}, 'first_author': True, 'id': 639}, {'author': {'first_name': 'Michael', 'initials': 'MT', 'last_name': 'Davies-Coleman', 'id': 449}, 'first_author': False, 'id': 701}, {'author': {'first_name': '', 'initials': 'JA', 'last_name': 'Starmer', 'id': 530}, 'first_author': False, 'id': 702}], 'id': 246}]

>  <classifications>  (91) 
[{'classification': 'Millecrone', 'id': 794}, {'classification': 'Sesquiterpene', 'id': 828}, {'classification': 'Terpenoid', 'id': 839}, {'classification': 'Phenol lipids (Classyfire)', 'id': 951}]

>  <molecular_mass>  (91) 
218.33

$$$$
SANC00192_minRM1.pdb
     RDKit          3D

 42 43  0  0  1  0  0  0  0  0999 V2000
    0.0930    0.7810    1.8300 O   0  0  0  0  0  0  0  0  0  0  0  0
    0.3160    1.1180    0.4970 C   0  0  1  0  0  0  0  0  0  0  0  0
   -0.3590    1.9850    0.2150 H   0  0  0  0  0  0  0  0  0  0  0  0
    1.7280    1.5660    0.2100 C   0  0  0  0  0  0  0  0  0  0  0  0
    1.9640    2.4680   -0.7410 C   0  0  0  0  0  0  0  0  0  0  0  0
    2.8410    0.9320    0.9660 C   0  0  0  0  0  0  0  0  0  0  0  0
    2.9920   -0.5120    0.4940 C   0  0  0  0  0  0  0  0  0  0  0  0
    1.8250   -1.3830    0.9390 C   0  0  0  0  0  0  0  0  0  0  0  0
    0.6540   -1.4360   -0.0470 C   0  0  1  0  0  0  0  0  0  0  0  0
   -0.4470   -2.3510    0.5460 C   0  0  0  0  0  0  0  0  0  0  0  0
   -1.6870   -1.4820    0.7150 C   0  0  0  0  0  0  0  0  0  0  0  0
   -1.5480   -0.4320   -0.3850 C   0  0  2  0  0  0  0  0  0  0  0  0
   -1.7740   -0.9200   -1.3710 H   0  0  0  0  0  0  0  0  0  0  0  0
   -0.0400   -0.0910   -0.3870 C   0  0  1  0  0  0  0  0  0  0  0  0
    0.2480    0.2350   -1.4220 H   0  0  0  0  0  0  0  0  0  0  0  0
   -2.5260    0.7300   -0.2020 C   0  0  1  0  0  0  0  0  0  0  0  0
   -2.3580    1.7620   -1.3150 C   0  0  0  0  0  0  0  0  0  0  0  0
   -3.9650    0.2170   -0.2220 C   0  0  0  0  0  0  0  0  0  0  0  0
    1.1720   -2.0550   -1.3530 C   0  0  0  0  0  0  0  0  0  0  0  0
    0.3210    1.5530    2.3590 H   0  0  0  0  0  0  0  0  0  0  0  0
    1.1920    2.9420   -1.3400 H   0  0  0  0  0  0  0  0  0  0  0  0
    2.9580    2.8130   -1.0120 H   0  0  0  0  0  0  0  0  0  0  0  0
    3.7950    1.4850    0.8230 H   0  0  0  0  0  0  0  0  0  0  0  0
    2.6720    0.9860    2.0630 H   0  0  0  0  0  0  0  0  0  0  0  0
    3.1240   -0.5470   -0.6110 H   0  0  0  0  0  0  0  0  0  0  0  0
    3.9400   -0.9260    0.8970 H   0  0  0  0  0  0  0  0  0  0  0  0
    2.2040   -2.4230    1.0840 H   0  0  0  0  0  0  0  0  0  0  0  0
    1.4850   -1.0990    1.9580 H   0  0  0  0  0  0  0  0  0  0  0  0
   -0.6640   -3.2140   -0.1180 H   0  0  0  0  0  0  0  0  0  0  0  0
   -0.1560   -2.8300    1.5020 H   0  0  0  0  0  0  0  0  0  0  0  0
   -2.6190   -2.0750    0.6330 H   0  0  0  0  0  0  0  0  0  0  0  0
   -1.7300   -1.0210    1.7220 H   0  0  0  0  0  0  0  0  0  0  0  0
   -2.3540    1.2220    0.7910 H   0  0  0  0  0  0  0  0  0  0  0  0
   -2.5430    1.3410   -2.3140 H   0  0  0  0  0  0  0  0  0  0  0  0
   -3.0490    2.6120   -1.1940 H   0  0  0  0  0  0  0  0  0  0  0  0
   -1.3460    2.1970   -1.3300 H   0  0  0  0  0  0  0  0  0  0  0  0
   -4.2150   -0.3730    0.6700 H   0  0  0  0  0  0  0  0  0  0  0  0
   -4.6930    1.0410   -0.2480 H   0  0  0  0  0  0  0  0  0  0  0  0
   -4.1800   -0.4150   -1.0950 H   0  0  0  0  0  0  0  0  0  0  0  0
    1.5490   -3.0800   -1.2130 H   0  0  0  0  0  0  0  0  0  0  0  0
    0.3950   -2.1180   -2.1310 H   0  0  0  0  0  0  0  0  0  0  0  0
    2.0070   -1.4730   -1.7780 H   0  0  0  0  0  0  0  0  0  0  0  0
  1  2  1  0
  1 20  1  0
  2 14  1  0
  2  4  1  0
  2  3  1  6
  4  5  2  0
  4  6  1  0
  5 21  1  0
  5 22  1  0
  6  7  1  0
  6 23  1  0
  6 24  1  0
  7 25  1  0
  7 26  1  0
  7  8  1  0
  8  9  1  0
  8 27  1  0
  8 28  1  0
  9 19  1  6
  9 14  1  0
  9 10  1  0
 10 29  1  0
 10 11  1  0
 10 30  1  0
 11 12  1  0
 11 31  1  0
 11 32  1  0
 12 13  1  6
 12 14  1  0
 12 16  1  0
 14 15  1  6
 16 17  1  0
 16 18  1  0
 16 33  1  1
 17 34  1  0
 17 36  1  0
 17 35  1  0
 18 39  1  0
 18 38  1  0
 18 37  1  0
 19 41  1  0
 19 42  1  0
 19 40  1  0
M  END
>  <id>  (92) 
192

>  <scaffolds>  (92) 
['C=C1CCCC2CCCC2C1', 'C1CCC2CCCC2CC1']

>  <name>  (92) 
Millecrol A

>  <formula>  (92) 
C15H26O

>  <SMILES>  (92) 
O[C@H]1C(=C)\CCC[C@]2(CC[C@H]([C@@H]12)C(C)C)C

>  <ChEMBL_id>  (92) 


>  <ZINC_id>  (92) 


>  <PubChem_id>  (92) 
 10421115

>  <DrugBank_id>  (92) 


>  <CAS_no>  (92) 
154512-21-7

>  <references>  (92) 
[{'journal': {'name': 'Tetrahedron', 'id': 4}, 'title': 'Four sesquiterpenes from the South African nudibranch Leminda millecra', 'year': 1994, 'start_page': 3065, 'volume': 50, 'issue': 10, 'doi': '10.1016/S0040-4020(01)81106-6', 'isbn': '', 'despositor': {'code': 'TMM', 'first_name': 'Thommas', 'last_name': 'Musyoka', 'id': 22}, 'refauthors_set': [{'author': {'first_name': '', 'initials': 'J', 'last_name': 'Pika', 'id': 484}, 'first_author': True, 'id': 640}, {'author': {'first_name': 'John', 'initials': 'DJ', 'last_name': 'Faulkner', 'id': 529}, 'first_author': False, 'id': 703}], 'id': 247}]

>  <classifications>  (92) 
[{'classification': 'Millecrone', 'id': 794}, {'classification': 'Sesquiterpene', 'id': 828}, {'classification': 'Terpenoid', 'id': 839}, {'classification': 'Phenol lipids (Classyfire)', 'id': 951}]

>  <molecular_mass>  (92) 
222.37

$$$$
SANC00193_minRM1.pdb
     RDKit          3D

 42 43  0  0  1  0  0  0  0  0999 V2000
   -0.6190    2.0070    1.4590 O   0  0  0  0  0  0  0  0  0  0  0  0
   -0.5500    2.0420    0.0640 C   0  0  1  0  0  0  0  0  0  0  0  0
    0.8910    2.3120   -0.4080 C   0  0  0  0  0  0  0  0  0  0  0  0
    1.8240    1.2270    0.1080 C   0  0  0  0  0  0  0  0  0  0  0  0
    1.4020   -0.1350   -0.4370 C   0  0  2  0  0  0  0  0  0  0  0  0
    1.3960   -0.0820   -1.5590 H   0  0  0  0  0  0  0  0  0  0  0  0
   -0.0300   -0.4460    0.0320 C   0  0  1  0  0  0  0  0  0  0  0  0
   -0.0550   -0.5060    1.1500 H   0  0  0  0  0  0  0  0  0  0  0  0
   -1.0010    0.6510   -0.4330 C   0  0  1  0  0  0  0  0  0  0  0  0
   -1.0080    0.6840   -1.5540 H   0  0  0  0  0  0  0  0  0  0  0  0
   -2.4120    0.3220    0.0590 C   0  0  0  0  0  0  0  0  0  0  0  0
   -2.8750   -1.0230   -0.4940 C   0  0  0  0  0  0  0  0  0  0  0  0
   -1.8930   -2.0810   -0.1230 C   0  0  0  0  0  0  0  0  0  0  0  0
   -2.2370   -3.1940    0.5160 C   0  0  0  0  0  0  0  0  0  0  0  0
   -0.4950   -1.7890   -0.5480 C   0  0  0  0  0  0  0  0  0  0  0  0
    2.3950   -1.2410   -0.0320 C   0  0  1  0  0  0  0  0  0  0  0  0
    3.6680   -1.1550   -0.8700 C   0  0  0  0  0  0  0  0  0  0  0  0
    2.7650   -1.2150    1.4460 C   0  0  0  0  0  0  0  0  0  0  0  0
   -1.4660    3.1530   -0.4720 C   0  0  0  0  0  0  0  0  0  0  0  0
   -0.3020    2.8510    1.7910 H   0  0  0  0  0  0  0  0  0  0  0  0
    0.9220    2.3740   -1.5150 H   0  0  0  0  0  0  0  0  0  0  0  0
    1.2400    3.3100   -0.0690 H   0  0  0  0  0  0  0  0  0  0  0  0
    2.8700    1.4620   -0.1800 H   0  0  0  0  0  0  0  0  0  0  0  0
    1.8300    1.2370    1.2190 H   0  0  0  0  0  0  0  0  0  0  0  0
   -2.4540    0.3100    1.1690 H   0  0  0  0  0  0  0  0  0  0  0  0
   -3.1340    1.1090   -0.2420 H   0  0  0  0  0  0  0  0  0  0  0  0
   -3.8970   -1.2560   -0.1300 H   0  0  0  0  0  0  0  0  0  0  0  0
   -2.9790   -0.9860   -1.6000 H   0  0  0  0  0  0  0  0  0  0  0  0
   -3.2520   -3.4230    0.8240 H   0  0  0  0  0  0  0  0  0  0  0  0
   -1.5350   -3.9740    0.7900 H   0  0  0  0  0  0  0  0  0  0  0  0
   -0.4430   -1.7870   -1.6590 H   0  0  0  0  0  0  0  0  0  0  0  0
    0.2050   -2.6010   -0.2440 H   0  0  0  0  0  0  0  0  0  0  0  0
    1.9150   -2.2370   -0.2460 H   0  0  0  0  0  0  0  0  0  0  0  0
    4.3710   -1.9650   -0.6230 H   0  0  0  0  0  0  0  0  0  0  0  0
    3.4680   -1.2380   -1.9480 H   0  0  0  0  0  0  0  0  0  0  0  0
    4.2190   -0.2150   -0.7230 H   0  0  0  0  0  0  0  0  0  0  0  0
    1.8870   -1.1550    2.1030 H   0  0  0  0  0  0  0  0  0  0  0  0
    3.3080   -2.1270    1.7390 H   0  0  0  0  0  0  0  0  0  0  0  0
    3.4240   -0.3760    1.7110 H   0  0  0  0  0  0  0  0  0  0  0  0
   -1.0560    4.1570   -0.2910 H   0  0  0  0  0  0  0  0  0  0  0  0
   -1.6250    3.0710   -1.5550 H   0  0  0  0  0  0  0  0  0  0  0  0
   -2.4590    3.1430    0.0020 H   0  0  0  0  0  0  0  0  0  0  0  0
  1 20  1  0
  2  1  1  1
  2 19  1  0
  2  9  1  0
  2  3  1  0
  3 21  1  0
  3 22  1  0
  3  4  1  0
  4  5  1  0
  4 23  1  0
  4 24  1  0
  5  6  1  6
  5 16  1  0
  5  7  1  0
  7 15  1  0
  7  9  1  0
  7  8  1  1
  9 10  1  6
  9 11  1  0
 11 12  1  0
 11 26  1  0
 11 25  1  0
 12 28  1  0
 12 27  1  0
 12 13  1  0
 13 15  1  0
 13 14  2  0
 14 30  1  0
 14 29  1  0
 15 31  1  0
 15 32  1  0
 16 17  1  0
 16 33  1  1
 16 18  1  0
 17 35  1  0
 17 36  1  0
 17 34  1  0
 18 39  1  0
 18 38  1  0
 18 37  1  0
 19 41  1  0
 19 40  1  0
 19 42  1  0
M  END
>  <id>  (93) 
193

>  <scaffolds>  (93) 
['C=C1CCC2CCCCC2C1', 'C1CCCCC1', 'C1CCC2CCCCC2C1']

>  <name>  (93) 
Millecrol B

>  <formula>  (93) 
C15H26O

>  <SMILES>  (93) 
O[C@]2(CC[C@H]([C@H]1[C@H]2CC/C(=C)C1)C(C)C)C

>  <ChEMBL_id>  (93) 


>  <ZINC_id>  (93) 


>  <PubChem_id>  (93) 
 10376279

>  <DrugBank_id>  (93) 


>  <CAS_no>  (93) 
154524-44-4

>  <references>  (93) 
[{'journal': {'name': 'Tetrahedron', 'id': 4}, 'title': 'Four sesquiterpenes from the South African nudibranch Leminda millecra', 'year': 1994, 'start_page': 3065, 'volume': 50, 'issue': 10, 'doi': '10.1016/S0040-4020(01)81106-6', 'isbn': '', 'despositor': {'code': 'TMM', 'first_name': 'Thommas', 'last_name': 'Musyoka', 'id': 22}, 'refauthors_set': [{'author': {'first_name': '', 'initials': 'J', 'last_name': 'Pika', 'id': 484}, 'first_author': True, 'id': 640}, {'author': {'first_name': 'John', 'initials': 'DJ', 'last_name': 'Faulkner', 'id': 529}, 'first_author': False, 'id': 703}], 'id': 247}]

>  <classifications>  (93) 
[{'classification': 'Millecrone', 'id': 794}, {'classification': 'Sesquiterpene', 'id': 828}, {'classification': 'Terpenoid', 'id': 839}, {'classification': 'Phenol lipids (Classyfire)', 'id': 951}]

>  <molecular_mass>  (93) 
222.37

$$$$
SANC00194_minRM1.pdb
     RDKit          3D

 42 42  0  0  0  0  0  0  0  0999 V2000
   -4.8400   -2.6200   -0.2650 C   0  0  0  0  0  0  0  0  0  0  0  0
   -5.3690   -1.6210    0.4340 C   0  0  0  0  0  0  0  0  0  0  0  0
   -4.9420   -0.2280    0.3630 C   0  0  0  0  0  0  0  0  0  0  0  0
   -5.4570    0.6790    1.1970 C   0  0  0  0  0  0  0  0  0  0  0  0
   -3.9120    0.1720   -0.6450 C   0  0  0  0  0  0  0  0  0  0  0  0
   -2.5160   -0.0850   -0.0780 C   0  0  0  0  0  0  0  0  0  0  0  0
   -1.4430    0.3960   -1.0550 C   0  0  0  0  0  0  0  0  0  0  0  0
   -0.0830    0.1320   -0.4930 C   0  0  0  0  0  0  0  0  0  0  0  0
    0.5950   -0.9680   -0.8280 C   0  0  0  0  0  0  0  0  0  0  0  0
    1.9240   -1.3130   -0.3890 C   0  0  0  0  0  0  0  0  0  0  0  0
    2.5070   -2.5400   -0.1710 C   0  0  0  0  0  0  0  0  0  0  0  0
    3.8650   -2.2710    0.2090 C   0  0  0  0  0  0  0  0  0  0  0  0
    4.8890   -3.2730    0.5340 C   0  0  0  0  0  0  0  0  0  0  0  0
    4.0070   -0.9060    0.1900 C   0  0  0  0  0  0  0  0  0  0  0  0
    2.8310   -0.3050   -0.1780 O   0  0  0  0  0  0  0  0  0  0  0  0
    0.4330    1.1790    0.4480 C   0  0  0  0  0  0  0  0  0  0  0  0
    1.0710    2.1170   -0.4040 O   0  0  0  0  0  0  0  0  0  0  0  0
    1.6420    3.2010    0.1770 C   0  0  0  0  0  0  0  0  0  0  0  0
    2.3000    4.0980   -0.8200 C   0  0  0  0  0  0  0  0  0  0  0  0
    1.5790    3.3630    1.3840 O   0  0  0  0  0  0  0  0  0  0  0  0
   -5.1930   -3.6440   -0.1770 H   0  0  0  0  0  0  0  0  0  0  0  0
   -4.0250   -2.5360   -0.9770 H   0  0  0  0  0  0  0  0  0  0  0  0
   -6.1940   -1.8270    1.1300 H   0  0  0  0  0  0  0  0  0  0  0  0
   -5.1810    1.7290    1.1900 H   0  0  0  0  0  0  0  0  0  0  0  0
   -6.1980    0.4540    1.9580 H   0  0  0  0  0  0  0  0  0  0  0  0
   -4.0620   -0.3590   -1.6080 H   0  0  0  0  0  0  0  0  0  0  0  0
   -4.0260    1.2430   -0.9200 H   0  0  0  0  0  0  0  0  0  0  0  0
   -2.4080    0.4220    0.9050 H   0  0  0  0  0  0  0  0  0  0  0  0
   -2.3760   -1.1620    0.1490 H   0  0  0  0  0  0  0  0  0  0  0  0
   -1.5720   -0.0920   -2.0450 H   0  0  0  0  0  0  0  0  0  0  0  0
   -1.5590    1.4800   -1.2750 H   0  0  0  0  0  0  0  0  0  0  0  0
    0.1500   -1.7270   -1.4860 H   0  0  0  0  0  0  0  0  0  0  0  0
    2.0500   -3.5170   -0.2550 H   0  0  0  0  0  0  0  0  0  0  0  0
    5.4340   -3.5920   -0.3690 H   0  0  0  0  0  0  0  0  0  0  0  0
    5.6360   -2.8920    1.2460 H   0  0  0  0  0  0  0  0  0  0  0  0
    4.4510   -4.1800    0.9790 H   0  0  0  0  0  0  0  0  0  0  0  0
    4.8260   -0.2290    0.3970 H   0  0  0  0  0  0  0  0  0  0  0  0
   -0.3890    1.6660    1.0220 H   0  0  0  0  0  0  0  0  0  0  0  0
    1.1280    0.7760    1.2180 H   0  0  0  0  0  0  0  0  0  0  0  0
    2.0380    3.8670   -1.8640 H   0  0  0  0  0  0  0  0  0  0  0  0
    2.0260    5.1470   -0.6330 H   0  0  0  0  0  0  0  0  0  0  0  0
    3.3950    4.0200   -0.7360 H   0  0  0  0  0  0  0  0  0  0  0  0
  1 22  1  0
  1 21  1  0
  1  2  2  0
  2  3  1  0
  2 23  1  0
  3  5  1  0
  3  4  2  0
  4 24  1  0
  4 25  1  0
  5 26  1  0
  5 27  1  0
  5  6  1  0
  6  7  1  0
  6 29  1  0
  6 28  1  0
  7 30  1  0
  7 31  1  0
  7  8  1  0
  8  9  2  0
  8 16  1  0
  9 32  1  0
  9 10  1  0
 10 15  1  0
 10 11  2  0
 11 33  1  0
 11 12  1  0
 12 14  2  0
 12 13  1  0
 13 34  1  0
 13 36  1  0
 13 35  1  0
 14 15  1  0
 14 37  1  0
 16 17  1  0
 16 38  1  0
 16 39  1  0
 17 18  1  0
 18 19  1  0
 18 20  2  0
 19 40  1  0
 19 42  1  0
 19 41  1  0
M  END
>  <id>  (94) 
194

>  <scaffolds>  (94) 
['c1ccoc1']

>  <name>  (94) 
Algoafuran

>  <formula>  (94) 
C17H22O3

>  <SMILES>  (94) 
C=CC(=C)CCC/C(=C/c1cc(C)co1)COC(C)=O

>  <ChEMBL_id>  (94) 


>  <ZINC_id>  (94) 


>  <PubChem_id>  (94) 


>  <DrugBank_id>  (94) 


>  <CAS_no>  (94) 
369380-50-7

>  <references>  (94) 
[{'journal': {'name': 'Journal of Natural Products', 'id': 5}, 'title': 'Sequestered Chemistry of the Arminacean Nudibranch Leminda millecra in Algoa Bay, South Africa', 'year': 2001, 'start_page': 1183, 'volume': 64, 'issue': 9, 'doi': '10.1021/np010085x', 'isbn': '', 'despositor': {'code': 'TMM', 'first_name': 'Thommas', 'last_name': 'Musyoka', 'id': 22}, 'refauthors_set': [{'author': {'first_name': 'Kerry', 'initials': 'KL', 'last_name': 'McPhail', 'id': 483}, 'first_author': True, 'id': 639}, {'author': {'first_name': 'Michael', 'initials': 'MT', 'last_name': 'Davies-Coleman', 'id': 449}, 'first_author': False, 'id': 701}, {'author': {'first_name': '', 'initials': 'JA', 'last_name': 'Starmer', 'id': 530}, 'first_author': False, 'id': 702}], 'id': 246}]

>  <classifications>  (94) 
[{'classification': 'Sesquiterpene', 'id': 828}, {'classification': 'Terpenoid', 'id': 839}, {'classification': 'Fatty Acyls (Classyfire)', 'id': 957}]

>  <molecular_mass>  (94) 
274.35

$$$$
SANC00195_minRM1.pdb
     RDKit          3D

 38 40  0  0  1  0  0  0  0  0999 V2000
   -0.5330   -0.5180    1.9230 H   0  0  0  0  0  0  0  0  0  0  0  0
    0.3790   -1.1480   -1.0490 H   0  0  0  0  0  0  0  0  0  0  0  0
   -1.9970   -2.8650    1.2280 C   0  0  0  0  0  0  0  0  0  0  0  0
    4.1900   -0.0140   -0.2790 C   0  0  0  0  0  0  0  0  0  0  0  0
    2.8710   -2.1090   -0.3290 C   0  0  0  0  0  0  0  0  0  0  0  0
   -1.9010    2.4030    1.0170 C   0  0  0  0  0  0  0  0  0  0  0  0
   -2.3750    0.7650   -2.0080 O   0  0  0  0  0  0  0  0  0  0  0  0
   -2.4900   -1.1900   -0.5990 C   0  0  0  0  0  0  0  0  0  0  0  0
    0.5980    2.1890    0.9480 C   0  0  0  0  0  0  0  0  0  0  0  0
    1.7730    1.5680    0.1990 C   0  0  0  0  0  0  0  0  0  0  0  0
   -1.7990   -1.6190    0.4700 C   0  0  0  0  0  0  0  0  0  0  0  0
   -1.9730    0.1200   -1.0660 C   0  0  0  0  0  0  0  0  0  0  0  0
    2.8190   -0.6050   -0.5930 C   0  0  1  0  0  0  0  0  0  0  0  0
   -0.7050    1.9480    0.1890 C   0  0  1  0  0  0  0  0  0  0  0  0
    1.7100    0.0410    0.2620 C   0  0  2  0  0  0  0  0  0  0  0  0
   -0.7350   -0.6500    0.8550 C   0  0  1  0  0  0  0  0  0  0  0  0
    0.3490   -0.4410   -0.1980 C   0  0  1  0  0  0  0  0  0  0  0  0
   -0.8420    0.4990   -0.1450 C   0  0  1  0  0  0  0  0  0  0  0  0
   -2.7990   -3.4940    0.8130 H   0  0  0  0  0  0  0  0  0  0  0  0
   -1.0810   -3.4740    1.2430 H   0  0  0  0  0  0  0  0  0  0  0  0
   -2.2600   -2.6560    2.2770 H   0  0  0  0  0  0  0  0  0  0  0  0
    5.0030   -0.6010   -0.7340 H   0  0  0  0  0  0  0  0  0  0  0  0
    4.3130    1.0070   -0.6680 H   0  0  0  0  0  0  0  0  0  0  0  0
    4.3970    0.0200    0.8000 H   0  0  0  0  0  0  0  0  0  0  0  0
    3.1580   -2.3400    0.7070 H   0  0  0  0  0  0  0  0  0  0  0  0
    1.9120   -2.6160   -0.5070 H   0  0  0  0  0  0  0  0  0  0  0  0
    3.6030   -2.6130   -0.9770 H   0  0  0  0  0  0  0  0  0  0  0  0
   -1.8220    3.4620    1.3010 H   0  0  0  0  0  0  0  0  0  0  0  0
   -2.8460    2.2930    0.4670 H   0  0  0  0  0  0  0  0  0  0  0  0
   -2.0070    1.8290    1.9490 H   0  0  0  0  0  0  0  0  0  0  0  0
   -3.3200   -1.6830   -1.0940 H   0  0  0  0  0  0  0  0  0  0  0  0
    0.5390    1.7900    1.9820 H   0  0  0  0  0  0  0  0  0  0  0  0
    0.7590    3.2790    1.0830 H   0  0  0  0  0  0  0  0  0  0  0  0
    1.7970    1.9170   -0.8540 H   0  0  0  0  0  0  0  0  0  0  0  0
    2.7190    1.9410    0.6460 H   0  0  0  0  0  0  0  0  0  0  0  0
    2.5970   -0.4280   -1.6770 H   0  0  0  0  0  0  0  0  0  0  0  0
   -0.6820    2.5230   -0.7740 H   0  0  0  0  0  0  0  0  0  0  0  0
    1.8640   -0.2760    1.3280 H   0  0  0  0  0  0  0  0  0  0  0  0
  3 11  1  0
  3 19  1  0
  3 20  1  0
  3 21  1  0
  4 22  1  0
  4 23  1  0
  4 13  1  0
  4 24  1  0
  5 27  1  0
  5 13  1  0
  5 26  1  0
  5 25  1  0
  6 14  1  0
  6 29  1  0
  6 28  1  0
  6 30  1  0
  7 12  2  0
  8 31  1  0
  8 12  1  0
  8 11  2  0
  9 14  1  0
  9 10  1  0
  9 33  1  0
  9 32  1  0
 10 34  1  0
 10 15  1  0
 10 35  1  0
 11 16  1  0
 13 36  1  6
 13 15  1  0
 14 37  1  6
 14 18  1  0
 15 17  1  0
 15 38  1  1
 16  1  1  1
 16 17  1  0
 16 18  1  0
 17  2  1  6
 17 18  1  0
 18 12  1  6
M  END
>  <id>  (95) 
195

>  <scaffolds>  (95) 
['C1=CCCCC1', 'C1=CCC2CCCCC2C1', 'C1CCCCC1', 'O=C1C=CCCC1']

>  <name>  (95) 
Cubebenone

>  <formula>  (95) 
C15H22O

>  <SMILES>  (95) 
CC(C)[C@H]2CC[C@H](C)C13C(=O)\C=C(\C)[C@H]1[C@H]23

>  <ChEMBL_id>  (95) 


>  <ZINC_id>  (95) 


>  <PubChem_id>  (95) 


>  <DrugBank_id>  (95) 


>  <CAS_no>  (95) 
369380-51-8

>  <references>  (95) 
[{'journal': {'name': 'Journal of Natural Products', 'id': 5}, 'title': 'Sequestered Chemistry of the Arminacean Nudibranch Leminda millecra in Algoa Bay, South Africa', 'year': 2001, 'start_page': 1183, 'volume': 64, 'issue': 9, 'doi': '10.1021/np010085x', 'isbn': '', 'despositor': {'code': 'TMM', 'first_name': 'Thommas', 'last_name': 'Musyoka', 'id': 22}, 'refauthors_set': [{'author': {'first_name': 'Kerry', 'initials': 'KL', 'last_name': 'McPhail', 'id': 483}, 'first_author': True, 'id': 639}, {'author': {'first_name': 'Michael', 'initials': 'MT', 'last_name': 'Davies-Coleman', 'id': 449}, 'first_author': False, 'id': 701}, {'author': {'first_name': '', 'initials': 'JA', 'last_name': 'Starmer', 'id': 530}, 'first_author': False, 'id': 702}], 'id': 246}]

>  <classifications>  (95) 
[{'classification': 'Sesquiterpene', 'id': 828}, {'classification': 'Terpenoid', 'id': 839}, {'classification': 'Phenol lipids (Classyfire)', 'id': 951}]

>  <molecular_mass>  (95) 
218.33

$$$$
SANC00196_minRM1.pdb
     RDKit          3D

 51 52  0  0  1  0  0  0  0  0999 V2000
    2.6090    0.8000    1.4340 C   0  0  0  0  0  0  0  0  0  0  0  0
    2.5880    1.1000   -0.0620 C   0  0  1  0  0  0  0  0  0  0  0  0
    2.6450    2.6290   -0.1840 C   0  0  0  0  0  0  0  0  0  0  0  0
    3.8370    0.5340   -0.7690 C   0  0  1  0  0  0  0  0  0  0  0  0
    4.5380    1.3020   -1.1500 H   0  0  0  0  0  0  0  0  0  0  0  0
    5.0940   -0.4780    0.4820 Br  0  0  0  0  0  0  0  0  0  0  0  0
    3.4100   -0.4800   -1.8050 C   0  0  0  0  0  0  0  0  0  0  0  0
    1.9880   -0.8700   -1.3880 C   0  0  1  0  0  0  0  0  0  0  0  0
    1.3970   -1.2930   -2.2390 H   0  0  0  0  0  0  0  0  0  0  0  0
    1.9730   -1.8960   -0.4450 O   0  0  0  0  0  0  0  0  0  0  0  0
    1.3850    0.4600   -0.8290 C   0  0  2  0  0  0  0  0  0  0  0  0
    1.0420    1.2890   -2.0710 C   0  0  0  0  0  0  0  0  0  0  0  0
    0.0870    0.1570   -0.0160 C   0  0  2  0  0  0  0  0  0  0  0  0
    0.3400   -0.7500    1.0100 O   0  0  0  0  0  0  0  0  0  0  0  0
   -1.0100   -0.4330   -0.9380 C   0  0  0  0  0  0  0  0  0  0  0  0
   -2.2230   -0.8200   -0.1220 C   0  0  2  0  0  0  0  0  0  0  0  0
   -2.0470   -1.6880    0.5480 H   0  0  0  0  0  0  0  0  0  0  0  0
   -3.5720   -1.5680   -1.4370 Br  0  0  0  0  0  0  0  0  0  0  0  0
   -2.8200    0.3450    0.6220 C   0  0  1  0  0  0  0  0  0  0  0  0
   -3.6450    1.3000   -0.2000 C   0  0  0  0  0  0  0  0  0  0  0  0
   -4.0440   -0.4150    1.8270 Cl  0  0  0  0  0  0  0  0  0  0  0  0
   -1.7810    0.9860    1.5210 C   0  0  0  0  0  0  0  0  0  0  0  0
   -0.5140    1.3790    0.7480 C   0  0  2  0  0  0  0  0  0  0  0  0
    0.2510    1.7780    1.4740 H   0  0  0  0  0  0  0  0  0  0  0  0
   -0.8710    2.3330   -0.2280 O   0  0  0  0  0  0  0  0  0  0  0  0
   -1.0560    3.6240    0.1550 C   0  0  0  0  0  0  0  0  0  0  0  0
   -1.4660    4.4840   -0.9970 C   0  0  0  0  0  0  0  0  0  0  0  0
   -0.8740    3.9700    1.3070 O   0  0  0  0  0  0  0  0  0  0  0  0
    2.6130   -0.2680    1.6850 H   0  0  0  0  0  0  0  0  0  0  0  0
    3.5000    1.2220    1.9250 H   0  0  0  0  0  0  0  0  0  0  0  0
    1.7470    1.2410    1.9610 H   0  0  0  0  0  0  0  0  0  0  0  0
    3.4470    3.0580    0.4380 H   0  0  0  0  0  0  0  0  0  0  0  0
    2.8500    2.9920   -1.2020 H   0  0  0  0  0  0  0  0  0  0  0  0
    1.7150    3.1130    0.1450 H   0  0  0  0  0  0  0  0  0  0  0  0
    3.4260   -0.0460   -2.8280 H   0  0  0  0  0  0  0  0  0  0  0  0
    4.0920   -1.3510   -1.8900 H   0  0  0  0  0  0  0  0  0  0  0  0
    2.7620   -1.8400    0.1140 H   0  0  0  0  0  0  0  0  0  0  0  0
    0.2460    0.8310   -2.6810 H   0  0  0  0  0  0  0  0  0  0  0  0
    0.6860    2.3050   -1.8560 H   0  0  0  0  0  0  0  0  0  0  0  0
    1.8980    1.4220   -2.7510 H   0  0  0  0  0  0  0  0  0  0  0  0
    0.6280   -1.5980    0.6210 H   0  0  0  0  0  0  0  0  0  0  0  0
   -1.2770    0.2860   -1.7420 H   0  0  0  0  0  0  0  0  0  0  0  0
   -0.6440   -1.3290   -1.4820 H   0  0  0  0  0  0  0  0  0  0  0  0
   -4.5830    0.8370   -0.5470 H   0  0  0  0  0  0  0  0  0  0  0  0
   -3.9390    2.1930    0.3720 H   0  0  0  0  0  0  0  0  0  0  0  0
   -3.1160    1.6500   -1.0990 H   0  0  0  0  0  0  0  0  0  0  0  0
   -2.2090    1.8650    2.0500 H   0  0  0  0  0  0  0  0  0  0  0  0
   -1.5130    0.2900    2.3490 H   0  0  0  0  0  0  0  0  0  0  0  0
   -2.0080    3.9330   -1.7800 H   0  0  0  0  0  0  0  0  0  0  0  0
   -2.1150    5.3070   -0.6590 H   0  0  0  0  0  0  0  0  0  0  0  0
   -0.5790    4.9360   -1.4690 H   0  0  0  0  0  0  0  0  0  0  0  0
  2  1  1  1
  1 29  1  0
  1 30  1  0
  1 31  1  0
  2 11  1  0
  2  4  1  0
  2  3  1  0
  3 33  1  0
  3 34  1  0
  3 32  1  0
  4  7  1  0
  4  5  1  6
  4  6  1  0
  7 35  1  0
  7 36  1  0
  7  8  1  0
  8  9  1  6
  8 11  1  0
  8 10  1  0
 10 37  1  0
 11 12  1  6
 11 13  1  0
 12 40  1  0
 12 38  1  0
 12 39  1  0
 13 15  1  0
 13 23  1  0
 13 14  1  1
 14 41  1  0
 15 42  1  0
 15 43  1  0
 15 16  1  0
 16 18  1  0
 16 17  1  1
 16 19  1  0
 19 20  1  0
 19 22  1  0
 19 21  1  1
 20 46  1  0
 20 44  1  0
 20 45  1  0
 22 23  1  0
 22 47  1  0
 22 48  1  0
 23 25  1  0
 23 24  1  1
 25 26  1  0
 26 27  1  0
 26 28  2  0
 27 49  1  0
 27 51  1  0
 27 50  1  0
M  END
>  <id>  (96) 
196

>  <scaffolds>  (96) 
['C1CCC(C2CCCC2)CC1', 'C1CCCCC1']

>  <name>  (96) 
Algoane

>  <formula>  (96) 
C17H27Br2ClO4

>  <SMILES>  (96) 
CC2(C)[C@@H](Br)C[C@@H](O)[C@@]2(C)[C@]1(O)C[C@H](Br)[C@@](C)(Cl)C[C@@H]1OC(C)=O

>  <ChEMBL_id>  (96) 


>  <ZINC_id>  (96) 


>  <PubChem_id>  (96) 
 10648778

>  <DrugBank_id>  (96) 


>  <CAS_no>  (96) 
251455-23-9

>  <references>  (96) 
[{'journal': {'name': 'Journal of Natural Products', 'id': 5}, 'title': 'Absolute stereochemistry of ibhayinol from a South African sea hare', 'year': 2002, 'start_page': 580, 'volume': 65, 'issue': 4, 'doi': '10.1021/np010403s', 'isbn': '', 'despositor': {'code': 'TMM', 'first_name': 'Thommas', 'last_name': 'Musyoka', 'id': 22}, 'refauthors_set': [{'author': {'first_name': '', 'initials': 'RCB', 'last_name': 'Copley', 'id': 485}, 'first_author': True, 'id': 641}, {'author': {'first_name': 'Michael', 'initials': 'MT', 'last_name': 'Davies-Coleman', 'id': 449}, 'first_author': False, 'id': 704}, {'author': {'first_name': '', 'initials': 'DR', 'last_name': 'Edmonds', 'id': 531}, 'first_author': False, 'id': 705}, {'author': {'first_name': 'Kerry', 'initials': 'KL', 'last_name': 'McPhail', 'id': 483}, 'first_author': False, 'id': 706}, {'author': {'first_name': 'John', 'initials': 'DJ', 'last_name': 'Faulkner', 'id': 529}, 'first_author': False, 'id': 707}], 'id': 249}, {'journal': {'name': 'Journal of Natural Products', 'id': 5}, 'title': 'New Halogenated Sesquiterpenes from South African Specimens of the Circumtropical Sea Hare Aplysia dactylomela', 'year': 1999, 'start_page': 1618, 'volume': 62, 'issue': None, 'doi': '10.1021/np990229w', 'isbn': '', 'despositor': {'code': 'NFA', 'first_name': 'Ngonidzashe', 'last_name': 'Faya', 'id': 21}, 'refauthors_set': [{'author': {'first_name': 'Kerry', 'initials': 'KL', 'last_name': 'McPhail', 'id': 483}, 'first_author': True, 'id': 1092}, {'author': {'first_name': 'Michael', 'initials': 'MT', 'last_name': 'Davies-Coleman', 'id': 449}, 'first_author': False, 'id': 1093}, {'author': {'first_name': '', 'initials': 'RCB', 'last_name': 'Copley', 'id': 485}, 'first_author': False, 'id': 1094}, {'author': {'first_name': 'Drake', 'initials': 'DS', 'last_name': 'Eggleston', 'id': 458}, 'first_author': False, 'id': 1095}], 'id': 364}]

>  <classifications>  (96) 
[{'classification': 'Sesquiterpene', 'id': 828}, {'classification': 'Terpenoid', 'id': 839}, {'classification': 'Phenol lipids (Classyfire)', 'id': 951}]

>  <molecular_mass>  (96) 
490.65

$$$$
SANC00197_minRM1.pdb
     RDKit          3D

 43 45  0  0  1  0  0  0  0  0999 V2000
    1.6310   -1.4530   -1.6190 H   0  0  0  0  0  0  0  0  0  0  0  0
    0.9630   -1.0280   -0.8180 C   0  0  1  0  0  0  0  0  0  0  0  0
   -0.3430   -1.8140   -0.8360 C   0  0  0  0  0  0  0  0  0  0  0  0
   -1.4440   -1.1640   -0.0240 C   0  0  2  0  0  0  0  0  0  0  0  0
   -1.3790   -1.4360    1.4530 C   0  0  0  0  0  0  0  0  0  0  0  0
   -3.0070   -2.0250   -0.6090 Cl  0  0  0  0  0  0  0  0  0  0  0  0
   -1.6110    0.2710   -0.4450 C   0  0  1  0  0  0  0  0  0  0  0  0
   -2.0090    0.3590   -1.4780 H   0  0  0  0  0  0  0  0  0  0  0  0
   -3.0790    1.1470    0.6330 Br  0  0  0  0  0  0  0  0  0  0  0  0
   -0.3550    1.0700   -0.1950 C   0  0  0  0  0  0  0  0  0  0  0  0
    0.8360    0.5110   -0.9890 C   0  0  2  0  0  0  0  0  0  0  0  0
    0.7590    0.9090   -2.3170 O   0  0  0  0  0  0  0  0  0  0  0  0
    2.2060    0.9710   -0.4150 C   0  0  2  0  0  0  0  0  0  0  0  0
    2.1780    2.3810    0.1410 C   0  0  0  0  0  0  0  0  0  0  0  0
    3.3420    0.8920   -1.4530 C   0  0  0  0  0  0  0  0  0  0  0  0
    4.5370    0.3590   -0.6690 C   0  0  0  0  0  0  0  0  0  0  0  0
    3.9320   -0.7130    0.2400 C   0  0  1  0  0  0  0  0  0  0  0  0
    3.7970   -1.6550   -0.3550 H   0  0  0  0  0  0  0  0  0  0  0  0
    4.8550   -1.0420    1.3980 C   0  0  0  0  0  0  0  0  0  0  0  0
    2.5340   -0.1560    0.6250 C   0  0  1  0  0  0  0  0  0  0  0  0
    2.4090    0.2580    2.0840 C   0  0  0  0  0  0  0  0  0  0  0  0
    1.5720   -1.1840    0.4410 O   0  0  0  0  0  0  0  0  0  0  0  0
   -0.6780   -1.9380   -1.8900 H   0  0  0  0  0  0  0  0  0  0  0  0
   -0.1660   -2.8550   -0.4840 H   0  0  0  0  0  0  0  0  0  0  0  0
   -0.4830   -0.9990    1.9200 H   0  0  0  0  0  0  0  0  0  0  0  0
   -2.2550   -1.0410    1.9900 H   0  0  0  0  0  0  0  0  0  0  0  0
   -1.3480   -2.5160    1.6650 H   0  0  0  0  0  0  0  0  0  0  0  0
   -0.5220    2.1370   -0.4590 H   0  0  0  0  0  0  0  0  0  0  0  0
   -0.1320    1.0780    0.8930 H   0  0  0  0  0  0  0  0  0  0  0  0
   -0.0010    0.4680   -2.7100 H   0  0  0  0  0  0  0  0  0  0  0  0
    1.5130    2.5300    1.0020 H   0  0  0  0  0  0  0  0  0  0  0  0
    3.1750    2.7080    0.4770 H   0  0  0  0  0  0  0  0  0  0  0  0
    1.8510    3.1010   -0.6260 H   0  0  0  0  0  0  0  0  0  0  0  0
    3.1100    0.2180   -2.3020 H   0  0  0  0  0  0  0  0  0  0  0  0
    3.5470    1.8640   -1.9400 H   0  0  0  0  0  0  0  0  0  0  0  0
    5.3320   -0.0430   -1.3250 H   0  0  0  0  0  0  0  0  0  0  0  0
    5.0340    1.1620   -0.0880 H   0  0  0  0  0  0  0  0  0  0  0  0
    5.0930   -0.1780    2.0340 H   0  0  0  0  0  0  0  0  0  0  0  0
    4.4410   -1.8230    2.0510 H   0  0  0  0  0  0  0  0  0  0  0  0
    5.8220   -1.4230    1.0330 H   0  0  0  0  0  0  0  0  0  0  0  0
    3.1260    1.0460    2.3510 H   0  0  0  0  0  0  0  0  0  0  0  0
    1.4060    0.6340    2.3340 H   0  0  0  0  0  0  0  0  0  0  0  0
    2.5790   -0.5870    2.7690 H   0  0  0  0  0  0  0  0  0  0  0  0
  2  1  1  6
  2 11  1  0
  2  3  1  0
  2 22  1  0
  3 23  1  0
  3 24  1  0
  3  4  1  0
  4  6  1  6
  4  7  1  0
  4  5  1  0
  5 27  1  0
  5 25  1  0
  5 26  1  0
  7  8  1  6
  7 10  1  0
  7  9  1  0
 10 11  1  0
 10 28  1  0
 10 29  1  0
 11 12  1  6
 11 13  1  0
 12 30  1  0
 13 15  1  0
 13 14  1  1
 13 20  1  0
 14 33  1  0
 14 32  1  0
 14 31  1  0
 15 34  1  0
 15 35  1  0
 15 16  1  0
 16 36  1  0
 16 37  1  0
 16 17  1  0
 17 18  1  6
 17 20  1  0
 17 19  1  0
 19 40  1  0
 19 38  1  0
 19 39  1  0
 20 22  1  0
 20 21  1  1
 21 42  1  0
 21 41  1  0
 21 43  1  0
M  END
>  <id>  (97) 
197

>  <scaffolds>  (97) 
['C1CCC(C2CCCC2)CC1', 'C1CCCCC1', 'C1CCC2C(C1)OC1CCCC12']

>  <name>  (97) 
Ibhayinol

>  <formula>  (97) 
C15H24BrClO2

>  <SMILES>  (97) 
[H][C@]13C[C@](C)(Cl)[C@@H](Br)C[C@@]1(O)[C@]2(C)CC[C@@H](C)[C@]2(C)O3

>  <ChEMBL_id>  (97) 


>  <ZINC_id>  (97) 


>  <PubChem_id>  (97) 


>  <DrugBank_id>  (97) 


>  <CAS_no>  (97) 
251455-24-0

>  <references>  (97) 
[{'journal': {'name': 'Journal of Natural Products', 'id': 5}, 'title': 'Absolute stereochemistry of ibhayinol from a South African sea hare', 'year': 2002, 'start_page': 580, 'volume': 65, 'issue': 4, 'doi': '10.1021/np010403s', 'isbn': '', 'despositor': {'code': 'TMM', 'first_name': 'Thommas', 'last_name': 'Musyoka', 'id': 22}, 'refauthors_set': [{'author': {'first_name': '', 'initials': 'RCB', 'last_name': 'Copley', 'id': 485}, 'first_author': True, 'id': 641}, {'author': {'first_name': 'Michael', 'initials': 'MT', 'last_name': 'Davies-Coleman', 'id': 449}, 'first_author': False, 'id': 704}, {'author': {'first_name': '', 'initials': 'DR', 'last_name': 'Edmonds', 'id': 531}, 'first_author': False, 'id': 705}, {'author': {'first_name': 'Kerry', 'initials': 'KL', 'last_name': 'McPhail', 'id': 483}, 'first_author': False, 'id': 706}, {'author': {'first_name': 'John', 'initials': 'DJ', 'last_name': 'Faulkner', 'id': 529}, 'first_author': False, 'id': 707}], 'id': 249}, {'journal': {'name': 'Journal of Natural Products', 'id': 5}, 'title': 'New Halogenated Sesquiterpenes from South African Specimens of the Circumtropical Sea Hare Aplysia dactylomela', 'year': 1999, 'start_page': 1618, 'volume': 62, 'issue': None, 'doi': '10.1021/np990229w', 'isbn': '', 'despositor': {'code': 'NFA', 'first_name': 'Ngonidzashe', 'last_name': 'Faya', 'id': 21}, 'refauthors_set': [{'author': {'first_name': 'Kerry', 'initials': 'KL', 'last_name': 'McPhail', 'id': 483}, 'first_author': True, 'id': 1092}, {'author': {'first_name': 'Michael', 'initials': 'MT', 'last_name': 'Davies-Coleman', 'id': 449}, 'first_author': False, 'id': 1093}, {'author': {'first_name': '', 'initials': 'RCB', 'last_name': 'Copley', 'id': 485}, 'first_author': False, 'id': 1094}, {'author': {'first_name': 'Drake', 'initials': 'DS', 'last_name': 'Eggleston', 'id': 458}, 'first_author': False, 'id': 1095}], 'id': 364}]

>  <classifications>  (97) 
[{'classification': 'Sesquiterpene', 'id': 828}, {'classification': 'Terpenoid', 'id': 839}, {'classification': 'Tetrahydrofurans (Classyfire)', 'id': 958}]

>  <molecular_mass>  (97) 
351.71

$$$$
SANC00198_minRM1.pdb
     RDKit          3D

 45 46  0  0  1  0  0  0  0  0999 V2000
   -2.6600   -1.1730    1.0880 C   0  0  0  0  0  0  0  0  0  0  0  0
   -2.5720   -1.2070   -0.4340 C   0  0  1  0  0  0  0  0  0  0  0  0
   -2.6680   -2.6850   -0.8340 C   0  0  0  0  0  0  0  0  0  0  0  0
   -3.7430   -0.4620   -1.1060 C   0  0  1  0  0  0  0  0  0  0  0  0
   -4.3280   -1.0850   -1.8110 H   0  0  0  0  0  0  0  0  0  0  0  0
   -5.2180    0.0550    0.1980 Br  0  0  0  0  0  0  0  0  0  0  0  0
   -3.2390    0.8250   -1.7190 C   0  0  0  0  0  0  0  0  0  0  0  0
   -1.8100    0.9910   -1.1800 C   0  0  1  0  0  0  0  0  0  0  0  0
   -1.1660    1.5880   -1.8730 H   0  0  0  0  0  0  0  0  0  0  0  0
   -1.8010    1.7440   -0.0150 O   0  0  0  0  0  0  0  0  0  0  0  0
   -1.3100   -0.4680   -0.9850 C   0  0  2  0  0  0  0  0  0  0  0  0
   -0.9700   -1.0170   -2.3730 C   0  0  0  0  0  0  0  0  0  0  0  0
   -0.0100   -0.5130   -0.1220 C   0  0  2  0  0  0  0  0  0  0  0  0
   -0.2010    0.0540    1.1360 O   0  0  0  0  0  0  0  0  0  0  0  0
    1.1490    0.2110   -0.8530 C   0  0  0  0  0  0  0  0  0  0  0  0
    2.4280    0.0950   -0.0550 C   0  0  2  0  0  0  0  0  0  0  0  0
    2.4170    0.6790    0.8920 H   0  0  0  0  0  0  0  0  0  0  0  0
    3.8620    1.0400   -1.1240 Br  0  0  0  0  0  0  0  0  0  0  0  0
    2.8220   -1.3380    0.1860 C   0  0  1  0  0  0  0  0  0  0  0  0
    3.3570   -2.0930   -1.0010 C   0  0  0  0  0  0  0  0  0  0  0  0
    4.2450   -1.2690    1.3960 Cl  0  0  0  0  0  0  0  0  0  0  0  0
    1.7110   -2.0500    0.9340 C   0  0  0  0  0  0  0  0  0  0  0  0
    0.4060   -1.9710    0.1520 C   0  0  0  0  0  0  0  0  0  0  0  0
   -2.6460   -0.1530    1.5030 H   0  0  0  0  0  0  0  0  0  0  0  0
   -3.5820   -1.6410    1.4660 H   0  0  0  0  0  0  0  0  0  0  0  0
   -1.8330   -1.7330    1.5570 H   0  0  0  0  0  0  0  0  0  0  0  0
   -3.5630   -3.1580   -0.4000 H   0  0  0  0  0  0  0  0  0  0  0  0
   -2.7460   -2.8620   -1.9160 H   0  0  0  0  0  0  0  0  0  0  0  0
   -1.8110   -3.2760   -0.4840 H   0  0  0  0  0  0  0  0  0  0  0  0
   -3.2500    0.7800   -2.8280 H   0  0  0  0  0  0  0  0  0  0  0  0
   -3.8790    1.7030   -1.4930 H   0  0  0  0  0  0  0  0  0  0  0  0
   -2.4170    1.3460    0.6210 H   0  0  0  0  0  0  0  0  0  0  0  0
   -0.2390   -0.3910   -2.9110 H   0  0  0  0  0  0  0  0  0  0  0  0
   -0.5180   -2.0210   -2.3260 H   0  0  0  0  0  0  0  0  0  0  0  0
   -1.8400   -1.0920   -3.0410 H   0  0  0  0  0  0  0  0  0  0  0  0
   -0.0390    1.0040    1.0990 H   0  0  0  0  0  0  0  0  0  0  0  0
    1.2940   -0.1910   -1.8790 H   0  0  0  0  0  0  0  0  0  0  0  0
    0.9140    1.2850   -1.0220 H   0  0  0  0  0  0  0  0  0  0  0  0
    4.2860   -1.6460   -1.3920 H   0  0  0  0  0  0  0  0  0  0  0  0
    3.6040   -3.1340   -0.7430 H   0  0  0  0  0  0  0  0  0  0  0  0
    2.6430   -2.1300   -1.8350 H   0  0  0  0  0  0  0  0  0  0  0  0
    1.9880   -3.1070    1.1300 H   0  0  0  0  0  0  0  0  0  0  0  0
    1.5900   -1.6100    1.9500 H   0  0  0  0  0  0  0  0  0  0  0  0
   -0.3930   -2.4890    0.7310 H   0  0  0  0  0  0  0  0  0  0  0  0
    0.4880   -2.5280   -0.8070 H   0  0  0  0  0  0  0  0  0  0  0  0
  2  1  1  1
  1 25  1  0
  1 24  1  0
  1 26  1  0
  2  4  1  0
  2 11  1  0
  2  3  1  0
  3 28  1  0
  3 29  1  0
  3 27  1  0
  4  5  1  6
  4  7  1  0
  4  6  1  0
  7 30  1  0
  7 31  1  0
  7  8  1  0
  8  9  1  6
  8 11  1  0
  8 10  1  0
 10 32  1  0
 11 12  1  6
 11 13  1  0
 12 35  1  0
 12 33  1  0
 12 34  1  0
 13 15  1  0
 13 23  1  0
 13 14  1  1
 14 36  1  0
 15 37  1  0
 15 38  1  0
 15 16  1  0
 16 18  1  0
 16 19  1  0
 16 17  1  1
 19 20  1  0
 19 22  1  0
 19 21  1  1
 20 41  1  0
 20 39  1  0
 20 40  1  0
 22 23  1  0
 22 42  1  0
 22 43  1  0
 23 45  1  0
 23 44  1  0
M  END
>  <id>  (98) 
198

>  <scaffolds>  (98) 
['C1CCC(C2CCCC2)CC1', 'C1CCCCC1']

>  <name>  (98) 
1-Deacetoxyalgoane

>  <formula>  (98) 
C15H25Br2ClO2

>  <SMILES>  (98) 
CC2(C)[C@@H](Br)C[C@@H](O)[C@@]2(C)[C@]1(O)C[C@H](Br)[C@@](C)(Cl)CC1

>  <ChEMBL_id>  (98) 


>  <ZINC_id>  (98) 


>  <PubChem_id>  (98) 
 10550705

>  <DrugBank_id>  (98) 


>  <CAS_no>  (98) 
251450-53-0

>  <references>  (98) 
[{'journal': {'name': 'Journal of Natural Products', 'id': 5}, 'title': 'Absolute stereochemistry of ibhayinol from a South African sea hare', 'year': 2002, 'start_page': 580, 'volume': 65, 'issue': 4, 'doi': '10.1021/np010403s', 'isbn': '', 'despositor': {'code': 'TMM', 'first_name': 'Thommas', 'last_name': 'Musyoka', 'id': 22}, 'refauthors_set': [{'author': {'first_name': '', 'initials': 'RCB', 'last_name': 'Copley', 'id': 485}, 'first_author': True, 'id': 641}, {'author': {'first_name': 'Michael', 'initials': 'MT', 'last_name': 'Davies-Coleman', 'id': 449}, 'first_author': False, 'id': 704}, {'author': {'first_name': '', 'initials': 'DR', 'last_name': 'Edmonds', 'id': 531}, 'first_author': False, 'id': 705}, {'author': {'first_name': 'Kerry', 'initials': 'KL', 'last_name': 'McPhail', 'id': 483}, 'first_author': False, 'id': 706}, {'author': {'first_name': 'John', 'initials': 'DJ', 'last_name': 'Faulkner', 'id': 529}, 'first_author': False, 'id': 707}], 'id': 249}, {'journal': {'name': 'Journal of Natural Products', 'id': 5}, 'title': 'New Halogenated Sesquiterpenes from South African Specimens of the Circumtropical Sea Hare Aplysia dactylomela', 'year': 1999, 'start_page': 1618, 'volume': 62, 'issue': None, 'doi': '10.1021/np990229w', 'isbn': '', 'despositor': {'code': 'NFA', 'first_name': 'Ngonidzashe', 'last_name': 'Faya', 'id': 21}, 'refauthors_set': [{'author': {'first_name': 'Kerry', 'initials': 'KL', 'last_name': 'McPhail', 'id': 483}, 'first_author': True, 'id': 1092}, {'author': {'first_name': 'Michael', 'initials': 'MT', 'last_name': 'Davies-Coleman', 'id': 449}, 'first_author': False, 'id': 1093}, {'author': {'first_name': '', 'initials': 'RCB', 'last_name': 'Copley', 'id': 485}, 'first_author': False, 'id': 1094}, {'author': {'first_name': 'Drake', 'initials': 'DS', 'last_name': 'Eggleston', 'id': 458}, 'first_author': False, 'id': 1095}], 'id': 364}]

>  <classifications>  (98) 
[{'classification': 'Sesquiterpene', 'id': 828}, {'classification': 'Terpenoid', 'id': 839}, {'classification': 'Phenol lipids (Classyfire)', 'id': 951}]

>  <molecular_mass>  (98) 
432.62

$$$$
SANC00199_minRM1.pdb
     RDKit          3D

 44 45  0  0  1  0  0  0  0  0999 V2000
   -2.8170   -0.8730    1.1730 C   0  0  0  0  0  0  0  0  0  0  0  0
   -2.6480   -1.2020   -0.3070 C   0  0  1  0  0  0  0  0  0  0  0  0
   -2.6820   -2.7270   -0.4290 C   0  0  0  0  0  0  0  0  0  0  0  0
   -3.7810   -0.6190   -1.1610 C   0  0  1  0  0  0  0  0  0  0  0  0
   -4.1070   -1.2940   -1.9810 H   0  0  0  0  0  0  0  0  0  0  0  0
   -5.5420   -0.4510   -0.1580 Br  0  0  0  0  0  0  0  0  0  0  0  0
   -3.3660    0.7570   -1.6430 C   0  0  0  0  0  0  0  0  0  0  0  0
   -1.8960    0.9090   -1.2480 C   0  0  0  0  0  0  0  0  0  0  0  0
   -1.3910   -0.5140   -0.9360 C   0  0  2  0  0  0  0  0  0  0  0  0
   -1.0390   -1.1980   -2.2620 C   0  0  0  0  0  0  0  0  0  0  0  0
   -0.0970   -0.4770   -0.0640 C   0  0  2  0  0  0  0  0  0  0  0  0
   -0.3670    0.3270    1.0440 O   0  0  0  0  0  0  0  0  0  0  0  0
    1.0580    0.1960   -0.8470 C   0  0  0  0  0  0  0  0  0  0  0  0
    2.3520    0.1480   -0.0690 C   0  0  2  0  0  0  0  0  0  0  0  0
    2.3610    0.8090    0.8250 H   0  0  0  0  0  0  0  0  0  0  0  0
    3.7550    1.0020   -1.2420 Br  0  0  0  0  0  0  0  0  0  0  0  0
    2.7460   -1.2640    0.2670 C   0  0  1  0  0  0  0  0  0  0  0  0
    3.2370   -2.1080   -0.8790 C   0  0  0  0  0  0  0  0  0  0  0  0
    4.1990   -1.1250    1.4420 Cl  0  0  0  0  0  0  0  0  0  0  0  0
    1.6520   -1.9150    1.0940 C   0  0  0  0  0  0  0  0  0  0  0  0
    0.3310   -1.8990    0.3380 C   0  0  0  0  0  0  0  0  0  0  0  0
   -2.8370    0.2080    1.3770 H   0  0  0  0  0  0  0  0  0  0  0  0
   -3.7520   -1.2820    1.5910 H   0  0  0  0  0  0  0  0  0  0  0  0
   -2.0150   -1.3120    1.7870 H   0  0  0  0  0  0  0  0  0  0  0  0
   -3.6260   -3.1310   -0.0290 H   0  0  0  0  0  0  0  0  0  0  0  0
   -2.6190   -3.1030   -1.4600 H   0  0  0  0  0  0  0  0  0  0  0  0
   -1.8730   -3.2120    0.1410 H   0  0  0  0  0  0  0  0  0  0  0  0
   -3.5160    0.8560   -2.7390 H   0  0  0  0  0  0  0  0  0  0  0  0
   -3.9890    1.5660   -1.2170 H   0  0  0  0  0  0  0  0  0  0  0  0
   -1.3090    1.4090   -2.0460 H   0  0  0  0  0  0  0  0  0  0  0  0
   -1.8050    1.5920   -0.3800 H   0  0  0  0  0  0  0  0  0  0  0  0
   -0.2780   -0.6400   -2.8360 H   0  0  0  0  0  0  0  0  0  0  0  0
   -0.6140   -2.2050   -2.1250 H   0  0  0  0  0  0  0  0  0  0  0  0
   -1.8990   -1.2950   -2.9400 H   0  0  0  0  0  0  0  0  0  0  0  0
    0.2690    0.1320    1.7390 H   0  0  0  0  0  0  0  0  0  0  0  0
    1.1940   -0.2760   -1.8460 H   0  0  0  0  0  0  0  0  0  0  0  0
    0.8080    1.2550   -1.0710 H   0  0  0  0  0  0  0  0  0  0  0  0
    4.1110   -1.6660   -1.3840 H   0  0  0  0  0  0  0  0  0  0  0  0
    3.5540   -3.1070   -0.5420 H   0  0  0  0  0  0  0  0  0  0  0  0
    2.4640   -2.2560   -1.6470 H   0  0  0  0  0  0  0  0  0  0  0  0
    1.9340   -2.9550    1.3640 H   0  0  0  0  0  0  0  0  0  0  0  0
    1.5650   -1.4050    2.0790 H   0  0  0  0  0  0  0  0  0  0  0  0
   -0.4610   -2.3830    0.9560 H   0  0  0  0  0  0  0  0  0  0  0  0
    0.4010   -2.5370   -0.5720 H   0  0  0  0  0  0  0  0  0  0  0  0
  2  1  1  1
  1 22  1  0
  1 23  1  0
  1 24  1  0
  2  4  1  0
  2  9  1  0
  2  3  1  0
  3 26  1  0
  3 25  1  0
  3 27  1  0
  4  5  1  6
  4  7  1  0
  4  6  1  0
  7 28  1  0
  7  8  1  0
  7 29  1  0
  8 30  1  0
  8  9  1  0
  8 31  1  0
  9 10  1  6
  9 11  1  0
 10 34  1  0
 10 32  1  0
 10 33  1  0
 11 13  1  0
 11 21  1  0
 11 12  1  1
 12 35  1  0
 13 36  1  0
 13 37  1  0
 13 14  1  0
 14 16  1  0
 14 17  1  0
 14 15  1  1
 17 18  1  0
 17 20  1  0
 17 19  1  1
 18 40  1  0
 18 38  1  0
 18 39  1  0
 20 21  1  0
 20 41  1  0
 20 42  1  0
 21 44  1  0
 21 43  1  0
M  END
>  <id>  (99) 
199

>  <scaffolds>  (99) 
['C1CCC(C2CCCC2)CC1', 'C1CCCCC1']

>  <name>  (99) 
1-Deacetoxy-8-deoxyalgoane

>  <formula>  (99) 
C15H25Br2ClO

>  <SMILES>  (99) 
CC2(C)[C@@H](Br)CC[C@@]2(C)[C@]1(O)C[C@H](Br)[C@@](C)(Cl)CC1

>  <ChEMBL_id>  (99) 


>  <ZINC_id>  (99) 


>  <PubChem_id>  (99) 
 10598018

>  <DrugBank_id>  (99) 


>  <CAS_no>  (99) 
251450-54-1

>  <references>  (99) 
[{'journal': {'name': 'Journal of Natural Products', 'id': 5}, 'title': 'Absolute stereochemistry of ibhayinol from a South African sea hare', 'year': 2002, 'start_page': 580, 'volume': 65, 'issue': 4, 'doi': '10.1021/np010403s', 'isbn': '', 'despositor': {'code': 'TMM', 'first_name': 'Thommas', 'last_name': 'Musyoka', 'id': 22}, 'refauthors_set': [{'author': {'first_name': '', 'initials': 'RCB', 'last_name': 'Copley', 'id': 485}, 'first_author': True, 'id': 641}, {'author': {'first_name': 'Michael', 'initials': 'MT', 'last_name': 'Davies-Coleman', 'id': 449}, 'first_author': False, 'id': 704}, {'author': {'first_name': '', 'initials': 'DR', 'last_name': 'Edmonds', 'id': 531}, 'first_author': False, 'id': 705}, {'author': {'first_name': 'Kerry', 'initials': 'KL', 'last_name': 'McPhail', 'id': 483}, 'first_author': False, 'id': 706}, {'author': {'first_name': 'John', 'initials': 'DJ', 'last_name': 'Faulkner', 'id': 529}, 'first_author': False, 'id': 707}], 'id': 249}, {'journal': {'name': 'Journal of Natural Products', 'id': 5}, 'title': 'New Halogenated Sesquiterpenes from South African Specimens of the Circumtropical Sea Hare Aplysia dactylomela', 'year': 1999, 'start_page': 1618, 'volume': 62, 'issue': None, 'doi': '10.1021/np990229w', 'isbn': '', 'despositor': {'code': 'NFA', 'first_name': 'Ngonidzashe', 'last_name': 'Faya', 'id': 21}, 'refauthors_set': [{'author': {'first_name': 'Kerry', 'initials': 'KL', 'last_name': 'McPhail', 'id': 483}, 'first_author': True, 'id': 1092}, {'author': {'first_name': 'Michael', 'initials': 'MT', 'last_name': 'Davies-Coleman', 'id': 449}, 'first_author': False, 'id': 1093}, {'author': {'first_name': '', 'initials': 'RCB', 'last_name': 'Copley', 'id': 485}, 'first_author': False, 'id': 1094}, {'author': {'first_name': 'Drake', 'initials': 'DS', 'last_name': 'Eggleston', 'id': 458}, 'first_author': False, 'id': 1095}], 'id': 364}]

>  <classifications>  (99) 
[{'classification': 'Sesquiterpene', 'id': 828}, {'classification': 'Terpenoid', 'id': 839}, {'classification': 'Phenol lipids (Classyfire)', 'id': 951}]

>  <molecular_mass>  (99) 
416.62

$$$$
SANC00200_minRM1.pdb
     RDKit          3D

 53 54  0  0  1  0  0  0  0  0999 V2000
   -1.4910    1.3750    1.7070 H   0  0  0  0  0  0  0  0  0  0  0  0
   -2.0970    1.5370    0.7700 C   0  0  2  0  0  0  0  0  0  0  0  0
   -2.0980    3.0000    0.4610 C   0  0  0  0  0  0  0  0  0  0  0  0
   -1.0300    3.6850    0.0440 C   0  0  0  0  0  0  0  0  0  0  0  0
   -1.1800    5.1490   -0.1660 C   0  0  0  0  0  0  0  0  0  0  0  0
   -0.4470    5.7780   -0.9070 O   0  0  0  0  0  0  0  0  0  0  0  0
    0.2980    3.0830   -0.2650 C   0  0  0  0  0  0  0  0  0  0  0  0
    0.9170    2.3910    0.9460 C   0  0  0  0  0  0  0  0  0  0  0  0
    2.0830    1.5440    0.5630 C   0  0  0  0  0  0  0  0  0  0  0  0
    2.0310    0.4770   -0.2350 C   0  0  0  0  0  0  0  0  0  0  0  0
    3.2330   -0.3580   -0.5810 C   0  0  0  0  0  0  0  0  0  0  0  0
    4.3720    0.2000    0.0450 O   0  0  0  0  0  0  0  0  0  0  0  0
    5.5630   -0.4190   -0.1630 C   0  0  0  0  0  0  0  0  0  0  0  0
    6.6630    0.2410    0.6030 C   0  0  0  0  0  0  0  0  0  0  0  0
    5.6450   -1.3790   -0.9030 O   0  0  0  0  0  0  0  0  0  0  0  0
    0.7970    0.0070   -0.9410 C   0  0  0  0  0  0  0  0  0  0  0  0
   -0.4000   -0.2330    0.0050 C   0  0  2  0  0  0  0  0  0  0  0  0
   -0.1130   -0.0110    1.0720 H   0  0  0  0  0  0  0  0  0  0  0  0
   -0.8410   -1.5730   -0.1060 O   0  0  0  0  0  0  0  0  0  0  0  0
   -0.0770   -2.5490    0.4600 C   0  0  0  0  0  0  0  0  0  0  0  0
    0.9710   -2.2600    1.0140 O   0  0  0  0  0  0  0  0  0  0  0  0
   -0.6660   -3.8950    0.3360 C   0  0  0  0  0  0  0  0  0  0  0  0
   -0.1170   -4.8930    1.0300 C   0  0  0  0  0  0  0  0  0  0  0  0
   -1.8600   -4.0260   -0.5620 C   0  0  0  0  0  0  0  0  0  0  0  0
   -2.1600   -5.3890   -0.6810 O   0  0  0  0  0  0  0  0  0  0  0  0
   -1.6190    0.6380   -0.4090 C   0  0  1  0  0  0  0  0  0  0  0  0
   -1.3270    1.2790   -1.2820 H   0  0  0  0  0  0  0  0  0  0  0  0
   -2.8520   -0.1230   -0.7680 C   0  0  0  0  0  0  0  0  0  0  0  0
   -3.0380   -0.9480   -1.7870 C   0  0  0  0  0  0  0  0  0  0  0  0
   -3.8910    0.2290    0.2140 C   0  0  0  0  0  0  0  0  0  0  0  0
   -5.0320   -0.1530    0.3390 O   0  0  0  0  0  0  0  0  0  0  0  0
   -3.4190    1.1510    1.1090 O   0  0  0  0  0  0  0  0  0  0  0  0
   -3.0520    3.5090    0.6530 H   0  0  0  0  0  0  0  0  0  0  0  0
   -2.0060    5.6420    0.3690 H   0  0  0  0  0  0  0  0  0  0  0  0
    0.1730    2.3890   -1.1310 H   0  0  0  0  0  0  0  0  0  0  0  0
    1.0180    3.8350   -0.6560 H   0  0  0  0  0  0  0  0  0  0  0  0
    1.2230    3.1650    1.6850 H   0  0  0  0  0  0  0  0  0  0  0  0
    0.1880    1.7730    1.5190 H   0  0  0  0  0  0  0  0  0  0  0  0
    3.0270    1.8630    1.0220 H   0  0  0  0  0  0  0  0  0  0  0  0
    3.0850   -1.4090   -0.2350 H   0  0  0  0  0  0  0  0  0  0  0  0
    3.3760   -0.3960   -1.6860 H   0  0  0  0  0  0  0  0  0  0  0  0
    6.6390   -0.0760    1.6530 H   0  0  0  0  0  0  0  0  0  0  0  0
    7.6440   -0.0260    0.1970 H   0  0  0  0  0  0  0  0  0  0  0  0
    6.5920    1.3360    0.5960 H   0  0  0  0  0  0  0  0  0  0  0  0
    0.5380    0.7690   -1.7150 H   0  0  0  0  0  0  0  0  0  0  0  0
    0.9940   -0.9080   -1.5440 H   0  0  0  0  0  0  0  0  0  0  0  0
   -0.4820   -5.9180    1.0130 H   0  0  0  0  0  0  0  0  0  0  0  0
    0.7520   -4.7660    1.6740 H   0  0  0  0  0  0  0  0  0  0  0  0
   -2.7090   -3.4340   -0.1400 H   0  0  0  0  0  0  0  0  0  0  0  0
   -1.6310   -3.5860   -1.5620 H   0  0  0  0  0  0  0  0  0  0  0  0
   -3.0080   -5.4500   -1.1050 H   0  0  0  0  0  0  0  0  0  0  0  0
   -2.2580   -1.1870   -2.5000 H   0  0  0  0  0  0  0  0  0  0  0  0
   -3.9830   -1.4520   -1.9770 H   0  0  0  0  0  0  0  0  0  0  0  0
  2  1  1  1
  2 26  1  0
  2  3  1  0
  2 32  1  0
  3  4  2  0
  3 33  1  0
  4  7  1  0
  4  5  1  0
  5  6  2  0
  5 34  1  0
  7 35  1  0
  7 36  1  0
  7  8  1  0
  8  9  1  0
  8 38  1  0
  8 37  1  0
  9 10  2  0
  9 39  1  0
 10 16  1  0
 10 11  1  0
 11 41  1  0
 11 40  1  0
 11 12  1  0
 12 13  1  0
 13 15  2  0
 13 14  1  0
 14 43  1  0
 14 44  1  0
 14 42  1  0
 16 45  1  0
 16 46  1  0
 16 17  1  0
 17 26  1  0
 17 19  1  0
 17 18  1  1
 19 20  1  0
 20 22  1  0
 20 21  2  0
 22 24  1  0
 22 23  2  0
 23 47  1  0
 23 48  1  0
 24 50  1  0
 24 25  1  0
 24 49  1  0
 25 51  1  0
 26 27  1  6
 26 28  1  0
 28 29  2  0
 28 30  1  0
 29 52  1  0
 29 53  1  0
 30 31  2  0
 30 32  1  0
M  END
>  <id>  (100) 
200

>  <scaffolds>  (100) 
['C=C1C(=O)OC2C=CCCC=CCCC12', 'O=C1CCCO1', 'O=C1CC2CCC=CCCC=CC2O1']

>  <name>  (100) 
Vernangulide A

>  <formula>  (100) 
C21H24O8

>  <SMILES>  (100) 
[H][C@@]12C=C(C=O)CCC=C(COC(C)=O)C[C@H](OC(=O)C(=C)CO)[C@@]1([H])C(=C)C(=O)O2

>  <ChEMBL_id>  (100) 


>  <ZINC_id>  (100) 


>  <PubChem_id>  (100) 


>  <DrugBank_id>  (100) 


>  <CAS_no>  (100) 
1159580-30-9

>  <references>  (100) 
[{'journal': {'name': 'Phytochemistry', 'id': 10}, 'title': 'Antimalarial sesquiterpene lactones from Distephanus angulifolius', 'year': 2009, 'start_page': 601, 'volume': 70, 'issue': 5, 'doi': '10.1016/j.phytochem.2009.02.005', 'isbn': '', 'despositor': {'code': 'DLP', 'first_name': 'David', 'last_name': 'Penkler', 'id': 23}, 'refauthors_set': [{'author': {'first_name': 'Martin', 'initials': 'M', 'last_name': 'Pedersen', 'id': 486}, 'first_author': True, 'id': 642}, {'author': {'first_name': 'Jude', 'initials': 'J', 'last_name': 'Chukwujekwu', 'id': 487}, 'first_author': None, 'id': 643}, {'author': {'first_name': 'Carmen', 'initials': 'CA', 'last_name': 'Lategan', 'id': 488}, 'first_author': None, 'id': 644}, {'author': {'first_name': 'Johannes', 'initials': 'J', 'last_name': 'Van Staden', 'id': 489}, 'first_author': None, 'id': 645}, {'author': {'first_name': 'Peter', 'initials': 'PJ', 'last_name': 'Smith', 'id': 490}, 'first_author': None, 'id': 646}, {'author': {'first_name': 'Dan', 'initials': 'D', 'last_name': 'Staerk', 'id': 491}, 'first_author': None, 'id': 647}], 'id': 250}]

>  <classifications>  (100) 
[{'classification': 'Sesquiterpene', 'id': 828}, {'classification': 'Terpenoid', 'id': 839}, {'classification': 'Vernangulide', 'id': 845}, {'classification': 'Phenol lipids (Classyfire)', 'id': 951}]

>  <molecular_mass>  (100) 
404.41

$$$$
SANC00201_minRM1.pdb
     RDKit          3D

 53 54  0  0  1  0  0  0  0  0999 V2000
    1.2640    1.0250    1.3860 H   0  0  0  0  0  0  0  0  0  0  0  0
    1.1380    1.5050    0.3740 C   0  0  1  0  0  0  0  0  0  0  0  0
    1.5140    2.8650    0.5170 O   0  0  0  0  0  0  0  0  0  0  0  0
    0.3850    3.5570    0.9060 C   0  0  0  0  0  0  0  0  0  0  0  0
    0.5210    4.7030    1.2630 O   0  0  0  0  0  0  0  0  0  0  0  0
   -0.8220    2.7020    0.7730 C   0  0  0  0  0  0  0  0  0  0  0  0
   -2.0190    2.9800    1.2590 C   0  0  0  0  0  0  0  0  0  0  0  0
   -0.3540    1.5460   -0.0400 C   0  0  2  0  0  0  0  0  0  0  0  0
   -0.4840    1.8480   -1.1140 H   0  0  0  0  0  0  0  0  0  0  0  0
   -0.8930    0.1340    0.1590 C   0  0  1  0  0  0  0  0  0  0  0  0
   -0.8150   -0.2040    1.2240 H   0  0  0  0  0  0  0  0  0  0  0  0
   -2.2490    0.2050   -0.2450 O   0  0  0  0  0  0  0  0  0  0  0  0
   -3.0660   -0.8420    0.0500 C   0  0  0  0  0  0  0  0  0  0  0  0
   -2.6290   -1.8200    0.6320 O   0  0  0  0  0  0  0  0  0  0  0  0
   -4.4590   -0.6280   -0.3850 C   0  0  0  0  0  0  0  0  0  0  0  0
   -5.4070   -1.4250    0.1060 C   0  0  0  0  0  0  0  0  0  0  0  0
   -4.6940    0.4910   -1.3550 C   0  0  0  0  0  0  0  0  0  0  0  0
   -6.0320    0.4310   -1.7690 O   0  0  0  0  0  0  0  0  0  0  0  0
   -0.1150   -0.7770   -0.8120 C   0  0  0  0  0  0  0  0  0  0  0  0
    1.4130   -0.7280   -0.6250 C   0  0  2  0  0  0  0  0  0  0  0  0
    2.1210   -1.5010   -1.7000 C   0  0  0  0  0  0  0  0  0  0  0  0
    1.5900   -1.8680   -2.8590 C   0  0  0  0  0  0  0  0  0  0  0  0
    1.8040   -1.3430    0.7400 C   0  0  0  0  0  0  0  0  0  0  0  0
    1.3240   -2.6720    0.7170 O   0  0  0  0  0  0  0  0  0  0  0  0
    1.3410   -3.3690    1.8830 C   0  0  0  0  0  0  0  0  0  0  0  0
    0.7290   -4.7210    1.7200 C   0  0  0  0  0  0  0  0  0  0  0  0
    1.8250   -2.8800    2.8870 O   0  0  0  0  0  0  0  0  0  0  0  0
    1.9240    0.7420   -0.6870 C   0  0  2  0  0  0  0  0  0  0  0  0
    1.6820    1.1650   -1.6990 H   0  0  0  0  0  0  0  0  0  0  0  0
    3.4010    0.8280   -0.4940 C   0  0  0  0  0  0  0  0  0  0  0  0
    4.0060    1.1300    0.6520 C   0  0  0  0  0  0  0  0  0  0  0  0
    4.2400    0.6090   -1.7020 C   0  0  0  0  0  0  0  0  0  0  0  0
    3.8620    0.8960   -2.8210 O   0  0  0  0  0  0  0  0  0  0  0  0
   -2.2320    3.8860    1.8220 H   0  0  0  0  0  0  0  0  0  0  0  0
   -2.8770    2.3260    1.1300 H   0  0  0  0  0  0  0  0  0  0  0  0
   -6.4610   -1.3450   -0.1500 H   0  0  0  0  0  0  0  0  0  0  0  0
   -5.2050   -2.2310    0.8080 H   0  0  0  0  0  0  0  0  0  0  0  0
   -4.4560    1.4680   -0.8680 H   0  0  0  0  0  0  0  0  0  0  0  0
   -3.9930    0.3960   -2.2200 H   0  0  0  0  0  0  0  0  0  0  0  0
   -6.1570    1.1310   -2.4170 H   0  0  0  0  0  0  0  0  0  0  0  0
   -0.4720   -1.8240   -0.7270 H   0  0  0  0  0  0  0  0  0  0  0  0
   -0.3710   -0.4890   -1.8570 H   0  0  0  0  0  0  0  0  0  0  0  0
    3.1580   -1.7680   -1.4730 H   0  0  0  0  0  0  0  0  0  0  0  0
    2.1470   -2.4300   -3.6040 H   0  0  0  0  0  0  0  0  0  0  0  0
    0.5770   -1.6460   -3.1900 H   0  0  0  0  0  0  0  0  0  0  0  0
    2.9060   -1.3420    0.9010 H   0  0  0  0  0  0  0  0  0  0  0  0
    1.3800   -0.7580    1.5910 H   0  0  0  0  0  0  0  0  0  0  0  0
    1.3730   -5.3770    1.1200 H   0  0  0  0  0  0  0  0  0  0  0  0
    0.5710   -5.2020    2.6940 H   0  0  0  0  0  0  0  0  0  0  0  0
   -0.2490   -4.6710    1.2170 H   0  0  0  0  0  0  0  0  0  0  0  0
    3.5050    1.3400    1.5910 H   0  0  0  0  0  0  0  0  0  0  0  0
    5.0870    1.2120    0.7490 H   0  0  0  0  0  0  0  0  0  0  0  0
    5.2460    0.1850   -1.5170 H   0  0  0  0  0  0  0  0  0  0  0  0
  2  1  1  1
  2 28  1  0
  2  8  1  0
  2  3  1  0
  3  4  1  0
  4  6  1  0
  4  5  2  0
  6  8  1  0
  6  7  2  0
  7 35  1  0
  7 34  1  0
  8  9  1  6
  8 10  1  0
 10 19  1  0
 10 12  1  0
 10 11  1  1
 12 13  1  0
 13 15  1  0
 13 14  2  0
 15 17  1  0
 15 16  2  0
 16 36  1  0
 16 37  1  0
 17 39  1  0
 17 18  1  0
 17 38  1  0
 18 40  1  0
 19 42  1  0
 19 41  1  0
 19 20  1  0
 20 21  1  6
 20 28  1  0
 20 23  1  0
 21 22  2  0
 21 43  1  0
 22 44  1  0
 22 45  1  0
 23 24  1  0
 23 46  1  0
 23 47  1  0
 24 25  1  0
 25 26  1  0
 25 27  2  0
 26 48  1  0
 26 50  1  0
 26 49  1  0
 28 29  1  6
 28 30  1  0
 30 32  1  0
 30 31  2  0
 31 52  1  0
 31 51  1  0
 32 33  2  0
 32 53  1  0
M  END
>  <id>  (101) 
201

>  <scaffolds>  (101) 
['C1CCCCC1', 'O=C1CCCO1', 'C=C1C(=O)OC2CCCCC12']

>  <name>  (101) 
Vernangulide B

>  <formula>  (101) 
C21H24O8

>  <SMILES>  (101) 
[H][C@]12OC(=O)C(=C)[C@]1([H])[C@@H](OC(=O)C(=C)CO)C[C@](C=C)(COC(C)=O)[C@@H]2C(=C)C=O

>  <ChEMBL_id>  (101) 


>  <ZINC_id>  (101) 


>  <PubChem_id>  (101) 


>  <DrugBank_id>  (101) 


>  <CAS_no>  (101) 
119269-53-3

>  <references>  (101) 
[{'journal': {'name': 'Phytochemistry', 'id': 10}, 'title': 'Antimalarial sesquiterpene lactones from Distephanus angulifolius', 'year': 2009, 'start_page': 601, 'volume': 70, 'issue': 5, 'doi': '10.1016/j.phytochem.2009.02.005', 'isbn': '', 'despositor': {'code': 'DLP', 'first_name': 'David', 'last_name': 'Penkler', 'id': 23}, 'refauthors_set': [{'author': {'first_name': 'Martin', 'initials': 'M', 'last_name': 'Pedersen', 'id': 486}, 'first_author': True, 'id': 642}, {'author': {'first_name': 'Jude', 'initials': 'J', 'last_name': 'Chukwujekwu', 'id': 487}, 'first_author': None, 'id': 643}, {'author': {'first_name': 'Carmen', 'initials': 'CA', 'last_name': 'Lategan', 'id': 488}, 'first_author': None, 'id': 644}, {'author': {'first_name': 'Johannes', 'initials': 'J', 'last_name': 'Van Staden', 'id': 489}, 'first_author': None, 'id': 645}, {'author': {'first_name': 'Peter', 'initials': 'PJ', 'last_name': 'Smith', 'id': 490}, 'first_author': None, 'id': 646}, {'author': {'first_name': 'Dan', 'initials': 'D', 'last_name': 'Staerk', 'id': 491}, 'first_author': None, 'id': 647}], 'id': 250}]

>  <classifications>  (101) 
[{'classification': 'Sesquiterpene', 'id': 828}, {'classification': 'Terpenoid', 'id': 839}, {'classification': 'Vernangulide', 'id': 845}, {'classification': 'Phenol lipids (Classyfire)', 'id': 951}]

>  <molecular_mass>  (101) 
404.41

$$$$
SANC00202_minRM1.pdb
     RDKit          3D

 27 26  0  0  1  0  0  0  0  0999 V2000
    3.2500    1.9760    0.7910 C   0  0  0  0  0  0  0  0  0  0  0  0
    2.1860    2.2370    0.0730 C   0  0  0  0  0  0  0  0  0  0  0  0
    1.8170    3.6650   -0.2370 C   0  0  0  0  0  0  0  0  0  0  0  0
    1.3310    1.1080   -0.4430 C   0  0  1  0  0  0  0  0  0  0  0  0
    2.2520   -0.6030   -0.1420 Br  0  0  0  0  0  0  0  0  0  0  0  0
   -0.0090    1.1050    0.2950 C   0  0  0  0  0  0  0  0  0  0  0  0
   -0.9500    0.0930   -0.3630 C   0  0  1  0  0  0  0  0  0  0  0  0
   -0.2780   -1.7270   -0.0510 Br  0  0  0  0  0  0  0  0  0  0  0  0
   -2.3270    0.2290    0.2330 C   0  0  0  0  0  0  0  0  0  0  0  0
   -2.5800   -0.2040    1.6540 C   0  0  0  0  0  0  0  0  0  0  0  0
   -3.3240    0.7320   -0.4970 C   0  0  0  0  0  0  0  0  0  0  0  0
   -4.6620    0.8630    0.0810 C   0  0  0  0  0  0  0  0  0  0  0  0
   -5.5670    1.3220   -0.5840 O   0  0  0  0  0  0  0  0  0  0  0  0
    3.8630    2.7850    1.1620 H   0  0  0  0  0  0  0  0  0  0  0  0
    3.5120    0.9530    1.0170 H   0  0  0  0  0  0  0  0  0  0  0  0
    2.2970    3.9700   -1.1670 H   0  0  0  0  0  0  0  0  0  0  0  0
    0.7350    3.7460   -0.3420 H   0  0  0  0  0  0  0  0  0  0  0  0
    2.1530    4.3110    0.5740 H   0  0  0  0  0  0  0  0  0  0  0  0
    1.1570    1.2440   -1.5120 H   0  0  0  0  0  0  0  0  0  0  0  0
    0.1520    0.8270    1.3370 H   0  0  0  0  0  0  0  0  0  0  0  0
   -0.4520    2.0990    0.2480 H   0  0  0  0  0  0  0  0  0  0  0  0
   -0.9970    0.2850   -1.4340 H   0  0  0  0  0  0  0  0  0  0  0  0
   -2.4050    0.6360    2.3270 H   0  0  0  0  0  0  0  0  0  0  0  0
   -3.6120   -0.5410    1.7550 H   0  0  0  0  0  0  0  0  0  0  0  0
   -1.9050   -1.0200    1.9110 H   0  0  0  0  0  0  0  0  0  0  0  0
   -3.1440    1.0430   -1.5160 H   0  0  0  0  0  0  0  0  0  0  0  0
   -4.8420    0.5530    1.0990 H   0  0  0  0  0  0  0  0  0  0  0  0
  1  2  2  0
  1 15  1  0
  1 14  1  0
  2  4  1  0
  2  3  1  0
  3 16  1  0
  3 17  1  0
  3 18  1  0
  4 19  1  6
  4  5  1  0
  4  6  1  0
  6  7  1  0
  6 21  1  0
  6 20  1  0
  7 22  1  6
  7  8  1  0
  7  9  1  0
  9 11  2  0
  9 10  1  0
 10 24  1  0
 10 25  1  0
 10 23  1  0
 11 26  1  0
 11 12  1  0
 12 13  2  0
 12 27  1  0
M  END
>  <id>  (102) 
202

>  <scaffolds>  (102) 
[]

>  <name>  (102) 
(-)-4,6-Dibromo-3,7-dimethyl-2E,7-octadienal

>  <formula>  (102) 
C10H14Br2O

>  <SMILES>  (102) 
C=C(C)C(Br)CC(Br)/C(C)=C/C=O

>  <ChEMBL_id>  (102) 


>  <ZINC_id>  (102) 


>  <PubChem_id>  (102) 


>  <DrugBank_id>  (102) 


>  <CAS_no>  (102) 
935747-26-5

>  <references>  (102) 
[{'journal': {'name': 'Journal of Natural Products', 'id': 5}, 'title': 'Halogenated Monoterpene Aldehydes from the South African Marine Alga Plocamium corallorhiza', 'year': 2007, 'start_page': 596, 'volume': 70, 'issue': 4, 'doi': '10.1021/np060547c', 'isbn': '', 'despositor': {'code': 'DLP', 'first_name': 'David', 'last_name': 'Penkler', 'id': 23}, 'refauthors_set': [{'author': {'first_name': 'Maryssa', 'initials': 'MGA', 'last_name': 'Mann', 'id': 492}, 'first_author': True, 'id': 648}, {'author': {'first_name': 'Henry', 'initials': 'HB', 'last_name': 'Mkwananzi', 'id': 495}, 'first_author': None, 'id': 649}, {'author': {'first_name': 'Edith ', 'initials': 'EM', 'last_name': 'Antunes', 'id': 447}, 'first_author': False, 'id': 650}, {'author': {'first_name': 'Catherine', 'initials': 'CE', 'last_name': 'Whibley', 'id': 497}, 'first_author': None, 'id': 651}, {'author': {'first_name': 'Denver', 'initials': 'DT', 'last_name': 'Hendricks', 'id': 498}, 'first_author': False, 'id': 652}, {'author': {'first_name': 'John', 'initials': 'JJ', 'last_name': 'Bolton', 'id': 500}, 'first_author': False, 'id': 653}, {'author': {'first_name': 'Denzil', 'initials': 'DR', 'last_name': 'Beukes', 'id': 453}, 'first_author': False, 'id': 654}], 'id': 251}]

>  <classifications>  (102) 
[{'classification': 'Monoterpene', 'id': 795}, {'classification': 'Terpenoid', 'id': 839}, {'classification': 'Organooxygen compounds (Classyfire)', 'id': 954}]

>  <molecular_mass>  (102) 
310.02

$$$$
SANC00203_minRM1.pdb
     RDKit          3D

 25 24  0  0  0  0  0  0  0  0999 V2000
    2.6810    2.0210    0.2750 C   0  0  0  0  0  0  0  0  0  0  0  0
    2.5390    0.5550    0.4600 C   0  0  0  0  0  0  0  0  0  0  0  0
    1.3860   -0.1170    0.3480 C   0  0  0  0  0  0  0  0  0  0  0  0
    0.1300    0.5330    0.0240 C   0  0  0  0  0  0  0  0  0  0  0  0
   -1.0530    0.0190    0.3700 C   0  0  0  0  0  0  0  0  0  0  0  0
   -1.1230   -1.4560    1.2790 Cl  0  0  0  0  0  0  0  0  0  0  0  0
   -2.3580    0.5830    0.0660 C   0  0  0  0  0  0  0  0  0  0  0  0
   -2.4280    2.0690    0.0840 C   0  0  0  0  0  0  0  0  0  0  0  0
   -3.3960   -0.2140   -0.2170 C   0  0  0  0  0  0  0  0  0  0  0  0
   -4.7370    0.3150   -0.5350 C   0  0  0  0  0  0  0  0  0  0  0  0
   -5.6160   -0.4120   -0.9600 O   0  0  0  0  0  0  0  0  0  0  0  0
    3.7930   -0.1550    0.7950 C   0  0  0  0  0  0  0  0  0  0  0  0
    4.8450   -0.0640   -0.7410 Cl  0  0  0  0  0  0  0  0  0  0  0  0
    2.8340    2.5290    1.2400 H   0  0  0  0  0  0  0  0  0  0  0  0
    3.5490    2.2660   -0.3580 H   0  0  0  0  0  0  0  0  0  0  0  0
    1.8060    2.4900   -0.1990 H   0  0  0  0  0  0  0  0  0  0  0  0
    1.3420   -1.2050    0.4970 H   0  0  0  0  0  0  0  0  0  0  0  0
    0.1840    1.4730   -0.5430 H   0  0  0  0  0  0  0  0  0  0  0  0
   -2.0120    2.5030   -0.8390 H   0  0  0  0  0  0  0  0  0  0  0  0
   -3.4600    2.4510    0.1680 H   0  0  0  0  0  0  0  0  0  0  0  0
   -1.8680    2.4970    0.9290 H   0  0  0  0  0  0  0  0  0  0  0  0
   -3.2930   -1.3080   -0.2200 H   0  0  0  0  0  0  0  0  0  0  0  0
   -4.9040    1.3980   -0.3600 H   0  0  0  0  0  0  0  0  0  0  0  0
    4.3810    0.3240    1.5930 H   0  0  0  0  0  0  0  0  0  0  0  0
    3.6930   -1.2270    1.0260 H   0  0  0  0  0  0  0  0  0  0  0  0
  1 15  1  0
  1 16  1  0
  1  2  1  0
  1 14  1  0
  2  3  2  0
  2 12  1  0
  3  4  1  0
  3 17  1  0
  4 18  1  0
  4  5  2  0
  5  7  1  0
  5  6  1  0
  7  9  2  0
  7  8  1  0
  8 19  1  0
  8 20  1  0
  8 21  1  0
  9 10  1  0
  9 22  1  0
 10 11  2  0
 10 23  1  0
 12 13  1  0
 12 25  1  0
 12 24  1  0
M  END
>  <id>  (103) 
203

>  <scaffolds>  (103) 
[]

>  <name>  (103) 
2,4,6-Octatrienal, 4,8-dichloro-3,7-dimethyl-, (2E,4Z,6E)-

>  <formula>  (103) 
C10H12Cl2O

>  <SMILES>  (103) 
C/C(=C\C=C(Cl)\C(C)=C\C=O)CCl

>  <ChEMBL_id>  (103) 


>  <ZINC_id>  (103) 


>  <PubChem_id>  (103) 


>  <DrugBank_id>  (103) 


>  <CAS_no>  (103) 
935747-27-6

>  <references>  (103) 
[{'journal': {'name': 'Journal of Natural Products', 'id': 5}, 'title': 'Halogenated Monoterpene Aldehydes from the South African Marine Alga Plocamium corallorhiza', 'year': 2007, 'start_page': 596, 'volume': 70, 'issue': 4, 'doi': '10.1021/np060547c', 'isbn': '', 'despositor': {'code': 'DLP', 'first_name': 'David', 'last_name': 'Penkler', 'id': 23}, 'refauthors_set': [{'author': {'first_name': 'Maryssa', 'initials': 'MGA', 'last_name': 'Mann', 'id': 492}, 'first_author': True, 'id': 648}, {'author': {'first_name': 'Henry', 'initials': 'HB', 'last_name': 'Mkwananzi', 'id': 495}, 'first_author': None, 'id': 649}, {'author': {'first_name': 'Edith ', 'initials': 'EM', 'last_name': 'Antunes', 'id': 447}, 'first_author': False, 'id': 650}, {'author': {'first_name': 'Catherine', 'initials': 'CE', 'last_name': 'Whibley', 'id': 497}, 'first_author': None, 'id': 651}, {'author': {'first_name': 'Denver', 'initials': 'DT', 'last_name': 'Hendricks', 'id': 498}, 'first_author': False, 'id': 652}, {'author': {'first_name': 'John', 'initials': 'JJ', 'last_name': 'Bolton', 'id': 500}, 'first_author': False, 'id': 653}, {'author': {'first_name': 'Denzil', 'initials': 'DR', 'last_name': 'Beukes', 'id': 453}, 'first_author': False, 'id': 654}], 'id': 251}]

>  <classifications>  (103) 
[{'classification': 'Monoterpene', 'id': 795}, {'classification': 'Terpenoid', 'id': 839}, {'classification': 'Phenol lipids (Classyfire)', 'id': 951}]

>  <molecular_mass>  (103) 
219.11

$$$$
SANC00204_minRM1.pdb
     RDKit          3D

 27 26  0  0  1  0  0  0  0  0999 V2000
   -3.8800    1.7730    0.8180 C   0  0  0  0  0  0  0  0  0  0  0  0
   -3.7640    0.3960    0.2720 C   0  0  0  0  0  0  0  0  0  0  0  0
   -4.7050   -0.2070   -0.4630 C   0  0  0  0  0  0  0  0  0  0  0  0
   -5.9750    0.4510   -0.8210 C   0  0  0  0  0  0  0  0  0  0  0  0
   -6.8420   -0.1500   -1.4270 O   0  0  0  0  0  0  0  0  0  0  0  0
   -2.5310   -0.3190    0.6070 C   0  0  0  0  0  0  0  0  0  0  0  0
   -1.3310    0.2370    0.4490 C   0  0  0  0  0  0  0  0  0  0  0  0
   -0.0880   -0.4620    0.8380 C   0  0  1  0  0  0  0  0  0  0  0  0
   -0.2820   -2.2830    0.4600 Cl  0  0  0  0  0  0  0  0  0  0  0  0
    1.1380   -0.0570    0.0410 C   0  0  1  0  0  0  0  0  0  0  0  0
    0.9400   -0.1090   -1.4500 C   0  0  0  0  0  0  0  0  0  0  0  0
    1.3570    1.7280    0.5100 Cl  0  0  0  0  0  0  0  0  0  0  0  0
    2.3620   -0.7850    0.5270 C   0  0  0  0  0  0  0  0  0  0  0  0
    4.0000   -0.0980   -0.3970 Br  0  0  0  0  0  0  0  0  0  0  0  0
   -3.6610    1.8000    1.8950 H   0  0  0  0  0  0  0  0  0  0  0  0
   -3.1740    2.4640    0.3320 H   0  0  0  0  0  0  0  0  0  0  0  0
   -4.8820    2.2140    0.6910 H   0  0  0  0  0  0  0  0  0  0  0  0
   -4.5700   -1.2310   -0.8350 H   0  0  0  0  0  0  0  0  0  0  0  0
   -6.1000    1.5100   -0.5120 H   0  0  0  0  0  0  0  0  0  0  0  0
   -2.6560   -1.3430    0.9840 H   0  0  0  0  0  0  0  0  0  0  0  0
   -1.1970    1.2550    0.0640 H   0  0  0  0  0  0  0  0  0  0  0  0
    0.0760   -0.4170    1.9400 H   0  0  0  0  0  0  0  0  0  0  0  0
    0.0840    0.4930   -1.7890 H   0  0  0  0  0  0  0  0  0  0  0  0
    1.8170    0.2710   -1.9970 H   0  0  0  0  0  0  0  0  0  0  0  0
    0.7620   -1.1430   -1.7900 H   0  0  0  0  0  0  0  0  0  0  0  0
    2.5670   -0.6410    1.5990 H   0  0  0  0  0  0  0  0  0  0  0  0
    2.3340   -1.8640    0.3030 H   0  0  0  0  0  0  0  0  0  0  0  0
  1  2  1  0
  1 16  1  0
  1 17  1  0
  1 15  1  0
  2  3  2  0
  2  6  1  0
  3 18  1  0
  3  4  1  0
  4  5  2  0
  4 19  1  0
  6  7  2  0
  6 20  1  0
  7 21  1  0
  7  8  1  0
  8 10  1  0
  8  9  1  0
  8 22  1  1
 10 11  1  0
 10 12  1  1
 10 13  1  0
 11 24  1  0
 11 25  1  0
 11 23  1  0
 13 14  1  0
 13 27  1  0
 13 26  1  0
M  END
>  <id>  (104) 
204

>  <scaffolds>  (104) 
[]

>  <name>  (104) 
(-)-8-Bromo-6,7-dichloro-3,7-dimethyl-2E,4E-octadienal

>  <formula>  (104) 
C10H13BrCl2O

>  <SMILES>  (104) 
C/C(=C\C=O)/C=C/C(Cl)C(C)(Cl)CBr

>  <ChEMBL_id>  (104) 


>  <ZINC_id>  (104) 


>  <PubChem_id>  (104) 


>  <DrugBank_id>  (104) 


>  <CAS_no>  (104) 
935747-28-7

>  <references>  (104) 
[{'journal': {'name': 'Journal of Natural Products', 'id': 5}, 'title': 'Halogenated Monoterpene Aldehydes from the South African Marine Alga Plocamium corallorhiza', 'year': 2007, 'start_page': 596, 'volume': 70, 'issue': 4, 'doi': '10.1021/np060547c', 'isbn': '', 'despositor': {'code': 'DLP', 'first_name': 'David', 'last_name': 'Penkler', 'id': 23}, 'refauthors_set': [{'author': {'first_name': 'Maryssa', 'initials': 'MGA', 'last_name': 'Mann', 'id': 492}, 'first_author': True, 'id': 648}, {'author': {'first_name': 'Henry', 'initials': 'HB', 'last_name': 'Mkwananzi', 'id': 495}, 'first_author': None, 'id': 649}, {'author': {'first_name': 'Edith ', 'initials': 'EM', 'last_name': 'Antunes', 'id': 447}, 'first_author': False, 'id': 650}, {'author': {'first_name': 'Catherine', 'initials': 'CE', 'last_name': 'Whibley', 'id': 497}, 'first_author': None, 'id': 651}, {'author': {'first_name': 'Denver', 'initials': 'DT', 'last_name': 'Hendricks', 'id': 498}, 'first_author': False, 'id': 652}, {'author': {'first_name': 'John', 'initials': 'JJ', 'last_name': 'Bolton', 'id': 500}, 'first_author': False, 'id': 653}, {'author': {'first_name': 'Denzil', 'initials': 'DR', 'last_name': 'Beukes', 'id': 453}, 'first_author': False, 'id': 654}], 'id': 251}]

>  <classifications>  (104) 
[{'classification': 'Monoterpene', 'id': 795}, {'classification': 'Terpenoid', 'id': 839}, {'classification': 'Organooxygen compounds (Classyfire)', 'id': 954}]

>  <molecular_mass>  (104) 
300.02

$$$$
SANC00205_minRM1.pdb
     RDKit          3D

 27 26  0  0  1  0  0  0  0  0999 V2000
   -2.4830   -2.0150    1.5060 C   0  0  0  0  0  0  0  0  0  0  0  0
   -2.5900   -0.6490    0.9290 C   0  0  0  0  0  0  0  0  0  0  0  0
   -1.5530    0.1760    0.7620 C   0  0  0  0  0  0  0  0  0  0  0  0
   -0.1520   -0.1470    1.1530 C   0  0  0  0  0  0  0  0  0  0  0  0
    0.7670    0.0220   -0.0390 C   0  0  1  0  0  0  0  0  0  0  0  0
    0.9710    2.0190   -0.4020 Br  0  0  0  0  0  0  0  0  0  0  0  0
    2.1470   -0.4780    0.1850 C   0  0  0  0  0  0  0  0  0  0  0  0
    2.7940   -0.0960    1.4680 C   0  0  0  0  0  0  0  0  0  0  0  0
    2.7290   -1.2520   -0.7360 C   0  0  0  0  0  0  0  0  0  0  0  0
    4.0950   -1.7940   -0.5870 C   0  0  0  0  0  0  0  0  0  0  0  0
    4.3430   -2.9530   -0.8650 O   0  0  0  0  0  0  0  0  0  0  0  0
   -3.9480   -0.2340    0.5170 C   0  0  0  0  0  0  0  0  0  0  0  0
   -4.4780   -1.4750   -0.7750 Cl  0  0  0  0  0  0  0  0  0  0  0  0
   -2.0930   -1.9970    2.5360 H   0  0  0  0  0  0  0  0  0  0  0  0
   -3.4510   -2.5440    1.5460 H   0  0  0  0  0  0  0  0  0  0  0  0
   -1.8170   -2.6570    0.9060 H   0  0  0  0  0  0  0  0  0  0  0  0
   -1.6830    1.1760    0.3230 H   0  0  0  0  0  0  0  0  0  0  0  0
    0.1460    0.5090    2.0020 H   0  0  0  0  0  0  0  0  0  0  0  0
   -0.0330   -1.1790    1.5520 H   0  0  0  0  0  0  0  0  0  0  0  0
    0.3040   -0.3370   -0.9830 H   0  0  0  0  0  0  0  0  0  0  0  0
    2.5010   -0.7860    2.2780 H   0  0  0  0  0  0  0  0  0  0  0  0
    3.8940   -0.1050    1.4290 H   0  0  0  0  0  0  0  0  0  0  0  0
    2.5220    0.9240    1.7920 H   0  0  0  0  0  0  0  0  0  0  0  0
    2.2210   -1.5430   -1.6650 H   0  0  0  0  0  0  0  0  0  0  0  0
    4.8790   -1.0910   -0.2410 H   0  0  0  0  0  0  0  0  0  0  0  0
   -4.7010   -0.2980    1.3220 H   0  0  0  0  0  0  0  0  0  0  0  0
   -4.0260    0.7520    0.0300 H   0  0  0  0  0  0  0  0  0  0  0  0
  1 16  1  0
  1  2  1  0
  1 15  1  0
  1 14  1  0
  2 12  1  0
  2  3  2  0
  3 17  1  0
  3  4  1  0
  4  5  1  0
  4 19  1  0
  4 18  1  0
  5 20  1  6
  5  6  1  0
  5  7  1  0
  7  9  2  0
  7  8  1  0
  8 22  1  0
  8 23  1  0
  8 21  1  0
  9 24  1  0
  9 10  1  0
 10 11  2  0
 10 25  1  0
 12 13  1  0
 12 27  1  0
 12 26  1  0
M  END
>  <id>  (105) 
205

>  <scaffolds>  (105) 
[]

>  <name>  (105) 
(-)-4-Bromo-8-chloro-3,7-dimethyl-2E,6E-octadienal

>  <formula>  (105) 
C10H14BrClO

>  <SMILES>  (105) 
C/C(=C\CC(Br)/C(C)=C/C=O)CCl

>  <ChEMBL_id>  (105) 


>  <ZINC_id>  (105) 


>  <PubChem_id>  (105) 


>  <DrugBank_id>  (105) 


>  <CAS_no>  (105) 
935747-29-8

>  <references>  (105) 
[{'journal': {'name': 'Journal of Natural Products', 'id': 5}, 'title': 'Halogenated Monoterpene Aldehydes from the South African Marine Alga Plocamium corallorhiza', 'year': 2007, 'start_page': 596, 'volume': 70, 'issue': 4, 'doi': '10.1021/np060547c', 'isbn': '', 'despositor': {'code': 'DLP', 'first_name': 'David', 'last_name': 'Penkler', 'id': 23}, 'refauthors_set': [{'author': {'first_name': 'Maryssa', 'initials': 'MGA', 'last_name': 'Mann', 'id': 492}, 'first_author': True, 'id': 648}, {'author': {'first_name': 'Henry', 'initials': 'HB', 'last_name': 'Mkwananzi', 'id': 495}, 'first_author': None, 'id': 649}, {'author': {'first_name': 'Edith ', 'initials': 'EM', 'last_name': 'Antunes', 'id': 447}, 'first_author': False, 'id': 650}, {'author': {'first_name': 'Catherine', 'initials': 'CE', 'last_name': 'Whibley', 'id': 497}, 'first_author': None, 'id': 651}, {'author': {'first_name': 'Denver', 'initials': 'DT', 'last_name': 'Hendricks', 'id': 498}, 'first_author': False, 'id': 652}, {'author': {'first_name': 'John', 'initials': 'JJ', 'last_name': 'Bolton', 'id': 500}, 'first_author': False, 'id': 653}, {'author': {'first_name': 'Denzil', 'initials': 'DR', 'last_name': 'Beukes', 'id': 453}, 'first_author': False, 'id': 654}], 'id': 251}]

>  <classifications>  (105) 
[{'classification': 'Monoterpene', 'id': 795}, {'classification': 'Terpenoid', 'id': 839}, {'classification': 'Phenol lipids (Classyfire)', 'id': 951}]

>  <molecular_mass>  (105) 
265.57

$$$$
SANC00206_minRM1.pdb
     RDKit          3D

 28 27  0  0  1  0  0  0  0  0999 V2000
   -3.6240    2.0900   -0.8450 C   0  0  0  0  0  0  0  0  0  0  0  0
   -2.7380    2.4480    0.0800 C   0  0  0  0  0  0  0  0  0  0  0  0
   -2.6440    3.8350    0.6080 C   0  0  0  0  0  0  0  0  0  0  0  0
   -1.7690    1.4820    0.6530 C   0  0  1  0  0  0  0  0  0  0  0  0
   -2.8210   -0.1040    1.3530 Br  0  0  0  0  0  0  0  0  0  0  0  0
   -0.7870    0.9740   -0.3820 C   0  0  0  0  0  0  0  0  0  0  0  0
    0.1070   -0.1220    0.1620 C   0  0  1  0  0  0  0  0  0  0  0  0
   -0.6620   -1.9150   -0.3940 Br  0  0  0  0  0  0  0  0  0  0  0  0
    1.4720   -0.1040   -0.4180 C   0  0  0  0  0  0  0  0  0  0  0  0
    1.6010   -0.1150   -1.8970 C   0  0  0  0  0  0  0  0  0  0  0  0
    2.5420   -0.0830    0.3870 C   0  0  0  0  0  0  0  0  0  0  0  0
    3.9100   -0.0550   -0.1410 C   0  0  1  0  0  0  0  0  0  0  0  0
    4.2700    1.6730   -0.6470 Cl  0  0  0  0  0  0  0  0  0  0  0  0
    5.0750   -0.4340    1.1950 Cl  0  0  0  0  0  0  0  0  0  0  0  0
   -4.3390    2.7780   -1.2850 H   0  0  0  0  0  0  0  0  0  0  0  0
   -3.7260    1.0770   -1.2250 H   0  0  0  0  0  0  0  0  0  0  0  0
   -2.8610    3.8720    1.6870 H   0  0  0  0  0  0  0  0  0  0  0  0
   -1.6370    4.2570    0.4660 H   0  0  0  0  0  0  0  0  0  0  0  0
   -3.3480    4.5290    0.1260 H   0  0  0  0  0  0  0  0  0  0  0  0
   -1.2720    1.8510    1.5740 H   0  0  0  0  0  0  0  0  0  0  0  0
   -1.3220    0.6320   -1.2950 H   0  0  0  0  0  0  0  0  0  0  0  0
   -0.1710    1.8370   -0.7310 H   0  0  0  0  0  0  0  0  0  0  0  0
    0.0930   -0.1930    1.2710 H   0  0  0  0  0  0  0  0  0  0  0  0
    0.6430   -0.0440   -2.4320 H   0  0  0  0  0  0  0  0  0  0  0  0
    2.2260    0.7220   -2.2550 H   0  0  0  0  0  0  0  0  0  0  0  0
    2.0680   -1.0470   -2.2530 H   0  0  0  0  0  0  0  0  0  0  0  0
    2.4590   -0.0640    1.4810 H   0  0  0  0  0  0  0  0  0  0  0  0
    4.1510   -0.7110   -1.0000 H   0  0  0  0  0  0  0  0  0  0  0  0
  1 15  1  0
  1 16  1  0
  1  2  2  0
  2  3  1  0
  2  4  1  0
  3 19  1  0
  3 18  1  0
  3 17  1  0
  4  6  1  0
  4  5  1  0
  4 20  1  1
  6 21  1  0
  6 22  1  0
  6  7  1  0
  7  9  1  0
  7  8  1  0
  7 23  1  1
  9 10  1  0
  9 11  2  0
 10 24  1  0
 10 25  1  0
 10 26  1  0
 11 12  1  0
 11 27  1  0
 12 28  1  6
 12 13  1  0
 12 14  1  0
M  END
>  <id>  (106) 
206

>  <scaffolds>  (106) 
[]

>  <name>  (106) 
Plocoralide B

>  <formula>  (106) 
C10H14Br2Cl2

>  <SMILES>  (106) 
C=C(C)C(Br)CC(Br)/C(C)=C/C(Cl)Cl

>  <ChEMBL_id>  (106) 


>  <ZINC_id>  (106) 


>  <PubChem_id>  (106) 


>  <DrugBank_id>  (106) 


>  <CAS_no>  (106) 
861959-26-4

>  <references>  (106) 
[{'journal': {'name': 'Journal of Natural Products', 'id': 5}, 'title': 'Halogenated Monoterpene Aldehydes from the South African Marine Alga Plocamium corallorhiza', 'year': 2007, 'start_page': 596, 'volume': 70, 'issue': 4, 'doi': '10.1021/np060547c', 'isbn': '', 'despositor': {'code': 'DLP', 'first_name': 'David', 'last_name': 'Penkler', 'id': 23}, 'refauthors_set': [{'author': {'first_name': 'Maryssa', 'initials': 'MGA', 'last_name': 'Mann', 'id': 492}, 'first_author': True, 'id': 648}, {'author': {'first_name': 'Henry', 'initials': 'HB', 'last_name': 'Mkwananzi', 'id': 495}, 'first_author': None, 'id': 649}, {'author': {'first_name': 'Edith ', 'initials': 'EM', 'last_name': 'Antunes', 'id': 447}, 'first_author': False, 'id': 650}, {'author': {'first_name': 'Catherine', 'initials': 'CE', 'last_name': 'Whibley', 'id': 497}, 'first_author': None, 'id': 651}, {'author': {'first_name': 'Denver', 'initials': 'DT', 'last_name': 'Hendricks', 'id': 498}, 'first_author': False, 'id': 652}, {'author': {'first_name': 'John', 'initials': 'JJ', 'last_name': 'Bolton', 'id': 500}, 'first_author': False, 'id': 653}, {'author': {'first_name': 'Denzil', 'initials': 'DR', 'last_name': 'Beukes', 'id': 453}, 'first_author': False, 'id': 654}], 'id': 251}]

>  <classifications>  (106) 
[{'classification': 'Monoterpene', 'id': 795}, {'classification': 'Terpenoid', 'id': 839}, {'classification': 'Organochlorides (Classyfire)', 'id': 959}]

>  <molecular_mass>  (106) 
364.93

$$$$
SANC00207_minRM1.pdb
     RDKit          3D

 28 27  0  0  1  0  0  0  0  0999 V2000
   -3.9440   -1.2050   -1.7150 C   0  0  0  0  0  0  0  0  0  0  0  0
   -3.0720   -0.5530   -0.6730 C   0  0  1  0  0  0  0  0  0  0  0  0
   -3.4470   -1.4420    0.9220 Cl  0  0  0  0  0  0  0  0  0  0  0  0
   -1.6170   -0.7260   -0.9320 C   0  0  0  0  0  0  0  0  0  0  0  0
   -0.7180   -0.6410    0.0490 C   0  0  0  0  0  0  0  0  0  0  0  0
    0.7290   -0.7680   -0.2180 C   0  0  2  0  0  0  0  0  0  0  0  0
    1.0040   -0.6880   -1.2920 H   0  0  0  0  0  0  0  0  0  0  0  0
    1.2170   -2.6820    0.2380 Br  0  0  0  0  0  0  0  0  0  0  0  0
    1.5820    0.1310    0.6460 C   0  0  2  0  0  0  0  0  0  0  0  0
    1.4380   -0.0330    2.1360 C   0  0  0  0  0  0  0  0  0  0  0  0
    0.8410    1.8210    0.2540 Cl  0  0  0  0  0  0  0  0  0  0  0  0
    3.0050    0.1530    0.2250 C   0  0  0  0  0  0  0  0  0  0  0  0
    3.7070    1.2710    0.1750 C   0  0  0  0  0  0  0  0  0  0  0  0
    5.5810    1.1820   -0.3440 Br  0  0  0  0  0  0  0  0  0  0  0  0
   -3.3630    0.9000   -0.4170 C   0  0  0  0  0  0  0  0  0  0  0  0
   -5.3170    1.1840   -0.0700 Br  0  0  0  0  0  0  0  0  0  0  0  0
   -5.0040   -1.2210   -1.4160 H   0  0  0  0  0  0  0  0  0  0  0  0
   -3.8860   -0.6810   -2.6800 H   0  0  0  0  0  0  0  0  0  0  0  0
   -3.6540   -2.2520   -1.8900 H   0  0  0  0  0  0  0  0  0  0  0  0
   -1.3390   -0.9080   -1.9760 H   0  0  0  0  0  0  0  0  0  0  0  0
   -1.0210   -0.4980    1.0970 H   0  0  0  0  0  0  0  0  0  0  0  0
    1.8350   -1.0030    2.4770 H   0  0  0  0  0  0  0  0  0  0  0  0
    1.9870    0.7500    2.6820 H   0  0  0  0  0  0  0  0  0  0  0  0
    0.3920    0.0240    2.4720 H   0  0  0  0  0  0  0  0  0  0  0  0
    3.4410   -0.8280   -0.0110 H   0  0  0  0  0  0  0  0  0  0  0  0
    3.3990    2.2920    0.3760 H   0  0  0  0  0  0  0  0  0  0  0  0
   -2.8560    1.2980    0.4750 H   0  0  0  0  0  0  0  0  0  0  0  0
   -3.1340    1.5430   -1.2810 H   0  0  0  0  0  0  0  0  0  0  0  0
  1 18  1  0
  1 19  1  0
  1 17  1  0
  1  2  1  0
  2  4  1  0
  2 15  1  0
  2  3  1  1
  4 20  1  0
  4  5  2  0
  5  6  1  0
  5 21  1  0
  6  7  1  6
  6  8  1  0
  6  9  1  0
  9 12  1  0
  9 11  1  1
  9 10  1  0
 10 24  1  0
 10 22  1  0
 10 23  1  0
 12 25  1  0
 12 13  2  0
 13 14  1  0
 13 26  1  0
 15 28  1  0
 15 16  1  0
 15 27  1  0
M  END
>  <id>  (107) 
207

>  <scaffolds>  (107) 
[]

>  <name>  (107) 
1,4,8-Tribromo-3,7-dichloro-3,7-dimethyl-1E,5E-octadiene

>  <formula>  (107) 
C10H13Br3Cl2

>  <SMILES>  (107) 
CC(Cl)(/C=C/[C@H](Br)[C@](C)(Cl)/C=C/Br)CBr

>  <ChEMBL_id>  (107) 


>  <ZINC_id>  (107) 


>  <PubChem_id>  (107) 


>  <DrugBank_id>  (107) 


>  <CAS_no>  (107) 
935694-36-3

>  <references>  (107) 
[{'journal': {'name': 'Journal of Natural Products', 'id': 5}, 'title': 'Halogenated Monoterpene Aldehydes from the South African Marine Alga Plocamium corallorhiza', 'year': 2007, 'start_page': 596, 'volume': 70, 'issue': 4, 'doi': '10.1021/np060547c', 'isbn': '', 'despositor': {'code': 'DLP', 'first_name': 'David', 'last_name': 'Penkler', 'id': 23}, 'refauthors_set': [{'author': {'first_name': 'Maryssa', 'initials': 'MGA', 'last_name': 'Mann', 'id': 492}, 'first_author': True, 'id': 648}, {'author': {'first_name': 'Henry', 'initials': 'HB', 'last_name': 'Mkwananzi', 'id': 495}, 'first_author': None, 'id': 649}, {'author': {'first_name': 'Edith ', 'initials': 'EM', 'last_name': 'Antunes', 'id': 447}, 'first_author': False, 'id': 650}, {'author': {'first_name': 'Catherine', 'initials': 'CE', 'last_name': 'Whibley', 'id': 497}, 'first_author': None, 'id': 651}, {'author': {'first_name': 'Denver', 'initials': 'DT', 'last_name': 'Hendricks', 'id': 498}, 'first_author': False, 'id': 652}, {'author': {'first_name': 'John', 'initials': 'JJ', 'last_name': 'Bolton', 'id': 500}, 'first_author': False, 'id': 653}, {'author': {'first_name': 'Denzil', 'initials': 'DR', 'last_name': 'Beukes', 'id': 453}, 'first_author': False, 'id': 654}], 'id': 251}]

>  <classifications>  (107) 
[{'classification': 'Monoterpene', 'id': 795}, {'classification': 'Terpenoid', 'id': 839}, {'classification': 'Vinyl halides (Classyfire)', 'id': 960}]

>  <molecular_mass>  (107) 
443.83

$$$$
SANC00208_minRM1.pdb
     RDKit          3D

 42 42  0  0  1  0  0  0  0  0999 V2000
    6.8580    2.5720    0.5980 C   0  0  0  0  0  0  0  0  0  0  0  0
    5.7970    2.5230   -0.1680 C   0  0  0  0  0  0  0  0  0  0  0  0
    5.1840    3.7980   -0.6870 C   0  0  0  0  0  0  0  0  0  0  0  0
    5.1900    1.1920   -0.5300 C   0  0  1  0  0  0  0  0  0  0  0  0
    6.3980   -0.2540    0.0320 Br  0  0  0  0  0  0  0  0  0  0  0  0
    3.8430    1.0360    0.1780 C   0  0  0  0  0  0  0  0  0  0  0  0
    3.1360   -0.2170   -0.3420 C   0  0  1  0  0  0  0  0  0  0  0  0
    4.1200   -1.8150    0.2410 Br  0  0  0  0  0  0  0  0  0  0  0  0
    1.7320   -0.2640    0.2040 C   0  0  0  0  0  0  0  0  0  0  0  0
    1.5020   -0.5350    1.6680 C   0  0  0  0  0  0  0  0  0  0  0  0
    0.6960   -0.0670   -0.6060 C   0  0  0  0  0  0  0  0  0  0  0  0
   -0.6720   -0.1130   -0.0730 C   0  0  0  0  0  0  0  0  0  0  0  0
   -1.6810    0.0790   -0.8620 N   0  0  0  0  0  0  0  0  0  0  0  0
   -3.0000    0.0340   -0.3480 O   0  0  0  0  0  0  0  0  0  0  0  0
   -4.0140    0.2630   -1.3290 C   0  0  0  0  0  0  0  0  0  0  0  0
   -5.3700    0.1940   -0.6760 C   0  0  0  0  0  0  0  0  0  0  0  0
   -6.0380   -1.0170   -0.5960 C   0  0  0  0  0  0  0  0  0  0  0  0
   -5.4740   -2.1330   -1.1050 F   0  0  0  0  0  0  0  0  0  0  0  0
   -7.2850   -1.0820    0.0050 C   0  0  0  0  0  0  0  0  0  0  0  0
   -7.9370   -2.2630    0.0830 F   0  0  0  0  0  0  0  0  0  0  0  0
   -7.8640    0.0640    0.5260 C   0  0  0  0  0  0  0  0  0  0  0  0
   -9.0790    0.0020    1.1120 F   0  0  0  0  0  0  0  0  0  0  0  0
   -7.1940    1.2760    0.4450 C   0  0  0  0  0  0  0  0  0  0  0  0
   -7.7570    2.3930    0.9530 F   0  0  0  0  0  0  0  0  0  0  0  0
   -5.9450    1.3380   -0.1510 C   0  0  0  0  0  0  0  0  0  0  0  0
   -5.2920    2.5180   -0.2290 F   0  0  0  0  0  0  0  0  0  0  0  0
    7.2930    3.5260    0.8590 H   0  0  0  0  0  0  0  0  0  0  0  0
    7.2960    1.6590    0.9750 H   0  0  0  0  0  0  0  0  0  0  0  0
    5.6380    4.0570   -1.6430 H   0  0  0  0  0  0  0  0  0  0  0  0
    4.1110    3.6560   -0.8210 H   0  0  0  0  0  0  0  0  0  0  0  0
    5.3570    4.6020    0.0280 H   0  0  0  0  0  0  0  0  0  0  0  0
    5.0410    1.1430   -1.6090 H   0  0  0  0  0  0  0  0  0  0  0  0
    4.0060    0.9420    1.2520 H   0  0  0  0  0  0  0  0  0  0  0  0
    3.2250    1.9120   -0.0190 H   0  0  0  0  0  0  0  0  0  0  0  0
    3.1010   -0.1880   -1.4310 H   0  0  0  0  0  0  0  0  0  0  0  0
    1.4880    0.4070    2.2150 H   0  0  0  0  0  0  0  0  0  0  0  0
    0.5470   -1.0460    1.7990 H   0  0  0  0  0  0  0  0  0  0  0  0
    2.3050   -1.1650    2.0520 H   0  0  0  0  0  0  0  0  0  0  0  0
    0.8610    0.1280   -1.6550 H   0  0  0  0  0  0  0  0  0  0  0  0
   -0.8370   -0.3080    0.9760 H   0  0  0  0  0  0  0  0  0  0  0  0
   -3.8740    1.2500   -1.7730 H   0  0  0  0  0  0  0  0  0  0  0  0
   -3.9450   -0.4970   -2.1070 H   0  0  0  0  0  0  0  0  0  0  0  0
  1  2  2  0
  1 27  1  0
  1 28  1  0
  2  3  1  0
  2  4  1  0
  3 29  1  0
  3 30  1  0
  3 31  1  0
  4 32  1  6
  4  5  1  0
  4  6  1  0
  6  7  1  0
  6 34  1  0
  6 33  1  0
  7 35  1  6
  7  9  1  0
  7  8  1  0
  9 11  2  0
  9 10  1  0
 10 37  1  0
 10 38  1  0
 10 36  1  0
 11 39  1  0
 11 12  1  0
 12 13  2  0
 12 40  1  0
 13 14  1  0
 14 15  1  0
 15 42  1  0
 15 41  1  0
 15 16  1  0
 16 17  2  0
 16 25  1  0
 17 18  1  0
 17 19  1  0
 19 20  1  0
 19 21  2  0
 21 23  1  0
 21 22  1  0
 23 25  2  0
 23 24  1  0
 25 26  1  0
M  END
>  <id>  (108) 
208

>  <scaffolds>  (108) 
['c1ccccc1']

>  <name>  (108) 
2,7-Octadienal, 4,6-dibromo-3,7-dimethyl-, O-[(2,3,4,5,6-pentafluorophenyl)methyl]oxime, (2E)-

>  <formula>  (108) 
C17H16Br2F5NO

>  <SMILES>  (108) 
C=C(C)C(Br)CC(Br)/C(C)=C/C=N/OCc1c(F)c(F)c(F)c(F)c1F

>  <ChEMBL_id>  (108) 


>  <ZINC_id>  (108) 


>  <PubChem_id>  (108) 


>  <DrugBank_id>  (108) 


>  <CAS_no>  (108) 
935694-32-9

>  <references>  (108) 
[{'journal': {'name': 'Journal of Natural Products', 'id': 5}, 'title': 'Halogenated Monoterpene Aldehydes from the South African Marine Alga Plocamium corallorhiza', 'year': 2007, 'start_page': 596, 'volume': 70, 'issue': 4, 'doi': '10.1021/np060547c', 'isbn': '', 'despositor': {'code': 'DLP', 'first_name': 'David', 'last_name': 'Penkler', 'id': 23}, 'refauthors_set': [{'author': {'first_name': 'Maryssa', 'initials': 'MGA', 'last_name': 'Mann', 'id': 492}, 'first_author': True, 'id': 648}, {'author': {'first_name': 'Henry', 'initials': 'HB', 'last_name': 'Mkwananzi', 'id': 495}, 'first_author': None, 'id': 649}, {'author': {'first_name': 'Edith ', 'initials': 'EM', 'last_name': 'Antunes', 'id': 447}, 'first_author': False, 'id': 650}, {'author': {'first_name': 'Catherine', 'initials': 'CE', 'last_name': 'Whibley', 'id': 497}, 'first_author': None, 'id': 651}, {'author': {'first_name': 'Denver', 'initials': 'DT', 'last_name': 'Hendricks', 'id': 498}, 'first_author': False, 'id': 652}, {'author': {'first_name': 'John', 'initials': 'JJ', 'last_name': 'Bolton', 'id': 500}, 'first_author': False, 'id': 653}, {'author': {'first_name': 'Denzil', 'initials': 'DR', 'last_name': 'Beukes', 'id': 453}, 'first_author': False, 'id': 654}], 'id': 251}]

>  <classifications>  (108) 
[{'classification': 'Monoterpene', 'id': 795}, {'classification': 'Terpenoid', 'id': 839}, {'classification': 'Benzene and substituted derivatives (Classyfire)', 'id': 961}]

>  <molecular_mass>  (108) 
505.11

$$$$
SANC00209_minRM1.pdb
     RDKit          3D

 40 40  0  0  0  0  0  0  0  0999 V2000
   -7.3670    0.3200    2.2880 C   0  0  0  0  0  0  0  0  0  0  0  0
   -7.3820    0.3780    0.8040 C   0  0  0  0  0  0  0  0  0  0  0  0
   -6.2890    0.2970    0.0310 C   0  0  0  0  0  0  0  0  0  0  0  0
   -4.9580    0.1560    0.5900 C   0  0  0  0  0  0  0  0  0  0  0  0
   -3.8400    0.3710   -0.1140 C   0  0  0  0  0  0  0  0  0  0  0  0
   -4.0020    0.8350   -1.8020 Cl  0  0  0  0  0  0  0  0  0  0  0  0
   -2.4700    0.2860    0.3620 C   0  0  0  0  0  0  0  0  0  0  0  0
   -2.3040    0.1920    1.8390 C   0  0  0  0  0  0  0  0  0  0  0  0
   -1.4320    0.2900   -0.4890 C   0  0  0  0  0  0  0  0  0  0  0  0
   -0.0470    0.2290   -0.0170 C   0  0  0  0  0  0  0  0  0  0  0  0
    0.8740    0.1550   -0.9470 N   0  0  0  0  0  0  0  0  0  0  0  0
    2.1190    0.1050   -0.4360 O   0  0  0  0  0  0  0  0  0  0  0  0
    3.0830    0.0630   -1.4880 C   0  0  0  0  0  0  0  0  0  0  0  0
    4.3790   -0.0250   -0.7370 C   0  0  0  0  0  0  0  0  0  0  0  0
    5.0300    1.1310   -0.2950 C   0  0  0  0  0  0  0  0  0  0  0  0
    4.5250    2.3250   -0.5450 F   0  0  0  0  0  0  0  0  0  0  0  0
    6.2430    1.0610    0.4170 C   0  0  0  0  0  0  0  0  0  0  0  0
    6.8340    2.1670    0.8210 F   0  0  0  0  0  0  0  0  0  0  0  0
    6.8170   -0.1880    0.6980 C   0  0  0  0  0  0  0  0  0  0  0  0
    7.9580   -0.2630    1.3560 F   0  0  0  0  0  0  0  0  0  0  0  0
    6.1600   -1.3570    0.2820 C   0  0  0  0  0  0  0  0  0  0  0  0
    6.6820   -2.5400    0.5520 F   0  0  0  0  0  0  0  0  0  0  0  0
    4.9460   -1.2640   -0.4250 C   0  0  0  0  0  0  0  0  0  0  0  0
    4.3620   -2.3910   -0.7980 F   0  0  0  0  0  0  0  0  0  0  0  0
   -8.7250    0.5270    0.2060 C   0  0  0  0  0  0  0  0  0  0  0  0
   -9.5410   -1.1400    0.4050 Cl  0  0  0  0  0  0  0  0  0  0  0  0
   -7.5880    1.3050    2.7250 H   0  0  0  0  0  0  0  0  0  0  0  0
   -8.1230   -0.3870    2.6690 H   0  0  0  0  0  0  0  0  0  0  0  0
   -6.3990   -0.0060    2.6990 H   0  0  0  0  0  0  0  0  0  0  0  0
   -6.3690    0.3400   -1.0640 H   0  0  0  0  0  0  0  0  0  0  0  0
   -4.9110   -0.1360    1.6490 H   0  0  0  0  0  0  0  0  0  0  0  0
   -2.6200   -0.7980    2.2100 H   0  0  0  0  0  0  0  0  0  0  0  0
   -1.2560    0.3220    2.1670 H   0  0  0  0  0  0  0  0  0  0  0  0
   -2.8860    0.9610    2.3780 H   0  0  0  0  0  0  0  0  0  0  0  0
   -1.5810    0.3510   -1.5780 H   0  0  0  0  0  0  0  0  0  0  0  0
    0.1230    0.2520    1.0770 H   0  0  0  0  0  0  0  0  0  0  0  0
    2.9250   -0.8030   -2.1720 H   0  0  0  0  0  0  0  0  0  0  0  0
    3.0330    0.9690   -2.1350 H   0  0  0  0  0  0  0  0  0  0  0  0
   -9.3800    1.2460    0.7270 H   0  0  0  0  0  0  0  0  0  0  0  0
   -8.7500    0.7430   -0.8760 H   0  0  0  0  0  0  0  0  0  0  0  0
  1  2  1  0
  1 28  1  0
  1 29  1  0
  1 27  1  0
  2  3  2  0
  2 25  1  0
  3 30  1  0
  3  4  1  0
  4  5  2  0
  4 31  1  0
  5  6  1  0
  5  7  1  0
  7  9  2  0
  7  8  1  0
  8 33  1  0
  8 32  1  0
  8 34  1  0
  9 35  1  0
  9 10  1  0
 10 11  2  0
 10 36  1  0
 11 12  1  0
 12 13  1  0
 13 37  1  0
 13 38  1  0
 13 14  1  0
 14 23  2  0
 14 15  1  0
 15 16  1  0
 15 17  2  0
 17 19  1  0
 17 18  1  0
 19 21  2  0
 19 20  1  0
 21 23  1  0
 21 22  1  0
 23 24  1  0
 25 40  1  0
 25 26  1  0
 25 39  1  0
M  END
>  <id>  (109) 
209

>  <scaffolds>  (109) 
['c1ccccc1']

>  <name>  (109) 
2,4,6-Octatrienal, 4,8-dichloro-3,7-dimethyl-, O-[(2,3,4,5,6-pentafluorophenyl)methyl]oxime, (2E,4Z,6E)-

>  <formula>  (109) 
C17H14Cl2F5NO

>  <SMILES>  (109) 
C/C(=C\C=C(Cl)\C(C)=C\C=N\OCc1c(F)c(F)c(F)c(F)c1F)CCl

>  <ChEMBL_id>  (109) 


>  <ZINC_id>  (109) 


>  <PubChem_id>  (109) 


>  <DrugBank_id>  (109) 


>  <CAS_no>  (109) 
935694-33-0

>  <references>  (109) 
[{'journal': {'name': 'Journal of Natural Products', 'id': 5}, 'title': 'Halogenated Monoterpene Aldehydes from the South African Marine Alga Plocamium corallorhiza', 'year': 2007, 'start_page': 596, 'volume': 70, 'issue': 4, 'doi': '10.1021/np060547c', 'isbn': '', 'despositor': {'code': 'DLP', 'first_name': 'David', 'last_name': 'Penkler', 'id': 23}, 'refauthors_set': [{'author': {'first_name': 'Maryssa', 'initials': 'MGA', 'last_name': 'Mann', 'id': 492}, 'first_author': True, 'id': 648}, {'author': {'first_name': 'Henry', 'initials': 'HB', 'last_name': 'Mkwananzi', 'id': 495}, 'first_author': None, 'id': 649}, {'author': {'first_name': 'Edith ', 'initials': 'EM', 'last_name': 'Antunes', 'id': 447}, 'first_author': False, 'id': 650}, {'author': {'first_name': 'Catherine', 'initials': 'CE', 'last_name': 'Whibley', 'id': 497}, 'first_author': None, 'id': 651}, {'author': {'first_name': 'Denver', 'initials': 'DT', 'last_name': 'Hendricks', 'id': 498}, 'first_author': False, 'id': 652}, {'author': {'first_name': 'John', 'initials': 'JJ', 'last_name': 'Bolton', 'id': 500}, 'first_author': False, 'id': 653}, {'author': {'first_name': 'Denzil', 'initials': 'DR', 'last_name': 'Beukes', 'id': 453}, 'first_author': False, 'id': 654}], 'id': 251}]

>  <classifications>  (109) 
[{'classification': 'Monoterpene', 'id': 795}, {'classification': 'Terpenoid', 'id': 839}, {'classification': 'Phenol lipids (Classyfire)', 'id': 951}]

>  <molecular_mass>  (109) 
414.2

$$$$
SANC00210_minRM1.pdb
     RDKit          3D

 42 42  0  0  1  0  0  0  0  0999 V2000
   -0.7560    0.1990    1.8050 C   0  0  0  0  0  0  0  0  0  0  0  0
   -0.8750    0.7100    0.4140 C   0  0  0  0  0  0  0  0  0  0  0  0
    0.1650    0.8030   -0.4300 C   0  0  0  0  0  0  0  0  0  0  0  0
    1.5130    0.3830   -0.0450 C   0  0  0  0  0  0  0  0  0  0  0  0
    2.4780    0.7110   -0.8700 N   0  0  0  0  0  0  0  0  0  0  0  0
    3.6890    0.3020   -0.4470 O   0  0  0  0  0  0  0  0  0  0  0  0
    4.6920    0.6890   -1.3850 C   0  0  0  0  0  0  0  0  0  0  0  0
    5.9580    0.2380   -0.7190 C   0  0  0  0  0  0  0  0  0  0  0  0
    6.7010    1.1080    0.0840 C   0  0  0  0  0  0  0  0  0  0  0  0
    6.3200    2.3600    0.2590 F   0  0  0  0  0  0  0  0  0  0  0  0
    7.8780    0.6810    0.7310 C   0  0  0  0  0  0  0  0  0  0  0  0
    8.5580    1.5220    1.4910 F   0  0  0  0  0  0  0  0  0  0  0  0
    8.3240   -0.6410    0.5720 C   0  0  0  0  0  0  0  0  0  0  0  0
    9.4270   -1.0470    1.1690 F   0  0  0  0  0  0  0  0  0  0  0  0
    7.5830   -1.5240   -0.2280 C   0  0  0  0  0  0  0  0  0  0  0  0
    7.9900   -2.7710   -0.3900 F   0  0  0  0  0  0  0  0  0  0  0  0
    6.4030   -1.0800   -0.8560 C   0  0  0  0  0  0  0  0  0  0  0  0
    5.7300   -1.9450   -1.5930 F   0  0  0  0  0  0  0  0  0  0  0  0
   -2.1970    1.1500   -0.0300 C   0  0  0  0  0  0  0  0  0  0  0  0
   -3.3270    0.7240    0.5340 C   0  0  0  0  0  0  0  0  0  0  0  0
   -4.6690    1.1750    0.1100 C   0  0  1  0  0  0  0  0  0  0  0  0
   -4.6120    1.7460   -1.6720 Cl  0  0  0  0  0  0  0  0  0  0  0  0
   -5.7080    0.0670    0.0890 C   0  0  1  0  0  0  0  0  0  0  0  0
   -5.2590   -1.1680   -0.6430 C   0  0  0  0  0  0  0  0  0  0  0  0
   -5.8670   -0.3830    1.8880 Cl  0  0  0  0  0  0  0  0  0  0  0  0
   -7.0520    0.5880   -0.3390 C   0  0  0  0  0  0  0  0  0  0  0  0
   -8.4400   -0.8460   -0.1790 Br  0  0  0  0  0  0  0  0  0  0  0  0
   -0.9180    1.0050    2.5360 H   0  0  0  0  0  0  0  0  0  0  0  0
   -1.4920   -0.5890    2.0270 H   0  0  0  0  0  0  0  0  0  0  0  0
    0.2310   -0.2380    2.0280 H   0  0  0  0  0  0  0  0  0  0  0  0
    0.0370    1.2010   -1.4450 H   0  0  0  0  0  0  0  0  0  0  0  0
    1.6200   -0.1720    0.9070 H   0  0  0  0  0  0  0  0  0  0  0  0
    4.5450    0.2010   -2.3750 H   0  0  0  0  0  0  0  0  0  0  0  0
    4.6850    1.7840   -1.5940 H   0  0  0  0  0  0  0  0  0  0  0  0
   -2.2160    1.8500   -0.8760 H   0  0  0  0  0  0  0  0  0  0  0  0
   -3.3400    0.0300    1.3860 H   0  0  0  0  0  0  0  0  0  0  0  0
   -4.9970    2.0720    0.6830 H   0  0  0  0  0  0  0  0  0  0  0  0
   -4.3140   -1.5720   -0.2520 H   0  0  0  0  0  0  0  0  0  0  0  0
   -5.9960   -1.9840   -0.5720 H   0  0  0  0  0  0  0  0  0  0  0  0
   -5.1040   -0.9590   -1.7140 H   0  0  0  0  0  0  0  0  0  0  0  0
   -7.4280    1.4110    0.2860 H   0  0  0  0  0  0  0  0  0  0  0  0
   -7.0760    0.8940   -1.3980 H   0  0  0  0  0  0  0  0  0  0  0  0
  1  2  1  0
  1 29  1  0
  1 30  1  0
  1 28  1  0
  2  3  2  0
  2 19  1  0
  3 31  1  0
  3  4  1  0
  4  5  2  0
  4 32  1  0
  5  6  1  0
  6  7  1  0
  7 33  1  0
  7 34  1  0
  7  8  1  0
  8 17  2  0
  8  9  1  0
  9 10  1  0
  9 11  2  0
 11 13  1  0
 11 12  1  0
 13 15  2  0
 13 14  1  0
 15 17  1  0
 15 16  1  0
 17 18  1  0
 19 35  1  0
 19 20  2  0
 20 21  1  0
 20 36  1  0
 21 22  1  0
 21 23  1  0
 21 37  1  1
 23 24  1  0
 23 26  1  0
 23 25  1  1
 24 40  1  0
 24 39  1  0
 24 38  1  0
 26 42  1  0
 26 27  1  0
 26 41  1  0
M  END
>  <id>  (110) 
210

>  <scaffolds>  (110) 
['c1ccccc1']

>  <name>  (110) 
2,4-Octadienal, 8-bromo-6,7-dichloro-3,7-dimethyl-, O-[(2,3,4,5,6-pentafluorophenyl)methyl]oxime, (2E,4E)-

>  <formula>  (110) 
C17H15BrCl2F5NO

>  <SMILES>  (110) 
C/C(=C\C=N\OCc1c(F)c(F)c(F)c(F)c1F)/C=C/C(Cl)C(C)(Cl)CBr

>  <ChEMBL_id>  (110) 


>  <ZINC_id>  (110) 


>  <PubChem_id>  (110) 


>  <DrugBank_id>  (110) 


>  <CAS_no>  (110) 
935694-34-1

>  <references>  (110) 
[{'journal': {'name': 'Journal of Natural Products', 'id': 5}, 'title': 'Halogenated Monoterpene Aldehydes from the South African Marine Alga Plocamium corallorhiza', 'year': 2007, 'start_page': 596, 'volume': 70, 'issue': 4, 'doi': '10.1021/np060547c', 'isbn': '', 'despositor': {'code': 'DLP', 'first_name': 'David', 'last_name': 'Penkler', 'id': 23}, 'refauthors_set': [{'author': {'first_name': 'Maryssa', 'initials': 'MGA', 'last_name': 'Mann', 'id': 492}, 'first_author': True, 'id': 648}, {'author': {'first_name': 'Henry', 'initials': 'HB', 'last_name': 'Mkwananzi', 'id': 495}, 'first_author': None, 'id': 649}, {'author': {'first_name': 'Edith ', 'initials': 'EM', 'last_name': 'Antunes', 'id': 447}, 'first_author': False, 'id': 650}, {'author': {'first_name': 'Catherine', 'initials': 'CE', 'last_name': 'Whibley', 'id': 497}, 'first_author': None, 'id': 651}, {'author': {'first_name': 'Denver', 'initials': 'DT', 'last_name': 'Hendricks', 'id': 498}, 'first_author': False, 'id': 652}, {'author': {'first_name': 'John', 'initials': 'JJ', 'last_name': 'Bolton', 'id': 500}, 'first_author': False, 'id': 653}, {'author': {'first_name': 'Denzil', 'initials': 'DR', 'last_name': 'Beukes', 'id': 453}, 'first_author': False, 'id': 654}], 'id': 251}]

>  <classifications>  (110) 
[{'classification': 'Monoterpene', 'id': 795}, {'classification': 'Terpenoid', 'id': 839}, {'classification': 'Benzene and substituted derivatives (Classyfire)', 'id': 961}]

>  <molecular_mass>  (110) 
495.11

$$$$
SANC00211_minRM1.pdb
     RDKit          3D

 42 42  0  0  1  0  0  0  0  0999 V2000
    5.4500    2.9250    0.7890 C   0  0  0  0  0  0  0  0  0  0  0  0
    6.2270    1.6790    0.5610 C   0  0  0  0  0  0  0  0  0  0  0  0
    5.7550    0.4490    0.7800 C   0  0  0  0  0  0  0  0  0  0  0  0
    4.3940    0.1540    1.3110 C   0  0  0  0  0  0  0  0  0  0  0  0
    3.5590   -0.5010    0.2290 C   0  0  1  0  0  0  0  0  0  0  0  0
    4.2740   -2.3930   -0.0460 Br  0  0  0  0  0  0  0  0  0  0  0  0
    2.1320   -0.6730    0.5890 C   0  0  0  0  0  0  0  0  0  0  0  0
    1.8420   -1.1850    1.9530 C   0  0  0  0  0  0  0  0  0  0  0  0
    1.1790   -0.3620   -0.3010 C   0  0  0  0  0  0  0  0  0  0  0  0
   -0.2440   -0.5100    0.0100 C   0  0  0  0  0  0  0  0  0  0  0  0
   -1.0680    0.1850   -0.7380 N   0  0  0  0  0  0  0  0  0  0  0  0
   -2.3600   -0.0070   -0.4080 O   0  0  0  0  0  0  0  0  0  0  0  0
   -3.1980    0.7630   -1.2700 C   0  0  0  0  0  0  0  0  0  0  0  0
   -4.5640    0.5220   -0.6970 C   0  0  0  0  0  0  0  0  0  0  0  0
   -5.2740   -0.6380   -1.0230 C   0  0  0  0  0  0  0  0  0  0  0  0
   -4.7630   -1.5280   -1.8540 F   0  0  0  0  0  0  0  0  0  0  0  0
   -6.5520   -0.8900   -0.4870 C   0  0  0  0  0  0  0  0  0  0  0  0
   -7.2030   -1.9930   -0.8140 F   0  0  0  0  0  0  0  0  0  0  0  0
   -7.1360    0.0380    0.3880 C   0  0  0  0  0  0  0  0  0  0  0  0
   -8.3380   -0.1770    0.8810 F   0  0  0  0  0  0  0  0  0  0  0  0
   -6.4280    1.1990    0.7360 C   0  0  0  0  0  0  0  0  0  0  0  0
   -6.9580    2.0730    1.5720 F   0  0  0  0  0  0  0  0  0  0  0  0
   -5.1450    1.4230    0.2010 C   0  0  0  0  0  0  0  0  0  0  0  0
   -4.5070    2.5170    0.5690 F   0  0  0  0  0  0  0  0  0  0  0  0
    7.6000    1.8740    0.0460 C   0  0  0  0  0  0  0  0  0  0  0  0
    7.3870    2.6280   -1.6440 Cl  0  0  0  0  0  0  0  0  0  0  0  0
    5.2440    3.0860    1.8590 H   0  0  0  0  0  0  0  0  0  0  0  0
    5.9690    3.8270    0.4270 H   0  0  0  0  0  0  0  0  0  0  0  0
    4.4830    2.9090    0.2630 H   0  0  0  0  0  0  0  0  0  0  0  0
    6.3610   -0.4410    0.5660 H   0  0  0  0  0  0  0  0  0  0  0  0
    4.4870   -0.4950    2.2110 H   0  0  0  0  0  0  0  0  0  0  0  0
    3.8640    1.0570    1.6850 H   0  0  0  0  0  0  0  0  0  0  0  0
    3.7260   -0.0420   -0.7690 H   0  0  0  0  0  0  0  0  0  0  0  0
    1.9360   -0.3850    2.7050 H   0  0  0  0  0  0  0  0  0  0  0  0
    0.8200   -1.5910    2.0550 H   0  0  0  0  0  0  0  0  0  0  0  0
    2.5270   -1.9960    2.2480 H   0  0  0  0  0  0  0  0  0  0  0  0
    1.4290    0.0220   -1.2980 H   0  0  0  0  0  0  0  0  0  0  0  0
   -0.5130   -1.1930    0.8430 H   0  0  0  0  0  0  0  0  0  0  0  0
   -2.9240    1.8430   -1.2840 H   0  0  0  0  0  0  0  0  0  0  0  0
   -3.1270    0.4230   -2.3290 H   0  0  0  0  0  0  0  0  0  0  0  0
    8.2000    2.5960    0.6190 H   0  0  0  0  0  0  0  0  0  0  0  0
    8.1930    0.9580   -0.1140 H   0  0  0  0  0  0  0  0  0  0  0  0
  1 29  1  0
  1 28  1  0
  1  2  1  0
  1 27  1  0
  2 25  1  0
  2  3  2  0
  3 30  1  0
  3  4  1  0
  4  5  1  0
  4 32  1  0
  4 31  1  0
  5 33  1  6
  5  6  1  0
  5  7  1  0
  7  9  2  0
  7  8  1  0
  8 35  1  0
  8 36  1  0
  8 34  1  0
  9 37  1  0
  9 10  1  0
 10 11  2  0
 10 38  1  0
 11 12  1  0
 12 13  1  0
 13 40  1  0
 13 39  1  0
 13 14  1  0
 14 15  2  0
 14 23  1  0
 15 16  1  0
 15 17  1  0
 17 18  1  0
 17 19  2  0
 19 21  1  0
 19 20  1  0
 21 23  2  0
 21 22  1  0
 23 24  1  0
 25 26  1  0
 25 42  1  0
 25 41  1  0
M  END
>  <id>  (111) 
211

>  <scaffolds>  (111) 
['c1ccccc1']

>  <name>  (111) 
2,6-Octadienal, 4-bromo-8-chloro-3,7-dimethyl-, O-[(2,3,4,5,6-pentafluorophenyl)methyl]oxime, (2E,6E)-

>  <formula>  (111) 
C17H16BrClF5NO

>  <SMILES>  (111) 
C/C(=C\CC(Br)/C(C)=C/C=N/OCc1c(F)c(F)c(F)c(F)c1F)CCl

>  <ChEMBL_id>  (111) 


>  <ZINC_id>  (111) 


>  <PubChem_id>  (111) 


>  <DrugBank_id>  (111) 


>  <CAS_no>  (111) 
935694-35-2

>  <references>  (111) 
[{'journal': {'name': 'Journal of Natural Products', 'id': 5}, 'title': 'Halogenated Monoterpene Aldehydes from the South African Marine Alga Plocamium corallorhiza', 'year': 2007, 'start_page': 596, 'volume': 70, 'issue': 4, 'doi': '10.1021/np060547c', 'isbn': '', 'despositor': {'code': 'DLP', 'first_name': 'David', 'last_name': 'Penkler', 'id': 23}, 'refauthors_set': [{'author': {'first_name': 'Maryssa', 'initials': 'MGA', 'last_name': 'Mann', 'id': 492}, 'first_author': True, 'id': 648}, {'author': {'first_name': 'Henry', 'initials': 'HB', 'last_name': 'Mkwananzi', 'id': 495}, 'first_author': None, 'id': 649}, {'author': {'first_name': 'Edith ', 'initials': 'EM', 'last_name': 'Antunes', 'id': 447}, 'first_author': False, 'id': 650}, {'author': {'first_name': 'Catherine', 'initials': 'CE', 'last_name': 'Whibley', 'id': 497}, 'first_author': None, 'id': 651}, {'author': {'first_name': 'Denver', 'initials': 'DT', 'last_name': 'Hendricks', 'id': 498}, 'first_author': False, 'id': 652}, {'author': {'first_name': 'John', 'initials': 'JJ', 'last_name': 'Bolton', 'id': 500}, 'first_author': False, 'id': 653}, {'author': {'first_name': 'Denzil', 'initials': 'DR', 'last_name': 'Beukes', 'id': 453}, 'first_author': False, 'id': 654}], 'id': 251}]

>  <classifications>  (111) 
[{'classification': 'Monoterpene', 'id': 795}, {'classification': 'Terpenoid', 'id': 839}, {'classification': 'Phenol lipids (Classyfire)', 'id': 951}]

>  <molecular_mass>  (111) 
460.66

$$$$
SANC00212_minRM1.pdb
     RDKit          3D

 28 28  0  0  1  0  0  0  0  0999 V2000
   -2.1190    0.5640   -2.3630 C   0  0  0  0  0  0  0  0  0  0  0  0
   -1.4420    0.0110   -1.1060 C   0  0  2  0  0  0  0  0  0  0  0  0
   -1.8560    0.8570    0.0600 C   0  0  0  0  0  0  0  0  0  0  0  0
   -1.5960    2.1560    0.1060 C   0  0  0  0  0  0  0  0  0  0  0  0
   -2.1630    3.0570    1.4860 Cl  0  0  0  0  0  0  0  0  0  0  0  0
    0.0830    0.0350   -1.2940 C   0  0  0  0  0  0  0  0  0  0  0  0
    0.8240   -0.6980   -0.1890 C   0  0  2  0  0  0  0  0  0  0  0  0
    0.4810    0.1690    1.3850 Cl  0  0  0  0  0  0  0  0  0  0  0  0
    2.3220   -0.7010   -0.3440 C   0  0  0  0  0  0  0  0  0  0  0  0
    3.0050    1.1610   -0.6300 Br  0  0  0  0  0  0  0  0  0  0  0  0
    0.3020   -2.1150   -0.0580 C   0  0  1  0  0  0  0  0  0  0  0  0
    0.5750   -2.7370   -0.9420 H   0  0  0  0  0  0  0  0  0  0  0  0
    1.1480   -2.9120    1.3650 Cl  0  0  0  0  0  0  0  0  0  0  0  0
   -1.1830   -2.1350    0.2310 C   0  0  0  0  0  0  0  0  0  0  0  0
   -1.8780   -1.4400   -0.9200 C   0  0  1  0  0  0  0  0  0  0  0  0
   -1.8100   -2.0250   -1.8640 H   0  0  0  0  0  0  0  0  0  0  0  0
   -3.6820   -1.4380   -0.5030 Cl  0  0  0  0  0  0  0  0  0  0  0  0
   -3.2140    0.5810   -2.2520 H   0  0  0  0  0  0  0  0  0  0  0  0
   -1.8050    1.5930   -2.5900 H   0  0  0  0  0  0  0  0  0  0  0  0
   -1.9000   -0.0310   -3.2620 H   0  0  0  0  0  0  0  0  0  0  0  0
   -2.4310    0.3790    0.8640 H   0  0  0  0  0  0  0  0  0  0  0  0
   -1.0520    2.7750   -0.6030 H   0  0  0  0  0  0  0  0  0  0  0  0
    0.3590   -0.4130   -2.2750 H   0  0  0  0  0  0  0  0  0  0  0  0
    0.4430    1.0850   -1.3620 H   0  0  0  0  0  0  0  0  0  0  0  0
    2.8450   -1.0610    0.5580 H   0  0  0  0  0  0  0  0  0  0  0  0
    2.6740   -1.2670   -1.2190 H   0  0  0  0  0  0  0  0  0  0  0  0
   -1.5520   -3.1770    0.3540 H   0  0  0  0  0  0  0  0  0  0  0  0
   -1.4040   -1.6570    1.2130 H   0  0  0  0  0  0  0  0  0  0  0  0
  1 20  1  0
  1 19  1  0
  1 18  1  0
  1  2  1  0
  2  6  1  0
  2 15  1  0
  2  3  1  1
  3  4  2  0
  3 21  1  0
  4 22  1  0
  4  5  1  0
  6 23  1  0
  6 24  1  0
  6  7  1  0
  7  9  1  0
  7 11  1  0
  7  8  1  1
  9 26  1  0
  9 10  1  0
  9 25  1  0
 11 12  1  6
 11 14  1  0
 11 13  1  0
 14 15  1  0
 14 27  1  0
 14 28  1  0
 15 16  1  6
 15 17  1  0
M  END
>  <id>  (112) 
212

>  <scaffolds>  (112) 
['C1CCCCC1']

>  <name>  (112) 
Violacene

>  <formula>  (112) 
C10H13BrCl4

>  <SMILES>  (112) 
C[C@]1(/C=C/Cl)C[C@](Cl)(CBr)[C@@H](Cl)C[C@H]1Cl

>  <ChEMBL_id>  (112) 


>  <ZINC_id>  (112) 


>  <PubChem_id>  (112) 


>  <DrugBank_id>  (112) 


>  <CAS_no>  (112) 
54279-01-5

>  <references>  (112) 
[{'journal': {'name': 'Phytochemistry', 'id': 10}, 'title': 'Plocoralides A-C, polyhalogenated monoterpenes from the marine alga Plocamium corallorhiza', 'year': 2005, 'start_page': 1108, 'volume': 66, 'issue': 10, 'doi': '10.1016/j.phytochem.2005.03.029', 'isbn': '', 'despositor': {'code': 'DLP', 'first_name': 'David', 'last_name': 'Penkler', 'id': 23}, 'refauthors_set': [{'author': {'first_name': 'Michael', 'initials': 'MG', 'last_name': 'Knott', 'id': 504}, 'first_author': True, 'id': 662}, {'author': {'first_name': 'Henry', 'initials': 'HB', 'last_name': 'Mkwananzi', 'id': 495}, 'first_author': False, 'id': 663}, {'author': {'first_name': 'Catherine', 'initials': 'CE', 'last_name': 'Arendse', 'id': 505}, 'first_author': False, 'id': 664}, {'author': {'first_name': 'Denver', 'initials': 'DT', 'last_name': 'Hendricks', 'id': 498}, 'first_author': False, 'id': 665}, {'author': {'first_name': 'John', 'initials': 'JJ', 'last_name': 'Bolton', 'id': 500}, 'first_author': False, 'id': 666}, {'author': {'first_name': 'Denzil', 'initials': 'DR', 'last_name': 'Beukes', 'id': 453}, 'first_author': False, 'id': 667}], 'id': 252}]

>  <classifications>  (112) 
[{'classification': 'Monoterpene', 'id': 795}, {'classification': 'Terpenoid', 'id': 839}, {'classification': 'Alkyl halides (Classyfire)', 'id': 962}]

>  <molecular_mass>  (112) 
354.93

$$$$
SANC00213_minRM1.pdb
     RDKit          3D

168175  0  0  1  0  0  0  0  0999 V2000
    4.3010   -3.6920   -1.2250 C   0  0  1  0  0  0  0  0  0  0  0  0
    4.3790   -5.1920   -1.2980 C   0  0  0  0  0  0  0  0  0  0  0  0
    4.0990   -6.1950   -0.4730 C   0  0  0  0  0  0  0  0  0  0  0  0
    3.7220   -6.2280    0.9630 C   0  0  0  0  0  0  0  0  0  0  0  0
    2.3240   -6.8130    1.1630 C   0  0  0  0  0  0  0  0  0  0  0  0
    1.2580   -5.8400    0.6650 C   0  0  0  0  0  0  0  0  0  0  0  0
   -0.1600   -6.3610    0.9650 C   0  0  1  0  0  0  0  0  0  0  0  0
   -0.8820   -5.4130    1.7060 O   0  0  0  0  0  0  0  0  0  0  0  0
   -1.5860   -4.4040    1.0170 C   0  0  2  0  0  0  0  0  0  0  0  0
   -2.9250   -4.7310    1.1530 O   0  0  0  0  0  0  0  0  0  0  0  0
   -1.1430   -4.2450   -0.4350 C   0  0  0  0  0  0  0  0  0  0  0  0
   -1.1700   -5.5760   -1.2100 C   0  0  2  0  0  0  0  0  0  0  0  0
   -2.4350   -5.7990   -1.7680 O   0  0  0  0  0  0  0  0  0  0  0  0
   -0.9350   -6.7890   -0.2880 C   0  0  1  0  0  0  0  0  0  0  0  0
   -0.2120   -7.9020   -1.0310 C   0  0  0  0  0  0  0  0  0  0  0  0
   -1.3910   -3.1380    1.9200 C   0  0  1  0  0  0  0  0  0  0  0  0
   -0.0280   -2.8760    2.0300 O   0  0  0  0  0  0  0  0  0  0  0  0
   -2.0470   -1.8080    1.4590 C   0  0  2  0  0  0  0  0  0  0  0  0
   -3.4070   -2.1410    1.3110 O   0  0  0  0  0  0  0  0  0  0  0  0
   -4.2430   -1.0110    1.2490 C   0  0  2  0  0  0  0  0  0  0  0  0
   -5.6870   -1.5340    1.2940 C   0  0  0  0  0  0  0  0  0  0  0  0
   -6.1860   -2.0460   -0.0160 C   0  0  0  0  0  0  0  0  0  0  0  0
   -5.6300   -3.0880   -0.6270 C   0  0  0  0  0  0  0  0  0  0  0  0
   -7.3930   -1.3800   -0.5940 C   0  0  0  0  0  0  0  0  0  0  0  0
   -8.6150   -2.3070   -0.4110 C   0  0  2  0  0  0  0  0  0  0  0  0
   -8.6580   -3.3030   -1.3830 O   0  0  0  0  0  0  0  0  0  0  0  0
   -9.8650   -1.4690   -0.4320 C   0  0  0  0  0  0  0  0  0  0  0  0
  -10.5720   -1.2540    0.6770 C   0  0  0  0  0  0  0  0  0  0  0  0
  -11.7680   -0.4400    0.7130 C   0  0  0  0  0  0  0  0  0  0  0  0
  -12.6640   -0.3860    1.6880 C   0  0  0  0  0  0  0  0  0  0  0  0
  -12.0280    0.5780   -0.6900 Cl  0  0  0  0  0  0  0  0  0  0  0  0
   -3.9230   -0.2460   -0.0540 C   0  0  1  0  0  0  0  0  0  0  0  0
   -4.6810    0.9240   -0.0180 O   0  0  0  0  0  0  0  0  0  0  0  0
   -2.4170    0.1370   -0.0410 C   0  0  2  0  0  0  0  0  0  0  0  0
   -2.1610    0.6090   -1.3450 O   0  0  0  0  0  0  0  0  0  0  0  0
   -1.7420    1.8880   -1.5740 C   0  0  0  0  0  0  0  0  0  0  0  0
   -1.6410    2.1400   -2.7620 O   0  0  0  0  0  0  0  0  0  0  0  0
   -1.4310    2.8360   -0.4540 C   0  0  0  0  0  0  0  0  0  0  0  0
   -1.2380    4.2610   -1.0040 C   0  0  1  0  0  0  0  0  0  0  0  0
   -2.5260    4.7940   -1.6530 C   0  0  0  0  0  0  0  0  0  0  0  0
   -2.6690    6.3070   -1.4150 C   0  0  2  0  0  0  0  0  0  0  0  0
   -3.4620    6.9140   -2.3830 O   0  0  0  0  0  0  0  0  0  0  0  0
   -1.2780    6.9510   -1.3510 C   0  0  0  0  0  0  0  0  0  0  0  0
   -0.5100    6.3490   -0.1590 C   0  0  2  0  0  0  0  0  0  0  0  0
   -0.7240    7.1260    1.1530 C   0  0  0  0  0  0  0  0  0  0  0  0
    0.1820    8.3720    1.2810 C   0  0  1  0  0  0  0  0  0  0  0  0
   -0.5170    9.6090    0.7040 C   0  0  0  0  0  0  0  0  0  0  0  0
    0.3520    8.6790    2.6360 O   0  0  0  0  0  0  0  0  0  0  0  0
    1.5480    8.1540    0.6010 C   0  0  0  0  0  0  0  0  0  0  0  0
    1.7860    6.6570    0.3650 C   0  0  2  0  0  0  0  0  0  0  0  0
    3.1120    6.4050   -0.2920 C   0  0  0  0  0  0  0  0  0  0  0  0
    3.8300    5.3170   -0.0470 C   0  0  0  0  0  0  0  0  0  0  0  0
    5.1710    5.0190   -0.6510 C   0  0  0  0  0  0  0  0  0  0  0  0
    5.6530    3.8340   -0.0470 O   0  0  0  0  0  0  0  0  0  0  0  0
    4.8980    3.5720    1.1170 C   0  0  2  0  0  0  0  0  0  0  0  0
    4.9390    2.0720    1.4360 C   0  0  2  0  0  0  0  0  0  0  0  0
    6.0710    1.7650    2.4090 C   0  0  0  0  0  0  0  0  0  0  0  0
    5.0560    1.2120    0.1880 C   0  0  0  0  0  0  0  0  0  0  0  0
    4.0600    0.6870   -0.2750 O   0  0  0  0  0  0  0  0  0  0  0  0
    6.4060    0.9950   -0.4470 C   0  0  0  0  0  0  0  0  0  0  0  0
    6.9480   -0.4030   -0.0910 C   0  0  2  0  0  0  0  0  0  0  0  0
    8.3760   -0.5640   -0.6250 C   0  0  0  0  0  0  0  0  0  0  0  0
    8.8130   -2.0170   -0.4130 C   0  0  2  0  0  0  0  0  0  0  0  0
   10.0680   -2.2280   -1.0150 O   0  0  0  0  0  0  0  0  0  0  0  0
   11.1560   -1.9950   -0.1630 C   0  0  0  0  0  0  0  0  0  0  0  0
    7.8350   -2.9220   -1.1650 C   0  0  0  0  0  0  0  0  0  0  0  0
    6.4040   -2.6630   -0.6530 C   0  0  2  0  0  0  0  0  0  0  0  0
    6.1660   -3.2680    0.7340 C   0  0  0  0  0  0  0  0  0  0  0  0
    4.7290   -3.0270    1.2110 C   0  0  1  0  0  0  0  0  0  0  0  0
    4.6360   -1.8770    1.9880 O   0  0  0  0  0  0  0  0  0  0  0  0
    3.7550   -3.0150    0.0250 C   0  0  0  0  0  0  0  0  0  0  0  0
    5.5600   -3.2010   -1.6290 O   0  0  0  0  0  0  0  0  0  0  0  0
    6.0490   -1.2990   -0.6900 O   0  0  0  0  0  0  0  0  0  0  0  0
    3.4910    4.1700    0.8530 C   0  0  2  0  0  0  0  0  0  0  0  0
    2.5420    3.2470    0.1080 C   0  0  0  0  0  0  0  0  0  0  0  0
    0.8270    6.2130   -0.5660 O   0  0  0  0  0  0  0  0  0  0  0  0
   -0.9120    5.0310    0.1300 O   0  0  0  0  0  0  0  0  0  0  0  0
   -1.5510   -1.1280    0.1660 C   0  0  1  0  0  0  0  0  0  0  0  0
   -0.0880   -0.7210    0.2440 C   0  0  0  0  0  0  0  0  0  0  0  0
    3.6400   -3.3880   -2.0900 H   0  0  0  0  0  0  0  0  0  0  0  0
    4.7180   -5.4920   -2.3060 H   0  0  0  0  0  0  0  0  0  0  0  0
    4.1850   -7.2120   -0.8920 H   0  0  0  0  0  0  0  0  0  0  0  0
    4.4730   -6.8540    1.4980 H   0  0  0  0  0  0  0  0  0  0  0  0
    3.8020   -5.2470    1.4720 H   0  0  0  0  0  0  0  0  0  0  0  0
    2.2290   -7.7950    0.6540 H   0  0  0  0  0  0  0  0  0  0  0  0
    2.1730   -7.0390    2.2410 H   0  0  0  0  0  0  0  0  0  0  0  0
    1.4170   -4.8510    1.1470 H   0  0  0  0  0  0  0  0  0  0  0  0
    1.4180   -5.6400   -0.4140 H   0  0  0  0  0  0  0  0  0  0  0  0
   -0.1220   -7.2180    1.6900 H   0  0  0  0  0  0  0  0  0  0  0  0
   -3.1440   -5.4850    0.5970 H   0  0  0  0  0  0  0  0  0  0  0  0
   -0.1270   -3.7990   -0.4660 H   0  0  0  0  0  0  0  0  0  0  0  0
   -1.7880   -3.4830   -0.9290 H   0  0  0  0  0  0  0  0  0  0  0  0
   -0.3890   -5.5330   -2.0190 H   0  0  0  0  0  0  0  0  0  0  0  0
   -2.5820   -5.1400   -2.4530 H   0  0  0  0  0  0  0  0  0  0  0  0
   -1.9220   -7.2080    0.0550 H   0  0  0  0  0  0  0  0  0  0  0  0
   -0.8000   -8.2550   -1.8910 H   0  0  0  0  0  0  0  0  0  0  0  0
    0.7700   -7.6060   -1.4270 H   0  0  0  0  0  0  0  0  0  0  0  0
   -0.0380   -8.7760   -0.3870 H   0  0  0  0  0  0  0  0  0  0  0  0
   -1.8500   -3.3810    2.9250 H   0  0  0  0  0  0  0  0  0  0  0  0
    0.3250   -3.4670    2.7040 H   0  0  0  0  0  0  0  0  0  0  0  0
   -1.8880   -1.0830    2.3120 H   0  0  0  0  0  0  0  0  0  0  0  0
   -4.0810   -0.3370    2.1370 H   0  0  0  0  0  0  0  0  0  0  0  0
   -5.7730   -2.3390    2.0580 H   0  0  0  0  0  0  0  0  0  0  0  0
   -6.3320   -0.7150    1.6810 H   0  0  0  0  0  0  0  0  0  0  0  0
   -5.9970   -3.4940   -1.5650 H   0  0  0  0  0  0  0  0  0  0  0  0
   -4.7760   -3.6310   -0.2340 H   0  0  0  0  0  0  0  0  0  0  0  0
   -7.2310   -1.1340   -1.6650 H   0  0  0  0  0  0  0  0  0  0  0  0
   -7.5860   -0.3920   -0.1250 H   0  0  0  0  0  0  0  0  0  0  0  0
   -8.5220   -2.9040    0.5360 H   0  0  0  0  0  0  0  0  0  0  0  0
   -8.7530   -2.8920   -2.2490 H   0  0  0  0  0  0  0  0  0  0  0  0
  -10.1500   -1.0370   -1.3990 H   0  0  0  0  0  0  0  0  0  0  0  0
  -10.2880   -1.6960    1.6420 H   0  0  0  0  0  0  0  0  0  0  0  0
  -12.5880   -0.9790    2.5950 H   0  0  0  0  0  0  0  0  0  0  0  0
  -13.5430    0.2500    1.6580 H   0  0  0  0  0  0  0  0  0  0  0  0
   -4.1460   -0.8870   -0.9500 H   0  0  0  0  0  0  0  0  0  0  0  0
   -4.7800    1.2230   -0.9260 H   0  0  0  0  0  0  0  0  0  0  0  0
   -2.2170    0.8820    0.7730 H   0  0  0  0  0  0  0  0  0  0  0  0
   -0.5070    2.4970    0.0670 H   0  0  0  0  0  0  0  0  0  0  0  0
   -2.2260    2.8180    0.3240 H   0  0  0  0  0  0  0  0  0  0  0  0
   -0.3950    4.2640   -1.7490 H   0  0  0  0  0  0  0  0  0  0  0  0
   -2.5210    4.5500   -2.7360 H   0  0  0  0  0  0  0  0  0  0  0  0
   -3.4270    4.2750   -1.2680 H   0  0  0  0  0  0  0  0  0  0  0  0
   -3.2420    6.5080   -0.4710 H   0  0  0  0  0  0  0  0  0  0  0  0
   -3.0490    6.7980   -3.2460 H   0  0  0  0  0  0  0  0  0  0  0  0
   -1.3480    8.0570   -1.2460 H   0  0  0  0  0  0  0  0  0  0  0  0
   -0.7330    6.8040   -2.3080 H   0  0  0  0  0  0  0  0  0  0  0  0
   -1.7920    7.4140    1.2420 H   0  0  0  0  0  0  0  0  0  0  0  0
   -0.5820    6.4470    2.0260 H   0  0  0  0  0  0  0  0  0  0  0  0
    0.1380   10.4920    0.7140 H   0  0  0  0  0  0  0  0  0  0  0  0
   -0.8350    9.4380   -0.3370 H   0  0  0  0  0  0  0  0  0  0  0  0
   -1.4160    9.8830    1.2760 H   0  0  0  0  0  0  0  0  0  0  0  0
    0.8670    7.9770    3.0460 H   0  0  0  0  0  0  0  0  0  0  0  0
    2.3770    8.5950    1.1920 H   0  0  0  0  0  0  0  0  0  0  0  0
    1.5950    8.6990   -0.3660 H   0  0  0  0  0  0  0  0  0  0  0  0
    1.7070    6.0940    1.3350 H   0  0  0  0  0  0  0  0  0  0  0  0
    3.4560    7.1620   -1.0030 H   0  0  0  0  0  0  0  0  0  0  0  0
    5.1220    4.8320   -1.7440 H   0  0  0  0  0  0  0  0  0  0  0  0
    5.9040    5.8380   -0.4870 H   0  0  0  0  0  0  0  0  0  0  0  0
    5.3650    4.1410    1.9690 H   0  0  0  0  0  0  0  0  0  0  0  0
    3.9780    1.8120    1.9600 H   0  0  0  0  0  0  0  0  0  0  0  0
    5.9210    2.2650    3.3790 H   0  0  0  0  0  0  0  0  0  0  0  0
    6.1370    0.6900    2.6340 H   0  0  0  0  0  0  0  0  0  0  0  0
    7.0570    2.0880    2.0460 H   0  0  0  0  0  0  0  0  0  0  0  0
    6.3110    1.1070   -1.5500 H   0  0  0  0  0  0  0  0  0  0  0  0
    7.1370    1.7750   -0.1530 H   0  0  0  0  0  0  0  0  0  0  0  0
    6.9560   -0.5440    1.0250 H   0  0  0  0  0  0  0  0  0  0  0  0
    8.4380   -0.2920   -1.7000 H   0  0  0  0  0  0  0  0  0  0  0  0
    9.0600    0.1430   -0.1150 H   0  0  0  0  0  0  0  0  0  0  0  0
    8.8270   -2.2690    0.6830 H   0  0  0  0  0  0  0  0  0  0  0  0
   11.2140   -2.7190    0.6690 H   0  0  0  0  0  0  0  0  0  0  0  0
   11.1800   -0.9790    0.2660 H   0  0  0  0  0  0  0  0  0  0  0  0
   12.0420   -2.1280   -0.8020 H   0  0  0  0  0  0  0  0  0  0  0  0
    7.9000   -2.7420   -2.2600 H   0  0  0  0  0  0  0  0  0  0  0  0
    8.1020   -3.9910   -1.0470 H   0  0  0  0  0  0  0  0  0  0  0  0
    6.3570   -4.3620    0.6840 H   0  0  0  0  0  0  0  0  0  0  0  0
    6.8930   -2.8920    1.4810 H   0  0  0  0  0  0  0  0  0  0  0  0
    4.4480   -3.8230    1.9570 H   0  0  0  0  0  0  0  0  0  0  0  0
    4.6430   -1.1040    1.4140 H   0  0  0  0  0  0  0  0  0  0  0  0
    2.7800   -3.4660    0.3030 H   0  0  0  0  0  0  0  0  0  0  0  0
    3.4860   -1.9660   -0.2480 H   0  0  0  0  0  0  0  0  0  0  0  0
    3.0310    4.4920    1.8180 H   0  0  0  0  0  0  0  0  0  0  0  0
    2.2590    2.3590    0.6890 H   0  0  0  0  0  0  0  0  0  0  0  0
    2.9650    2.8960   -0.8450 H   0  0  0  0  0  0  0  0  0  0  0  0
    1.6050    3.7680   -0.1430 H   0  0  0  0  0  0  0  0  0  0  0  0
   -1.7080   -1.8130   -0.7080 H   0  0  0  0  0  0  0  0  0  0  0  0
    0.1780   -0.2690    1.2110 H   0  0  0  0  0  0  0  0  0  0  0  0
    0.5980   -1.5680    0.0950 H   0  0  0  0  0  0  0  0  0  0  0  0
    0.1860    0.0080   -0.5340 H   0  0  0  0  0  0  0  0  0  0  0  0
  1 80  1  6
  1 72  1  0
  1  2  1  0
  1 71  1  0
  2 81  1  0
  2  3  2  0
  3 82  1  0
  3  4  1  0
  4  5  1  0
  4 84  1  0
  4 83  1  0
  5 85  1  0
  5  6  1  0
  5 86  1  0
  6 88  1  0
  6  7  1  0
  6 87  1  0
  7 14  1  0
  7 89  1  1
  7  8  1  0
  8  9  1  0
  9 11  1  0
  9 10  1  6
  9 16  1  0
 10 90  1  0
 11 12  1  0
 11 92  1  0
 11 91  1  0
 12 93  1  6
 12 13  1  0
 12 14  1  0
 13 94  1  0
 14 15  1  0
 14 95  1  1
 15 96  1  0
 15 97  1  0
 15 98  1  0
 16 18  1  0
 16 17  1  0
 16 99  1  1
 17100  1  0
 18 78  1  0
 18 19  1  0
 18101  1  1
 19 20  1  0
 20 32  1  0
 20 21  1  0
 20102  1  1
 21 22  1  0
 21104  1  0
 21103  1  0
 22 23  2  0
 22 24  1  0
 23105  1  0
 23106  1  0
 24107  1  0
 24 25  1  0
 24108  1  0
 25 26  1  0
 25 27  1  0
 25109  1  1
 26110  1  0
 27111  1  0
 27 28  2  0
 28 29  1  0
 28112  1  0
 29 31  1  0
 29 30  2  0
 30114  1  0
 30113  1  0
 32115  1  6
 32 34  1  0
 32 33  1  0
 33116  1  0
 34 35  1  0
 34 78  1  0
 34117  1  1
 35 36  1  0
 36 37  2  0
 36 38  1  0
 38 39  1  0
 38118  1  0
 38119  1  0
 39120  1  6
 39 40  1  0
 39 77  1  0
 40121  1  0
 40 41  1  0
 40122  1  0
 41 42  1  0
 41 43  1  0
 41123  1  1
 42124  1  0
 43126  1  0
 43125  1  0
 44 43  1  6
 44 76  1  0
 44 77  1  0
 44 45  1  0
 45127  1  0
 45 46  1  0
 45128  1  0
 46 49  1  0
 46 47  1  0
 46 48  1  1
 47130  1  0
 47129  1  0
 47131  1  0
 48132  1  0
 49134  1  0
 49 50  1  0
 49133  1  0
 50 76  1  0
 50 51  1  0
 50135  1  1
 51136  1  0
 51 52  2  0
 52 53  1  0
 52 74  1  0
 53137  1  0
 53138  1  0
 53 54  1  0
 54 55  1  0
 55 74  1  0
 55 56  1  0
 55139  1  1
 56 58  1  0
 56140  1  1
 56 57  1  0
 57143  1  0
 57142  1  0
 57141  1  0
 58 60  1  0
 58 59  2  0
 60144  1  0
 60145  1  0
 60 61  1  0
 61 73  1  0
 61 62  1  0
 61146  1  1
 62147  1  0
 62 63  1  0
 62148  1  0
 63 66  1  0
 63 64  1  0
 63149  1  1
 64 65  1  0
 65152  1  0
 65151  1  0
 65150  1  0
 66153  1  0
 66154  1  0
 67 66  1  6
 67 72  1  0
 67 73  1  0
 67 68  1  0
 68155  1  0
 68 69  1  0
 68156  1  0
 69 71  1  0
 69157  1  1
 69 70  1  0
 70158  1  0
 71160  1  0
 71159  1  0
 74 75  1  0
 74161  1  1
 75163  1  0
 75164  1  0
 75162  1  0
 78165  1  6
 78 79  1  0
 79168  1  0
 79167  1  0
 79166  1  0
M  END
>  <id>  (113) 
213

>  <scaffolds>  (113) 
['C1CCOCC1', 'O=C1CC2CC(=CC3CCCC4(CCCC(CC(=O)OC5CCOC(C5)CC5CCCC(CCCC=CC6CCCC7(CCCC(C1)O7)O6)O5)O4)O3)CO2']

>  <name>  (113) 
Spongiostatin 5

>  <formula>  (113) 
C59H89ClO19

>  <SMILES>  (113) 
[H][C@]23C=CCCC[C@@]1([H])O[C@](O)(C[C@H](O)[C@H]1C)[C@@H](O)[C@@H]8O[C@H](CC(=C)C[C@H](O)/C=C/C(=C)Cl)[C@@H](O)[C@H](OC(=O)C[C@@]7([H])C[C@H](O)C[C@@]6(C[C@@](C)(O)C[C@]([H])(C=C5CO[C@H]([C@H](C)C(=O)C[C@]4([H])C[C@H](OC)C[C@](C[C@@H](O)C2)(O3)O4)C5C)O6)O7)C8C

>  <ChEMBL_id>  (113) 


>  <ZINC_id>  (113) 


>  <PubChem_id>  (113) 
 9833430

>  <DrugBank_id>  (113) 


>  <CAS_no>  (113) 
153698-80-7

>  <references>  (113) 
[{'journal': {'name': 'Journal of the Chemical Society, Chemical Communications', 'id': 8}, 'title': 'Isolation and structure of the powerful human cancer cell growth inhibitors spongistatins 4 and 5 from an African Spirastrella spinispirulifera (Porifera)', 'year': 1993, 'start_page': 1805, 'volume': None, 'issue': 24, 'doi': '10.1039/C39930001805', 'isbn': '', 'despositor': {'code': 'TMM', 'first_name': 'Thommas', 'last_name': 'Musyoka', 'id': 22}, 'refauthors_set': [{'author': {'first_name': 'George', 'initials': 'GR', 'last_name': 'Pettit', 'id': 478}, 'first_author': True, 'id': 633}, {'author': {'first_name': '', 'initials': 'LH', 'last_name': 'Cherry', 'id': 493}, 'first_author': False, 'id': 655}, {'author': {'first_name': '', 'initials': 'AC', 'last_name': 'Zbigniew', 'id': 494}, 'first_author': False, 'id': 656}, {'author': {'first_name': '', 'initials': 'G', 'last_name': 'Feng', 'id': 496}, 'first_author': False, 'id': 657}, {'author': {'first_name': '', 'initials': 'MS', 'last_name': 'Jean', 'id': 499}, 'first_author': False, 'id': 658}, {'author': {'first_name': '', 'initials': 'RB', 'last_name': 'Michael', 'id': 501}, 'first_author': False, 'id': 659}, {'author': {'first_name': '', 'initials': 'DC', 'last_name': 'Nigel', 'id': 502}, 'first_author': False, 'id': 660}, {'author': {'first_name': '', 'initials': 'EB', 'last_name': 'Fred', 'id': 503}, 'first_author': False, 'id': 661}], 'id': 239}]

>  <classifications>  (113) 
[{'classification': 'Polyketide', 'id': 810}, {'classification': 'Organooxygen compounds (Classyfire)', 'id': 954}]

>  <molecular_mass>  (113) 
1137.78

$$$$
SANC00214_minRM1.pdb
     RDKit          3D

 28 27  0  0  1  0  0  0  0  0999 V2000
   -2.8440   -1.4160   -1.5390 C   0  0  0  0  0  0  0  0  0  0  0  0
   -2.0990   -0.5940   -0.5160 C   0  0  1  0  0  0  0  0  0  0  0  0
   -2.4190   -1.4220    1.1220 Cl  0  0  0  0  0  0  0  0  0  0  0  0
   -0.6350   -0.5870   -0.7860 C   0  0  0  0  0  0  0  0  0  0  0  0
    0.2560   -1.2860   -0.0880 C   0  0  0  0  0  0  0  0  0  0  0  0
    1.6990   -1.2080   -0.4190 C   0  0  2  0  0  0  0  0  0  0  0  0
    1.9160   -1.2000   -1.5110 H   0  0  0  0  0  0  0  0  0  0  0  0
    2.4710   -2.7760    0.2210 Cl  0  0  0  0  0  0  0  0  0  0  0  0
    2.4140   -0.1010    0.3270 C   0  0  2  0  0  0  0  0  0  0  0  0
    2.1300   -0.0500    1.8040 C   0  0  0  0  0  0  0  0  0  0  0  0
    1.6230    1.4460   -0.4080 Cl  0  0  0  0  0  0  0  0  0  0  0  0
    3.8610   -0.0350    0.0160 C   0  0  0  0  0  0  0  0  0  0  0  0
    4.5160    1.1180   -0.0090 C   0  0  0  0  0  0  0  0  0  0  0  0
    6.2180    1.0940   -0.3340 Cl  0  0  0  0  0  0  0  0  0  0  0  0
   -2.5950    0.8170   -0.3450 C   0  0  0  0  0  0  0  0  0  0  0  0
   -4.5740    0.8380   -0.0270 Br  0  0  0  0  0  0  0  0  0  0  0  0
   -3.9060   -1.5450   -1.2750 H   0  0  0  0  0  0  0  0  0  0  0  0
   -2.8110   -0.9500   -2.5360 H   0  0  0  0  0  0  0  0  0  0  0  0
   -2.4210   -2.4270   -1.6350 H   0  0  0  0  0  0  0  0  0  0  0  0
   -0.3340    0.0530   -1.6270 H   0  0  0  0  0  0  0  0  0  0  0  0
   -0.0120   -1.9440    0.7520 H   0  0  0  0  0  0  0  0  0  0  0  0
    2.4530   -0.9810    2.2990 H   0  0  0  0  0  0  0  0  0  0  0  0
    2.6590    0.7810    2.2940 H   0  0  0  0  0  0  0  0  0  0  0  0
    1.0600    0.0820    2.0230 H   0  0  0  0  0  0  0  0  0  0  0  0
    4.3630   -0.9980   -0.1570 H   0  0  0  0  0  0  0  0  0  0  0  0
    4.1070    2.1190    0.1410 H   0  0  0  0  0  0  0  0  0  0  0  0
   -2.1610    1.3250    0.5290 H   0  0  0  0  0  0  0  0  0  0  0  0
   -2.4490    1.4420   -1.2380 H   0  0  0  0  0  0  0  0  0  0  0  0
  1 18  1  0
  1 19  1  0
  1 17  1  0
  1  2  1  0
  2  4  1  0
  2 15  1  0
  2  3  1  1
  4 20  1  0
  4  5  2  0
  5  6  1  0
  5 21  1  0
  6  7  1  6
  6  8  1  0
  6  9  1  0
  9 11  1  6
  9 12  1  0
  9 10  1  0
 10 24  1  0
 10 23  1  0
 10 22  1  0
 12 25  1  0
 12 13  2  0
 13 14  1  0
 13 26  1  0
 15 28  1  0
 15 16  1  0
 15 27  1  0
M  END
>  <id>  (114) 
214

>  <scaffolds>  (114) 
[]

>  <name>  (114) 
1,5-Octadiene, 8-bromo-1,3,4,7-tetrachloro-3,7-dimethyl-, (1E,3R,4S,5E)-rel-

>  <formula>  (114) 
C10H13BrCl4

>  <SMILES>  (114) 
CC(Cl)(/C=C/[C@H](Cl)[C@](C)(Cl)/C=C/Cl)CBr

>  <ChEMBL_id>  (114) 


>  <ZINC_id>  (114) 


>  <PubChem_id>  (114) 


>  <DrugBank_id>  (114) 


>  <CAS_no>  (114) 
861403-70-5

>  <references>  (114) 
[{'journal': {'name': 'Phytochemistry', 'id': 10}, 'title': 'Plocoralides A-C, polyhalogenated monoterpenes from the marine alga Plocamium corallorhiza', 'year': 2005, 'start_page': 1108, 'volume': 66, 'issue': 10, 'doi': '10.1016/j.phytochem.2005.03.029', 'isbn': '', 'despositor': {'code': 'DLP', 'first_name': 'David', 'last_name': 'Penkler', 'id': 23}, 'refauthors_set': [{'author': {'first_name': 'Michael', 'initials': 'MG', 'last_name': 'Knott', 'id': 504}, 'first_author': True, 'id': 662}, {'author': {'first_name': 'Henry', 'initials': 'HB', 'last_name': 'Mkwananzi', 'id': 495}, 'first_author': False, 'id': 663}, {'author': {'first_name': 'Catherine', 'initials': 'CE', 'last_name': 'Arendse', 'id': 505}, 'first_author': False, 'id': 664}, {'author': {'first_name': 'Denver', 'initials': 'DT', 'last_name': 'Hendricks', 'id': 498}, 'first_author': False, 'id': 665}, {'author': {'first_name': 'John', 'initials': 'JJ', 'last_name': 'Bolton', 'id': 500}, 'first_author': False, 'id': 666}, {'author': {'first_name': 'Denzil', 'initials': 'DR', 'last_name': 'Beukes', 'id': 453}, 'first_author': False, 'id': 667}], 'id': 252}]

>  <classifications>  (114) 
[{'classification': 'Monoterpene', 'id': 795}, {'classification': 'Terpenoid', 'id': 839}, {'classification': 'Vinyl halides (Classyfire)', 'id': 960}]

>  <molecular_mass>  (114) 
354.93

$$$$
SANC00215_minRM1.pdb
     RDKit          3D

 28 27  0  0  1  0  0  0  0  0999 V2000
   -3.2590   -1.4360   -1.6100 C   0  0  0  0  0  0  0  0  0  0  0  0
   -2.4190   -0.6640   -0.6250 C   0  0  1  0  0  0  0  0  0  0  0  0
   -2.6760   -1.5050    1.0190 Cl  0  0  0  0  0  0  0  0  0  0  0  0
   -0.9620   -0.7270   -0.9190 C   0  0  0  0  0  0  0  0  0  0  0  0
   -0.0480   -0.5220    0.0290 C   0  0  0  0  0  0  0  0  0  0  0  0
    1.3970   -0.5390   -0.2750 C   0  0  2  0  0  0  0  0  0  0  0  0
    1.6370   -0.5030   -1.3590 H   0  0  0  0  0  0  0  0  0  0  0  0
    2.0650   -2.3710    0.2830 Br  0  0  0  0  0  0  0  0  0  0  0  0
    2.1880    0.4820    0.5070 C   0  0  2  0  0  0  0  0  0  0  0  0
    2.0900    0.4040    2.0080 C   0  0  0  0  0  0  0  0  0  0  0  0
    1.2950    2.0760    0.0300 Cl  0  0  0  0  0  0  0  0  0  0  0  0
    3.5910    0.6050    0.0450 C   0  0  0  0  0  0  0  0  0  0  0  0
    4.2090    1.7760   -0.0290 C   0  0  0  0  0  0  0  0  0  0  0  0
    5.8670    1.8020   -0.5370 Cl  0  0  0  0  0  0  0  0  0  0  0  0
   -2.8260    0.7700   -0.4260 C   0  0  0  0  0  0  0  0  0  0  0  0
   -4.7870    0.9050   -0.0320 Br  0  0  0  0  0  0  0  0  0  0  0  0
   -4.3060   -1.5260   -1.2800 H   0  0  0  0  0  0  0  0  0  0  0  0
   -3.2700   -0.9550   -2.6000 H   0  0  0  0  0  0  0  0  0  0  0  0
   -2.8860   -2.4620   -1.7460 H   0  0  0  0  0  0  0  0  0  0  0  0
   -0.6970   -0.9340   -1.9630 H   0  0  0  0  0  0  0  0  0  0  0  0
   -0.3350   -0.3550    1.0780 H   0  0  0  0  0  0  0  0  0  0  0  0
    2.5830   -0.5000    2.3990 H   0  0  0  0  0  0  0  0  0  0  0  0
    2.5730    1.2690    2.4890 H   0  0  0  0  0  0  0  0  0  0  0  0
    1.0490    0.3860    2.3670 H   0  0  0  0  0  0  0  0  0  0  0  0
    4.1000   -0.3370   -0.2010 H   0  0  0  0  0  0  0  0  0  0  0  0
    3.7960    2.7640    0.1850 H   0  0  0  0  0  0  0  0  0  0  0  0
   -2.3300    1.2520    0.4310 H   0  0  0  0  0  0  0  0  0  0  0  0
   -2.6760    1.3880   -1.3240 H   0  0  0  0  0  0  0  0  0  0  0  0
  1 18  1  0
  1 19  1  0
  1 17  1  0
  1  2  1  0
  2  4  1  0
  2 15  1  0
  2  3  1  1
  4 20  1  0
  4  5  2  0
  5  6  1  0
  5 21  1  0
  6  7  1  6
  6  8  1  0
  6  9  1  0
  9 11  1  6
  9 12  1  0
  9 10  1  0
 10 24  1  0
 10 22  1  0
 10 23  1  0
 12 25  1  0
 12 13  2  0
 13 14  1  0
 13 26  1  0
 15 28  1  0
 15 16  1  0
 15 27  1  0
M  END
>  <id>  (115) 
215

>  <scaffolds>  (115) 
[]

>  <name>  (115) 
1,5-Octadiene, 4,8-dibromo-1,3,7-trichloro-3,7-dimethyl-, (1E,3R,4S,5E)-rel-

>  <formula>  (115) 
C10H13Br2Cl3

>  <SMILES>  (115) 
CC(Cl)(/C=C/[C@H](Br)[C@](C)(Cl)/C=C/Cl)CBr

>  <ChEMBL_id>  (115) 


>  <ZINC_id>  (115) 


>  <PubChem_id>  (115) 


>  <DrugBank_id>  (115) 


>  <CAS_no>  (115) 
861403-71-6

>  <references>  (115) 
[{'journal': {'name': 'Phytochemistry', 'id': 10}, 'title': 'Plocoralides A-C, polyhalogenated monoterpenes from the marine alga Plocamium corallorhiza', 'year': 2005, 'start_page': 1108, 'volume': 66, 'issue': 10, 'doi': '10.1016/j.phytochem.2005.03.029', 'isbn': '', 'despositor': {'code': 'DLP', 'first_name': 'David', 'last_name': 'Penkler', 'id': 23}, 'refauthors_set': [{'author': {'first_name': 'Michael', 'initials': 'MG', 'last_name': 'Knott', 'id': 504}, 'first_author': True, 'id': 662}, {'author': {'first_name': 'Henry', 'initials': 'HB', 'last_name': 'Mkwananzi', 'id': 495}, 'first_author': False, 'id': 663}, {'author': {'first_name': 'Catherine', 'initials': 'CE', 'last_name': 'Arendse', 'id': 505}, 'first_author': False, 'id': 664}, {'author': {'first_name': 'Denver', 'initials': 'DT', 'last_name': 'Hendricks', 'id': 498}, 'first_author': False, 'id': 665}, {'author': {'first_name': 'John', 'initials': 'JJ', 'last_name': 'Bolton', 'id': 500}, 'first_author': False, 'id': 666}, {'author': {'first_name': 'Denzil', 'initials': 'DR', 'last_name': 'Beukes', 'id': 453}, 'first_author': False, 'id': 667}], 'id': 252}]

>  <classifications>  (115) 
[{'classification': 'Monoterpene', 'id': 795}, {'classification': 'Terpenoid', 'id': 839}, {'classification': 'Vinyl halides (Classyfire)', 'id': 960}]

>  <molecular_mass>  (115) 
399.38

$$$$
SANC00216_minRM1.pdb
     RDKit          3D

 28 27  0  0  1  0  0  0  0  0999 V2000
    2.4810    1.5450    2.2680 C   0  0  0  0  0  0  0  0  0  0  0  0
    2.7230    0.4570    1.2860 C   0  0  0  0  0  0  0  0  0  0  0  0
    1.7310   -0.2530    0.7350 C   0  0  0  0  0  0  0  0  0  0  0  0
    0.3030   -0.0280    1.0920 C   0  0  0  0  0  0  0  0  0  0  0  0
   -0.6350   -0.7210    0.1280 C   0  0  1  0  0  0  0  0  0  0  0  0
   -0.4050   -2.7300    0.3340 Br  0  0  0  0  0  0  0  0  0  0  0  0
   -2.0650   -0.4410    0.4080 C   0  0  0  0  0  0  0  0  0  0  0  0
   -2.6340   -0.9060    1.6980 C   0  0  0  0  0  0  0  0  0  0  0  0
   -2.8010    0.2230   -0.4940 C   0  0  0  0  0  0  0  0  0  0  0  0
   -4.2150    0.5350   -0.2610 C   0  0  1  0  0  0  0  0  0  0  0  0
   -4.2970    1.9410    0.9090 Cl  0  0  0  0  0  0  0  0  0  0  0  0
   -4.9550    1.1350   -1.8010 Cl  0  0  0  0  0  0  0  0  0  0  0  0
    4.1240    0.2030    0.9100 C   0  0  0  0  0  0  0  0  0  0  0  0
    4.6620    1.6870   -0.3620 Br  0  0  0  0  0  0  0  0  0  0  0  0
    1.8230    1.2260    3.0900 H   0  0  0  0  0  0  0  0  0  0  0  0
    3.4020    1.9200    2.7400 H   0  0  0  0  0  0  0  0  0  0  0  0
    2.0060    2.4160    1.7890 H   0  0  0  0  0  0  0  0  0  0  0  0
    1.9380   -1.0480    0.0090 H   0  0  0  0  0  0  0  0  0  0  0  0
    0.1300   -0.3580    2.1400 H   0  0  0  0  0  0  0  0  0  0  0  0
    0.0610    1.0610    1.0950 H   0  0  0  0  0  0  0  0  0  0  0  0
   -0.3480   -0.5640   -0.9340 H   0  0  0  0  0  0  0  0  0  0  0  0
   -1.8930   -1.3410    2.3850 H   0  0  0  0  0  0  0  0  0  0  0  0
   -3.1270   -0.0830    2.2430 H   0  0  0  0  0  0  0  0  0  0  0  0
   -3.3890   -1.6930    1.5400 H   0  0  0  0  0  0  0  0  0  0  0  0
   -2.3870    0.5870   -1.4430 H   0  0  0  0  0  0  0  0  0  0  0  0
   -4.8610   -0.2710    0.1390 H   0  0  0  0  0  0  0  0  0  0  0  0
    4.8480    0.2720    1.7340 H   0  0  0  0  0  0  0  0  0  0  0  0
    4.3130   -0.7220    0.3480 H   0  0  0  0  0  0  0  0  0  0  0  0
  1  2  1  0
  1 17  1  0
  1 16  1  0
  1 15  1  0
  2  3  2  0
  2 13  1  0
  3 18  1  0
  3  4  1  0
  4  5  1  0
  4 20  1  0
  4 19  1  0
  5 21  1  6
  5  6  1  0
  5  7  1  0
  7  9  2  0
  7  8  1  0
  8 24  1  0
  8 23  1  0
  8 22  1  0
  9 25  1  0
  9 10  1  0
 10 12  1  0
 10 26  1  1
 10 11  1  0
 13 14  1  0
 13 28  1  0
 13 27  1  0
M  END
>  <id>  (116) 
216

>  <scaffolds>  (116) 
[]

>  <name>  (116) 
Plocoralide A

>  <formula>  (116) 
C10H14Br2Cl2

>  <SMILES>  (116) 
C/C(=C\CC(Br)/C(C)=C/C(Cl)Cl)CBr

>  <ChEMBL_id>  (116) 


>  <ZINC_id>  (116) 


>  <PubChem_id>  (116) 


>  <DrugBank_id>  (116) 


>  <CAS_no>  (116) 
861959-25-3

>  <references>  (116) 
[{'journal': {'name': 'Phytochemistry', 'id': 10}, 'title': 'Plocoralides A-C, polyhalogenated monoterpenes from the marine alga Plocamium corallorhiza', 'year': 2005, 'start_page': 1108, 'volume': 66, 'issue': 10, 'doi': '10.1016/j.phytochem.2005.03.029', 'isbn': '', 'despositor': {'code': 'DLP', 'first_name': 'David', 'last_name': 'Penkler', 'id': 23}, 'refauthors_set': [{'author': {'first_name': 'Michael', 'initials': 'MG', 'last_name': 'Knott', 'id': 504}, 'first_author': True, 'id': 662}, {'author': {'first_name': 'Henry', 'initials': 'HB', 'last_name': 'Mkwananzi', 'id': 495}, 'first_author': False, 'id': 663}, {'author': {'first_name': 'Catherine', 'initials': 'CE', 'last_name': 'Arendse', 'id': 505}, 'first_author': False, 'id': 664}, {'author': {'first_name': 'Denver', 'initials': 'DT', 'last_name': 'Hendricks', 'id': 498}, 'first_author': False, 'id': 665}, {'author': {'first_name': 'John', 'initials': 'JJ', 'last_name': 'Bolton', 'id': 500}, 'first_author': False, 'id': 666}, {'author': {'first_name': 'Denzil', 'initials': 'DR', 'last_name': 'Beukes', 'id': 453}, 'first_author': False, 'id': 667}], 'id': 252}]

>  <classifications>  (116) 
[{'classification': 'Monoterpene', 'id': 795}, {'classification': 'Plocoralide', 'id': 809}, {'classification': 'Terpenoid', 'id': 839}, {'classification': 'Phenol lipids (Classyfire)', 'id': 951}]

>  <molecular_mass>  (116) 
364.93

$$$$
SANC00217_minRM1.pdb
     RDKit          3D

 28 27  0  0  1  0  0  0  0  0999 V2000
    2.1390    0.6690   -2.2350 C   0  0  0  0  0  0  0  0  0  0  0  0
    2.3540   -0.1280   -0.9990 C   0  0  0  0  0  0  0  0  0  0  0  0
    3.2330   -1.1410   -0.9910 C   0  0  0  0  0  0  0  0  0  0  0  0
    3.5280   -1.9570    0.1910 C   0  0  1  0  0  0  0  0  0  0  0  0
    2.2570   -3.2730    0.2740 Cl  0  0  0  0  0  0  0  0  0  0  0  0
    5.1120   -2.7980   -0.0440 Cl  0  0  0  0  0  0  0  0  0  0  0  0
    1.5740    0.2540    0.2020 C   0  0  1  0  0  0  0  0  0  0  0  0
    2.5590    1.8580    0.9810 Br  0  0  0  0  0  0  0  0  0  0  0  0
    0.1970    0.7260   -0.0590 C   0  0  0  0  0  0  0  0  0  0  0  0
   -0.8330    0.2160    0.6160 C   0  0  0  0  0  0  0  0  0  0  0  0
   -2.2450    0.6550    0.4460 C   0  0  1  0  0  0  0  0  0  0  0  0
   -2.6640    1.5970    1.5480 C   0  0  0  0  0  0  0  0  0  0  0  0
   -2.3960    1.6300   -1.1350 Cl  0  0  0  0  0  0  0  0  0  0  0  0
   -3.1400   -0.5410    0.2530 C   0  0  0  0  0  0  0  0  0  0  0  0
   -5.0580    0.0230    0.1260 Br  0  0  0  0  0  0  0  0  0  0  0  0
    1.1760    0.4210   -2.7080 H   0  0  0  0  0  0  0  0  0  0  0  0
    2.1420    1.7520   -2.0310 H   0  0  0  0  0  0  0  0  0  0  0  0
    2.9140    0.5040   -3.0000 H   0  0  0  0  0  0  0  0  0  0  0  0
    3.7820   -1.4280   -1.8990 H   0  0  0  0  0  0  0  0  0  0  0  0
    3.5590   -1.4560    1.1790 H   0  0  0  0  0  0  0  0  0  0  0  0
    1.6250   -0.4860    1.0290 H   0  0  0  0  0  0  0  0  0  0  0  0
    0.0690    1.5220   -0.8060 H   0  0  0  0  0  0  0  0  0  0  0  0
   -0.7000   -0.5600    1.3810 H   0  0  0  0  0  0  0  0  0  0  0  0
   -1.9550    2.4310    1.6610 H   0  0  0  0  0  0  0  0  0  0  0  0
   -3.6510    2.0470    1.3580 H   0  0  0  0  0  0  0  0  0  0  0  0
   -2.7220    1.0830    2.5200 H   0  0  0  0  0  0  0  0  0  0  0  0
   -2.9400   -1.0830   -0.6830 H   0  0  0  0  0  0  0  0  0  0  0  0
   -3.1140   -1.2480    1.0960 H   0  0  0  0  0  0  0  0  0  0  0  0
  1 18  1  0
  1 16  1  0
  1 17  1  0
  1  2  1  0
  2  3  2  0
  2  7  1  0
  3 19  1  0
  3  4  1  0
  4  6  1  0
  4  5  1  0
  4 20  1  1
  7  9  1  0
  7  8  1  0
  7 21  1  1
  9 22  1  0
  9 10  2  0
 10 11  1  0
 10 23  1  0
 11 13  1  6
 11 14  1  0
 11 12  1  0
 12 25  1  0
 12 24  1  0
 12 26  1  0
 14 27  1  0
 14 15  1  0
 14 28  1  0
M  END
>  <id>  (117) 
217

>  <scaffolds>  (117) 
[]

>  <name>  (117) 
Plocoralide C

>  <formula>  (117) 
C10H13Br2Cl3

>  <SMILES>  (117) 
C/C(=C/C(Cl)Cl)C(Br)/C=C/C(C)(Cl)CBr

>  <ChEMBL_id>  (117) 


>  <ZINC_id>  (117) 


>  <PubChem_id>  (117) 


>  <DrugBank_id>  (117) 


>  <CAS_no>  (117) 
861959-27-5

>  <references>  (117) 
[{'journal': {'name': 'Phytochemistry', 'id': 10}, 'title': 'Plocoralides A-C, polyhalogenated monoterpenes from the marine alga Plocamium corallorhiza', 'year': 2005, 'start_page': 1108, 'volume': 66, 'issue': 10, 'doi': '10.1016/j.phytochem.2005.03.029', 'isbn': '', 'despositor': {'code': 'DLP', 'first_name': 'David', 'last_name': 'Penkler', 'id': 23}, 'refauthors_set': [{'author': {'first_name': 'Michael', 'initials': 'MG', 'last_name': 'Knott', 'id': 504}, 'first_author': True, 'id': 662}, {'author': {'first_name': 'Henry', 'initials': 'HB', 'last_name': 'Mkwananzi', 'id': 495}, 'first_author': False, 'id': 663}, {'author': {'first_name': 'Catherine', 'initials': 'CE', 'last_name': 'Arendse', 'id': 505}, 'first_author': False, 'id': 664}, {'author': {'first_name': 'Denver', 'initials': 'DT', 'last_name': 'Hendricks', 'id': 498}, 'first_author': False, 'id': 665}, {'author': {'first_name': 'John', 'initials': 'JJ', 'last_name': 'Bolton', 'id': 500}, 'first_author': False, 'id': 666}, {'author': {'first_name': 'Denzil', 'initials': 'DR', 'last_name': 'Beukes', 'id': 453}, 'first_author': False, 'id': 667}], 'id': 252}]

>  <classifications>  (117) 
[{'classification': 'Monoterpene', 'id': 795}, {'classification': 'Plocoralide', 'id': 809}, {'classification': 'Terpenoid', 'id': 839}, {'classification': 'Organochlorides (Classyfire)', 'id': 959}]

>  <molecular_mass>  (117) 
399.38

$$$$
SANC00218_minRM1.pdb
     RDKit          3D

 60 67  0  0  1  0  0  0  0  0999 V2000
    0.1000   -0.4400    1.2930 H   0  0  0  0  0  0  0  0  0  0  0  0
   -5.4660   -3.2550    0.6120 C   0  0  0  0  0  0  0  0  0  0  0  0
   -4.3390    1.3080    1.3460 N   0  0  0  0  0  0  0  0  0  0  0  0
   -6.2750    2.5790    0.0470 O   0  0  0  0  0  0  0  0  0  0  0  0
    0.3020   -1.5180   -2.9930 O   0  0  0  0  0  0  0  0  0  0  0  0
    5.4840    2.0480    1.4870 O   0  0  0  0  0  0  0  0  0  0  0  0
   -7.7600    0.9430    0.0910 O   0  0  0  0  0  0  0  0  0  0  0  0
    0.6980    0.6290   -2.4080 C   0  0  0  0  0  0  0  0  0  0  0  0
    5.9420   -2.2040    0.5160 C   0  0  0  0  0  0  0  0  0  0  0  0
   -2.9780   -3.1510    0.9420 C   0  0  0  0  0  0  0  0  0  0  0  0
    3.7840   -3.3250   -0.5440 C   0  0  0  0  0  0  0  0  0  0  0  0
    2.3120   -3.0270   -0.2770 C   0  0  0  0  0  0  0  0  0  0  0  0
   -4.8920   -0.3300   -0.3880 C   0  0  0  0  0  0  0  0  0  0  0  0
    0.5900    2.3040    0.9210 C   0  0  0  0  0  0  0  0  0  0  0  0
   -2.0280   -2.2750    0.7560 N   0  0  0  0  0  0  0  0  0  0  0  0
    2.9210    2.9710    0.7320 N   0  0  0  0  0  0  0  0  0  0  0  0
    6.1980   -0.9220    0.9530 N   0  0  0  0  0  0  0  0  0  0  0  0
    1.3610    3.1650   -1.4490 S   0  0  0  0  0  0  0  0  0  0  0  0
   -1.6690    0.3210   -0.1560 S   0  0  0  0  0  0  0  0  0  0  0  0
   -6.5180    1.4180    0.2770 C   0  0  0  0  0  0  0  0  0  0  0  0
    0.5030   -0.7270   -2.0920 C   0  0  0  0  0  0  0  0  0  0  0  0
    0.9470    1.5040   -1.4100 C   0  0  0  0  0  0  0  0  0  0  0  0
    4.6750   -2.3000    0.1010 C   0  0  0  0  0  0  0  0  0  0  0  0
   -2.5560   -1.1440    0.2580 C   0  0  0  0  0  0  0  0  0  0  0  0
   -3.8900   -1.3300    0.1300 C   0  0  0  0  0  0  0  0  0  0  0  0
    3.2970    1.6330    0.6890 C   0  0  0  0  0  0  0  0  0  0  0  0
    2.3790    0.7130    0.3240 C   0  0  0  0  0  0  0  0  0  0  0  0
    4.6940    1.2370    1.0410 C   0  0  0  0  0  0  0  0  0  0  0  0
    2.7070   -0.6950    0.1230 C   0  0  0  0  0  0  0  0  0  0  0  0
    5.0810   -0.1650    0.8330 C   0  0  0  0  0  0  0  0  0  0  0  0
    4.1210   -1.0400    0.3550 C   0  0  0  0  0  0  0  0  0  0  0  0
   -5.4290    0.5050    0.7760 C   0  0  2  0  0  0  0  0  0  0  0  0
    1.5580    3.3910    0.3570 C   0  0  1  0  0  0  0  0  0  0  0  0
    0.5370   -1.2310   -0.6760 C   0  0  1  0  0  0  0  0  0  0  0  0
   -4.1540   -2.6060    0.5650 N   0  0  0  0  0  0  0  0  0  0  0  0
    1.8960   -1.6270   -0.2750 N   0  0  0  0  0  0  0  0  0  0  0  0
    0.0440   -0.1090    0.2570 C   0  0  1  0  0  0  0  0  0  0  0  0
    0.9400    1.1010    0.0560 C   0  0  1  0  0  0  0  0  0  0  0  0
   -5.9330   -3.0610    1.5780 H   0  0  0  0  0  0  0  0  0  0  0  0
   -6.0970   -2.8560   -0.1830 H   0  0  0  0  0  0  0  0  0  0  0  0
   -5.3450   -4.3290    0.4760 H   0  0  0  0  0  0  0  0  0  0  0  0
   -3.9490    1.9300    0.6540 H   0  0  0  0  0  0  0  0  0  0  0  0
   -4.6530    1.8190    2.1570 H   0  0  0  0  0  0  0  0  0  0  0  0
   -8.4260    1.5670   -0.2300 H   0  0  0  0  0  0  0  0  0  0  0  0
    0.6550    0.9650   -3.4330 H   0  0  0  0  0  0  0  0  0  0  0  0
    6.6590   -3.0120    0.5090 H   0  0  0  0  0  0  0  0  0  0  0  0
   -2.8440   -4.1500    1.3280 H   0  0  0  0  0  0  0  0  0  0  0  0
    4.0260   -4.3110   -0.1450 H   0  0  0  0  0  0  0  0  0  0  0  0
    3.9590   -3.3240   -1.6200 H   0  0  0  0  0  0  0  0  0  0  0  0
    1.7240   -3.5480   -1.0310 H   0  0  0  0  0  0  0  0  0  0  0  0
    2.0560   -3.4520    0.6940 H   0  0  0  0  0  0  0  0  0  0  0  0
   -4.4100    0.3240   -1.1140 H   0  0  0  0  0  0  0  0  0  0  0  0
   -5.7160   -0.8590   -0.8680 H   0  0  0  0  0  0  0  0  0  0  0  0
    0.7990    2.1040    1.9720 H   0  0  0  0  0  0  0  0  0  0  0  0
   -0.4500    2.5980    0.7800 H   0  0  0  0  0  0  0  0  0  0  0  0
    3.5650    3.6380    1.0140 H   0  0  0  0  0  0  0  0  0  0  0  0
    7.0500   -0.6090    1.2970 H   0  0  0  0  0  0  0  0  0  0  0  0
   -5.8320   -0.1570    1.5420 H   0  0  0  0  0  0  0  0  0  0  0  0
    1.3170    4.3970    0.7000 H   0  0  0  0  0  0  0  0  0  0  0  0
   -0.1300   -2.0880   -0.5810 H   0  0  0  0  0  0  0  0  0  0  0  0
  2 40  1  0
  2 41  1  0
  2 35  1  0
  2 39  1  0
  3 42  1  0
  3 32  1  0
  3 43  1  0
  4 20  2  0
  5 21  2  0
  6 28  2  0
  7 44  1  0
  7 20  1  0
  8 45  1  0
  8 21  1  0
  8 22  2  0
  9 23  2  0
  9 46  1  0
  9 17  1  0
 10 35  1  0
 10 15  2  0
 10 47  1  0
 11 49  1  0
 11 12  1  0
 11 48  1  0
 11 23  1  0
 12 50  1  0
 12 36  1  0
 12 51  1  0
 13 52  1  0
 13 53  1  0
 13 25  1  0
 13 32  1  0
 14 38  1  0
 14 33  1  0
 14 55  1  0
 14 54  1  0
 15 24  1  0
 16 33  1  0
 16 26  1  0
 16 56  1  0
 17 30  1  0
 17 57  1  0
 18 22  1  0
 18 33  1  0
 19 37  1  0
 19 24  1  0
 20 32  1  0
 21 34  1  0
 23 31  1  0
 24 25  2  0
 25 35  1  0
 26 27  1  0
 26 28  1  0
 27 38  1  0
 27 29  2  0
 28 30  1  0
 29 36  1  0
 29 31  1  0
 30 31  2  0
 32 58  1  1
 33 59  1  6
 34 60  1  6
 34 36  1  0
 34 37  1  0
 37  1  1  1
 37 38  1  0
 38 22  1  6
M  END
>  <id>  (118) 
218

>  <scaffolds>  (118) 
['C1=CCCCC1', 'O=C1C=CCCC1', 'C1=NCCCC1']

>  <name>  (118) 
Discorhabdine H

>  <formula>  (118) 
C25H23N6O4S2

>  <SMILES>  (118) 
Cn8cnc(SC1[C@@H]4C(=O)C=C2S[C@@H]3C[C@@]12c5c(N3)c(=O)c7[nH]cc6CC[N+]4=c5c67)c8C[C@H](N)C(=O)O

>  <ChEMBL_id>  (118) 


>  <ZINC_id>  (118) 


>  <PubChem_id>  (118) 


>  <DrugBank_id>  (118) 


>  <CAS_no>  (118) 
721395-11-5

>  <references>  (118) 
[{'journal': {'name': 'Journal of Natural Products', 'id': 5}, 'title': 'Cytotoxic Pyrroloiminoquinones from Four New Species of South African Latrunculid Sponges', 'year': 2004, 'start_page': 1268, 'volume': 67, 'issue': 8, 'doi': '10.1021/np034084b', 'isbn': '', 'despositor': {'code': 'DLP', 'first_name': 'David', 'last_name': 'Penkler', 'id': 23}, 'refauthors_set': [{'author': {'first_name': 'Edith ', 'initials': 'EM', 'last_name': 'Antunes', 'id': 447}, 'first_author': True, 'id': 681}, {'author': {'first_name': 'Denzil', 'initials': 'DR', 'last_name': 'Beukes', 'id': 453}, 'first_author': False, 'id': 682}, {'author': {'first_name': 'Michelle', 'initials': 'M', 'last_name': 'Kelly', 'id': 516}, 'first_author': False, 'id': 683}, {'author': {'first_name': 'Toufiek', 'initials': 'T', 'last_name': 'Samaai', 'id': 517}, 'first_author': False, 'id': 684}, {'author': {'first_name': 'Louis ', 'initials': 'LR', 'last_name': 'Barrows', 'id': 518}, 'first_author': False, 'id': 685}, {'author': {'first_name': 'Kathryn ', 'initials': 'KM', 'last_name': 'Marshall', 'id': 519}, 'first_author': False, 'id': 686}, {'author': {'first_name': 'Catherine ', 'initials': 'C', 'last_name': 'Sincich', 'id': 520}, 'first_author': False, 'id': 687}, {'author': {'first_name': 'Michael', 'initials': 'MT', 'last_name': 'Davies-Coleman', 'id': 449}, 'first_author': False, 'id': 688}], 'id': 253}]

>  <classifications>  (118) 
[{'classification': 'Alkaloid', 'id': 738}, {'classification': 'Discorhabdin', 'id': 770}, {'classification': 'Pyrroloiminoquinone', 'id': 820}, {'classification': 'Carboxylic acids and derivatives (Classyfire)', 'id': 950}]

>  <molecular_mass>  (118) 
535.62

$$$$
SANC00219_minRM1.pdb
     RDKit          3D

 57 61  0  0  1  0  0  0  0  0999 V2000
    4.0010   -0.5780    1.6280 C   0  0  0  0  0  0  0  0  0  0  0  0
    3.4040    0.3800    0.5940 C   0  0  1  0  0  0  0  0  0  0  0  0
    3.7020    1.8300    1.0330 C   0  0  0  0  0  0  0  0  0  0  0  0
    4.2420    2.6990   -0.1020 C   0  0  0  0  0  0  0  0  0  0  0  0
    5.4230    2.0160   -0.7030 C   0  0  0  0  0  0  0  0  0  0  0  0
    5.3240    0.7160   -0.9850 C   0  0  0  0  0  0  0  0  0  0  0  0
    4.0450    0.0600   -0.7310 C   0  0  0  0  0  0  0  0  0  0  0  0
    3.4870   -0.7190   -1.6620 C   0  0  0  0  0  0  0  0  0  0  0  0
    2.1260   -1.3120   -1.5440 C   0  0  0  0  0  0  0  0  0  0  0  0
    1.6330   -1.2460   -0.1030 C   0  0  1  0  0  0  0  0  0  0  0  0
    1.8850    0.1710    0.4370 C   0  0  1  0  0  0  0  0  0  0  0  0
    1.0940    0.3910    1.7230 C   0  0  0  0  0  0  0  0  0  0  0  0
   -0.4200    0.4000    1.4640 C   0  0  0  0  0  0  0  0  0  0  0  0
   -0.8040   -0.4430    0.2460 C   0  0  2  0  0  0  0  0  0  0  0  0
   -0.8170    0.4280   -1.0070 C   0  0  0  0  0  0  0  0  0  0  0  0
   -2.1680   -1.1720    0.3450 C   0  0  1  0  0  0  0  0  0  0  0  0
   -3.3310   -0.2720    0.0970 C   0  0  0  0  0  0  0  0  0  0  0  0
   -3.9280   -0.1350   -1.2010 C   0  0  0  0  0  0  0  0  0  0  0  0
   -4.9650    0.7050   -1.3710 C   0  0  0  0  0  0  0  0  0  0  0  0
   -5.4760    1.4700   -0.2470 C   0  0  0  0  0  0  0  0  0  0  0  0
   -6.3940    2.2670   -0.2330 O   0  0  0  0  0  0  0  0  0  0  0  0
   -4.8800    1.3090    0.9920 O   0  0  0  0  0  0  0  0  0  0  0  0
   -3.8420    0.4560    1.1190 C   0  0  0  0  0  0  0  0  0  0  0  0
   -2.0330   -2.3450   -0.6470 C   0  0  0  0  0  0  0  0  0  0  0  0
   -0.5320   -2.5440   -0.9190 C   0  0  0  0  0  0  0  0  0  0  0  0
    0.1650   -1.6510    0.1240 C   0  0  1  0  0  0  0  0  0  0  0  0
    0.0870   -2.2980    1.3720 O   0  0  0  0  0  0  0  0  0  0  0  0
    5.1010   -0.5510    1.6230 H   0  0  0  0  0  0  0  0  0  0  0  0
    3.6840   -0.3470    2.6540 H   0  0  0  0  0  0  0  0  0  0  0  0
    3.7140   -1.6260    1.4380 H   0  0  0  0  0  0  0  0  0  0  0  0
    2.7970    2.3000    1.4780 H   0  0  0  0  0  0  0  0  0  0  0  0
    4.4390    1.8480    1.8650 H   0  0  0  0  0  0  0  0  0  0  0  0
    3.4660    2.8700   -0.8790 H   0  0  0  0  0  0  0  0  0  0  0  0
    4.4970    3.7120    0.2690 H   0  0  0  0  0  0  0  0  0  0  0  0
    6.3260    2.6000   -0.8870 H   0  0  0  0  0  0  0  0  0  0  0  0
    6.1340    0.1270   -1.4200 H   0  0  0  0  0  0  0  0  0  0  0  0
    4.0100   -0.9280   -2.6020 H   0  0  0  0  0  0  0  0  0  0  0  0
    1.4500   -0.7750   -2.2440 H   0  0  0  0  0  0  0  0  0  0  0  0
    2.1370   -2.3630   -1.9060 H   0  0  0  0  0  0  0  0  0  0  0  0
    2.2880   -1.9610    0.4760 H   0  0  0  0  0  0  0  0  0  0  0  0
    1.5450    0.9330   -0.3170 H   0  0  0  0  0  0  0  0  0  0  0  0
    1.3470   -0.3850    2.4750 H   0  0  0  0  0  0  0  0  0  0  0  0
    1.4010    1.3490    2.2010 H   0  0  0  0  0  0  0  0  0  0  0  0
   -0.9440    0.0380    2.3740 H   0  0  0  0  0  0  0  0  0  0  0  0
   -0.7860    1.4420    1.3450 H   0  0  0  0  0  0  0  0  0  0  0  0
    0.1430    0.9330   -1.2000 H   0  0  0  0  0  0  0  0  0  0  0  0
   -1.0660   -0.1210   -1.9250 H   0  0  0  0  0  0  0  0  0  0  0  0
   -1.5570    1.2400   -0.9300 H   0  0  0  0  0  0  0  0  0  0  0  0
   -2.2910   -1.6030    1.3750 H   0  0  0  0  0  0  0  0  0  0  0  0
   -3.5270   -0.7310   -2.0320 H   0  0  0  0  0  0  0  0  0  0  0  0
   -5.4670    0.8550   -2.3300 H   0  0  0  0  0  0  0  0  0  0  0  0
   -3.4990    0.4590    2.1600 H   0  0  0  0  0  0  0  0  0  0  0  0
   -2.4960   -3.2630   -0.2340 H   0  0  0  0  0  0  0  0  0  0  0  0
   -2.5820   -2.1720   -1.5970 H   0  0  0  0  0  0  0  0  0  0  0  0
   -0.2290   -3.6070   -0.8480 H   0  0  0  0  0  0  0  0  0  0  0  0
   -0.2770   -2.2690   -1.9600 H   0  0  0  0  0  0  0  0  0  0  0  0
    0.5530   -3.1370    1.3070 H   0  0  0  0  0  0  0  0  0  0  0  0
  1 30  1  0
  1 28  1  0
  1 29  1  0
  2  1  1  1
  2  7  1  0
  2 11  1  0
  2  3  1  0
  3  4  1  0
  3 31  1  0
  3 32  1  0
  4 33  1  0
  4  5  1  0
  4 34  1  0
  5  6  2  0
  5 35  1  0
  6 36  1  0
  6  7  1  0
  7  8  2  0
  8 37  1  0
  8  9  1  0
  9 38  1  0
  9 39  1  0
  9 10  1  0
 10 26  1  0
 10 11  1  0
 10 40  1  1
 11 41  1  6
 11 12  1  0
 12 13  1  0
 12 43  1  0
 12 42  1  0
 13 14  1  0
 13 45  1  0
 13 44  1  0
 14 15  1  6
 14 26  1  0
 14 16  1  0
 15 47  1  0
 15 46  1  0
 15 48  1  0
 16 24  1  0
 16 17  1  0
 16 49  1  1
 17 18  1  0
 17 23  2  0
 18 50  1  0
 18 19  2  0
 19 51  1  0
 19 20  1  0
 20 21  2  0
 20 22  1  0
 22 23  1  0
 23 52  1  0
 24 54  1  0
 24 25  1  0
 24 53  1  0
 25 56  1  0
 25 55  1  0
 25 26  1  0
 26 27  1  1
 27 57  1  0
M  END
>  <id>  (119) 
219

>  <scaffolds>  (119) 
['C1=CCCCC1', 'C1=CCC2CCCCC2C1', 'C1CCCCC1', 'C=C1C=CCCC1', 'O=c1ccc(C2CCC3C2CCC2C4CCC=CC4=CCC23)co1']

>  <name>  (119) 
14[beta]-hydroxybufa-3,5,20,22-tetraenolide

>  <formula>  (119) 
C24H30O3

>  <SMILES>  (119) 
CC12CCC=CC1=CCC4C2CCC5(C)C(c3ccc(=O)oc3)CCC45O

>  <ChEMBL_id>  (119) 


>  <ZINC_id>  (119) 


>  <PubChem_id>  (119) 
 11014

>  <DrugBank_id>  (119) 


>  <CAS_no>  (119) 
545-51-7

>  <references>  (119) 
[{'journal': {'name': 'Journal of Pharmacy and Pharmacology', 'id': 11}, 'title': 'Vascular myorelaxing activity of isolates from South African Hyacinthaceae partly mediated by activation of soluble guanylyl cyclase in rat aortic ring preparations', 'year': 2008, 'start_page': 489, 'volume': 60, 'issue': None, 'doi': '10.1211/jpp.60.4.0012', 'isbn': '0022-3573', 'despositor': {'code': 'rah', 'first_name': 'Rowan', 'last_name': 'Hatherley', 'id': 20}, 'refauthors_set': [{'author': {'first_name': 'Fabio', 'initials': 'F', 'last_name': 'Fusi', 'id': 521}, 'first_author': True, 'id': 689}, {'author': {'first_name': 'Antonella', 'initials': 'A', 'last_name': 'Ferrara', 'id': 522}, 'first_author': False, 'id': 690}, {'author': {'first_name': 'Chantal', 'initials': 'C', 'last_name': 'Koorbanally', 'id': 523}, 'first_author': False, 'id': 691}, {'author': {'first_name': 'Neil', 'initials': 'NR', 'last_name': 'Crouch', 'id': 524}, 'first_author': False, 'id': 692}, {'author': {'first_name': 'Dulcie', 'initials': 'DA', 'last_name': 'Mulholland', 'id': 525}, 'first_author': False, 'id': 693}, {'author': {'first_name': 'Giampietro', 'initials': 'G', 'last_name': 'Sgaragli', 'id': 526}, 'first_author': False, 'id': 694}], 'id': 254}, {'journal': {'name': 'Phytochemistry', 'id': 10}, 'title': 'Bufadienolides from Drimia robusta and Urginea epigea (Hyacinthaceae)', 'year': 2004, 'start_page': 3069, 'volume': 65, 'issue': 23, 'doi': '10.1016/j.phytochem.2004.08.051', 'isbn': '', 'despositor': {'code': 'rah', 'first_name': 'Rowan', 'last_name': 'Hatherley', 'id': 20}, 'refauthors_set': [{'author': {'first_name': 'Neil', 'initials': 'NA', 'last_name': 'Koorbanally', 'id': 699}, 'first_author': True, 'id': 971}, {'author': {'first_name': 'Chantal', 'initials': 'C', 'last_name': 'Koorbanally', 'id': 523}, 'first_author': None, 'id': 972}, {'author': {'first_name': 'Avinash', 'initials': 'A', 'last_name': 'Harilal', 'id': 624}, 'first_author': None, 'id': 973}, {'author': {'first_name': 'Dulcie', 'initials': 'DA', 'last_name': 'Mulholland', 'id': 525}, 'first_author': None, 'id': 974}, {'author': {'first_name': 'Neil', 'initials': 'NR', 'last_name': 'Crouch', 'id': 524}, 'first_author': None, 'id': 975}], 'id': 324}]

>  <classifications>  (119) 
[{'classification': 'Bufadienolide', 'id': 752}, {'classification': 'Steroid', 'id': 835}, {'classification': 'Steroids and steroid derivatives (Classyfire)', 'id': 942}]

>  <molecular_mass>  (119) 
366.49

$$$$
SANC00220_minRM1.pdb
     RDKit          3D

121128  0  0  1  0  0  0  0  0999 V2000
   -0.8140    0.4620    2.3330 H   0  0  0  0  0  0  0  0  0  0  0  0
   -1.3880    0.1520    1.4170 C   0  0  2  0  0  0  0  0  0  0  0  0
   -0.6290    0.0760    0.2450 O   0  0  0  0  0  0  0  0  0  0  0  0
    0.6700   -0.4570    0.4030 C   0  0  2  0  0  0  0  0  0  0  0  0
    0.7090   -1.2560    1.1960 H   0  0  0  0  0  0  0  0  0  0  0  0
    1.6180    0.6410    0.7700 C   0  0  0  0  0  0  0  0  0  0  0  0
    2.8470    0.7350    0.2630 C   0  0  0  0  0  0  0  0  0  0  0  0
    3.7320    1.8770    0.6380 C   0  0  0  0  0  0  0  0  0  0  0  0
    5.0910    1.3630    1.0910 C   0  0  0  0  0  0  0  0  0  0  0  0
    5.7170    0.5020   -0.0060 C   0  0  2  0  0  0  0  0  0  0  0  0
    5.7960    1.1150   -0.9480 H   0  0  0  0  0  0  0  0  0  0  0  0
    4.8090   -0.6930   -0.2900 C   0  0  2  0  0  0  0  0  0  0  0  0
    4.6690   -1.2790    0.6560 H   0  0  0  0  0  0  0  0  0  0  0  0
    5.4730   -1.5910   -1.3310 C   0  0  0  0  0  0  0  0  0  0  0  0
    6.8240   -2.0740   -0.8230 C   0  0  0  0  0  0  0  0  0  0  0  0
    7.8050   -0.9240   -0.5600 C   0  0  2  0  0  0  0  0  0  0  0  0
    8.2560   -0.3180   -1.8780 C   0  0  0  0  0  0  0  0  0  0  0  0
    8.9880   -1.4970    0.2640 C   0  0  1  0  0  0  0  0  0  0  0  0
    9.1880   -2.5560   -0.0470 H   0  0  0  0  0  0  0  0  0  0  0  0
   10.2630   -0.7430    0.0690 C   0  0  0  0  0  0  0  0  0  0  0  0
   10.6390    0.3820    0.8790 C   0  0  0  0  0  0  0  0  0  0  0  0
   11.8010    1.0160    0.6300 C   0  0  0  0  0  0  0  0  0  0  0  0
   12.6720    0.5670   -0.4390 C   0  0  0  0  0  0  0  0  0  0  0  0
   13.7480    1.0190   -0.7830 O   0  0  0  0  0  0  0  0  0  0  0  0
   12.2780   -0.5200   -1.1980 O   0  0  0  0  0  0  0  0  0  0  0  0
   11.1040   -1.1250   -0.9240 C   0  0  0  0  0  0  0  0  0  0  0  0
    8.4860   -1.4970    1.7160 C   0  0  0  0  0  0  0  0  0  0  0  0
    7.2730   -0.5650    1.7860 C   0  0  0  0  0  0  0  0  0  0  0  0
    7.1510    0.0980    0.3970 C   0  0  2  0  0  0  0  0  0  0  0  0
    7.9620    1.2380    0.3630 O   0  0  0  0  0  0  0  0  0  0  0  0
    3.4110   -0.2160   -0.7560 C   0  0  2  0  0  0  0  0  0  0  0  0
    3.4850    0.5450   -2.0830 C   0  0  0  0  0  0  0  0  0  0  0  0
    2.5020   -1.4450   -0.9220 C   0  0  0  0  0  0  0  0  0  0  0  0
    1.0330   -1.0510   -0.9630 C   0  0  0  0  0  0  0  0  0  0  0  0
   -1.8180   -1.1320    1.7410 O   0  0  0  0  0  0  0  0  0  0  0  0
   -2.6800   -1.7620    0.8210 C   0  0  1  0  0  0  0  0  0  0  0  0
   -2.1570   -1.9420   -0.1570 H   0  0  0  0  0  0  0  0  0  0  0  0
   -3.0480   -3.0890    1.4780 C   0  0  0  0  0  0  0  0  0  0  0  0
   -3.9440   -0.8920    0.6060 C   0  0  2  0  0  0  0  0  0  0  0  0
   -4.5160   -0.7850    1.5660 H   0  0  0  0  0  0  0  0  0  0  0  0
   -4.6680   -1.5190   -0.4270 O   0  0  0  0  0  0  0  0  0  0  0  0
   -6.0560   -1.5300   -0.2590 C   0  0  2  0  0  0  0  0  0  0  0  0
   -6.4800   -0.5440    0.0860 H   0  0  0  0  0  0  0  0  0  0  0  0
   -6.2700   -2.5670    0.6680 O   0  0  0  0  0  0  0  0  0  0  0  0
   -7.6320   -2.7860    0.9330 C   0  0  2  0  0  0  0  0  0  0  0  0
   -8.1430   -1.8610    1.3160 H   0  0  0  0  0  0  0  0  0  0  0  0
   -7.6500   -3.8910    2.0100 C   0  0  0  0  0  0  0  0  0  0  0  0
   -7.2340   -3.2640    3.1890 O   0  0  0  0  0  0  0  0  0  0  0  0
   -8.3200   -3.2910   -0.3620 C   0  0  1  0  0  0  0  0  0  0  0  0
   -7.8700   -4.2670   -0.6890 H   0  0  0  0  0  0  0  0  0  0  0  0
   -9.6700   -3.4180   -0.0440 O   0  0  0  0  0  0  0  0  0  0  0  0
   -8.1380   -2.2240   -1.4720 C   0  0  2  0  0  0  0  0  0  0  0  0
   -8.6840   -1.2790   -1.2020 H   0  0  0  0  0  0  0  0  0  0  0  0
   -8.6610   -2.8060   -2.6260 O   0  0  0  0  0  0  0  0  0  0  0  0
   -6.6260   -1.9520   -1.6420 C   0  0  1  0  0  0  0  0  0  0  0  0
   -6.1040   -2.8700   -2.0260 H   0  0  0  0  0  0  0  0  0  0  0  0
   -6.5310   -0.8840   -2.5330 O   0  0  0  0  0  0  0  0  0  0  0  0
   -3.4950    0.4880    0.0690 C   0  0  1  0  0  0  0  0  0  0  0  0
   -2.9430    0.3670   -0.9040 H   0  0  0  0  0  0  0  0  0  0  0  0
   -4.6730    1.2420   -0.0630 O   0  0  0  0  0  0  0  0  0  0  0  0
   -4.6540    2.2260   -1.0610 C   0  0  2  0  0  0  0  0  0  0  0  0
   -4.0880    1.9370   -1.9890 H   0  0  0  0  0  0  0  0  0  0  0  0
   -3.9350    3.3180   -0.5910 O   0  0  0  0  0  0  0  0  0  0  0  0
   -4.4950    4.0130    0.4980 C   0  0  1  0  0  0  0  0  0  0  0  0
   -4.5550    3.3560    1.4080 H   0  0  0  0  0  0  0  0  0  0  0  0
   -3.5450    5.1840    0.7470 C   0  0  0  0  0  0  0  0  0  0  0  0
   -5.9020    4.5360    0.1260 C   0  0  2  0  0  0  0  0  0  0  0  0
   -5.8520    5.2400   -0.7470 H   0  0  0  0  0  0  0  0  0  0  0  0
   -6.4350    5.1100    1.2800 O   0  0  0  0  0  0  0  0  0  0  0  0
   -6.7950    3.3230   -0.2180 C   0  0  1  0  0  0  0  0  0  0  0  0
   -6.9110    2.6430    0.6700 H   0  0  0  0  0  0  0  0  0  0  0  0
   -8.0130    3.8740   -0.6080 O   0  0  0  0  0  0  0  0  0  0  0  0
   -6.1460    2.5280   -1.3750 C   0  0  1  0  0  0  0  0  0  0  0  0
   -6.6940    1.5590   -1.5380 H   0  0  0  0  0  0  0  0  0  0  0  0
   -6.2210    3.3610   -2.4920 O   0  0  0  0  0  0  0  0  0  0  0  0
   -2.5500    1.1380    1.1010 C   0  0  1  0  0  0  0  0  0  0  0  0
   -2.1310    2.1000    0.6990 H   0  0  0  0  0  0  0  0  0  0  0  0
   -3.3010    1.3220    2.2600 O   0  0  0  0  0  0  0  0  0  0  0  0
    1.2400    1.3770    1.4870 H   0  0  0  0  0  0  0  0  0  0  0  0
    3.8290    2.5740   -0.2220 H   0  0  0  0  0  0  0  0  0  0  0  0
    3.2850    2.5080    1.4370 H   0  0  0  0  0  0  0  0  0  0  0  0
    5.7580    2.2160    1.3490 H   0  0  0  0  0  0  0  0  0  0  0  0
    4.9790    0.8010    2.0420 H   0  0  0  0  0  0  0  0  0  0  0  0
    4.8400   -2.4760   -1.5560 H   0  0  0  0  0  0  0  0  0  0  0  0
    5.5810   -1.0820   -2.3090 H   0  0  0  0  0  0  0  0  0  0  0  0
    6.6740   -2.6900    0.0890 H   0  0  0  0  0  0  0  0  0  0  0  0
    7.2650   -2.7850   -1.5560 H   0  0  0  0  0  0  0  0  0  0  0  0
    7.4230    0.1150   -2.4500 H   0  0  0  0  0  0  0  0  0  0  0  0
    8.9830    0.4980   -1.7530 H   0  0  0  0  0  0  0  0  0  0  0  0
    8.7350   -1.0650   -2.5280 H   0  0  0  0  0  0  0  0  0  0  0  0
    9.9780    0.7240    1.6820 H   0  0  0  0  0  0  0  0  0  0  0  0
   12.1440    1.8830    1.1990 H   0  0  0  0  0  0  0  0  0  0  0  0
   10.9620   -1.9550   -1.6240 H   0  0  0  0  0  0  0  0  0  0  0  0
    8.2060   -2.5250    2.0290 H   0  0  0  0  0  0  0  0  0  0  0  0
    9.2720   -1.2250    2.4460 H   0  0  0  0  0  0  0  0  0  0  0  0
    6.3600   -1.1310    2.0530 H   0  0  0  0  0  0  0  0  0  0  0  0
    7.3780    0.1800    2.5990 H   0  0  0  0  0  0  0  0  0  0  0  0
    7.5300    1.9300    0.8780 H   0  0  0  0  0  0  0  0  0  0  0  0
    3.5040   -0.1130   -2.9610 H   0  0  0  0  0  0  0  0  0  0  0  0
    2.6240    1.2160   -2.2260 H   0  0  0  0  0  0  0  0  0  0  0  0
    4.3810    1.1810   -2.1550 H   0  0  0  0  0  0  0  0  0  0  0  0
    2.7610   -2.0120   -1.8410 H   0  0  0  0  0  0  0  0  0  0  0  0
    2.6680   -2.1740   -0.1000 H   0  0  0  0  0  0  0  0  0  0  0  0
    0.3880   -1.9260   -1.1880 H   0  0  0  0  0  0  0  0  0  0  0  0
    0.8250   -0.3350   -1.7830 H   0  0  0  0  0  0  0  0  0  0  0  0
   -3.5000   -2.9550    2.4720 H   0  0  0  0  0  0  0  0  0  0  0  0
   -3.7760   -3.6410    0.8650 H   0  0  0  0  0  0  0  0  0  0  0  0
   -2.1690   -3.7380    1.6060 H   0  0  0  0  0  0  0  0  0  0  0  0
   -8.6820   -4.2900    2.1290 H   0  0  0  0  0  0  0  0  0  0  0  0
   -7.0120   -4.7520    1.7140 H   0  0  0  0  0  0  0  0  0  0  0  0
   -6.8770   -3.9420    3.7640 H   0  0  0  0  0  0  0  0  0  0  0  0
  -10.1210   -3.7770   -0.8150 H   0  0  0  0  0  0  0  0  0  0  0  0
   -8.6010   -2.1590   -3.3340 H   0  0  0  0  0  0  0  0  0  0  0  0
   -5.5960   -0.7580   -2.7250 H   0  0  0  0  0  0  0  0  0  0  0  0
   -3.4510    5.8470   -0.1250 H   0  0  0  0  0  0  0  0  0  0  0  0
   -3.8940    5.7970    1.5890 H   0  0  0  0  0  0  0  0  0  0  0  0
   -2.5310    4.8430    0.9880 H   0  0  0  0  0  0  0  0  0  0  0  0
   -6.5570    6.0450    1.0960 H   0  0  0  0  0  0  0  0  0  0  0  0
   -8.5730    3.1560   -0.9230 H   0  0  0  0  0  0  0  0  0  0  0  0
   -6.0070    2.8310   -3.2680 H   0  0  0  0  0  0  0  0  0  0  0  0
   -2.8080    1.9240    2.8300 H   0  0  0  0  0  0  0  0  0  0  0  0
  2  1  1  1
  2  3  1  0
  2 76  1  0
  2 35  1  0
  3  4  1  0
  4 34  1  0
  4  6  1  0
  4  5  1  1
  6  7  2  0
  6 79  1  0
  7 31  1  0
  7  8  1  0
  8 80  1  0
  8  9  1  0
  8 81  1  0
  9 10  1  0
  9 82  1  0
  9 83  1  0
 10 11  1  6
 10 12  1  0
 10 29  1  0
 12 14  1  0
 12 31  1  0
 12 13  1  1
 14 85  1  0
 14 84  1  0
 14 15  1  0
 15 87  1  0
 15 16  1  0
 15 86  1  0
 16 17  1  6
 16 18  1  0
 16 29  1  0
 17 90  1  0
 17 88  1  0
 17 89  1  0
 18 19  1  6
 18 20  1  0
 18 27  1  0
 20 26  2  0
 20 21  1  0
 21 22  2  0
 21 91  1  0
 22 23  1  0
 22 92  1  0
 23 25  1  0
 23 24  2  0
 25 26  1  0
 26 93  1  0
 27 28  1  0
 27 94  1  0
 27 95  1  0
 28 29  1  0
 28 96  1  0
 28 97  1  0
 29 30  1  1
 30 98  1  0
 31 32  1  6
 31 33  1  0
 32 99  1  0
 32100  1  0
 32101  1  0
 33102  1  0
 33 34  1  0
 33103  1  0
 34105  1  0
 34104  1  0
 35 36  1  0
 36 37  1  6
 36 39  1  0
 36 38  1  0
 38107  1  0
 38108  1  0
 38106  1  0
 39 41  1  0
 39 58  1  0
 39 40  1  1
 41 42  1  0
 42 55  1  0
 42 43  1  1
 42 44  1  0
 44 45  1  0
 45 49  1  0
 45 46  1  1
 45 47  1  0
 47110  1  0
 47109  1  0
 47 48  1  0
 48111  1  0
 49 52  1  0
 49 50  1  6
 49 51  1  0
 51112  1  0
 52 54  1  0
 52 55  1  0
 52 53  1  1
 54113  1  0
 55 57  1  0
 55 56  1  6
 57114  1  0
 58 59  1  6
 58 60  1  0
 58 76  1  0
 60 61  1  0
 61 62  1  6
 61 73  1  0
 61 63  1  0
 63 64  1  0
 64 67  1  0
 64 66  1  0
 64 65  1  1
 66115  1  0
 66117  1  0
 66116  1  0
 67 68  1  6
 67 70  1  0
 67 69  1  0
 69118  1  0
 70 73  1  0
 70 72  1  0
 70 71  1  1
 72119  1  0
 73 75  1  0
 73 74  1  6
 75120  1  0
 76 77  1  6
 76 78  1  0
 78121  1  0
M  END
>  <id>  (120) 
220

>  <scaffolds>  (120) 
['C1=CCCCC1', 'C=C1CCC2CCCCC2C1', 'C1CCOCC1', 'C1CCC(C2CCCC2)CC1', 'C1CCCCC1', 'O=c1ccc(C2CCC3C2CCC2C4CCC(OC5CC(OC6CCCCO6)C(OC6CCCCO6)CO5)C=C4CCC23)co1', 'C1=C2CCCCC2CCC1', 'C1CCC(OC2CCCOC2)OC1', 'O=c1ccc(C2CCC3C2CCC2C4CCCC=C4CCC23)co1', 'C1CCC2CCCCC2C1']

>  <name>  (120) 
Urginin

>  <formula>  (120) 
C42H62O17

>  <SMILES>  (120) 
[H][C@@]8(O[C@@H]5C=C4CC[C@]2([H])[C@]([H])(CC[C@]3(C)[C@@H](c1ccc(=O)oc1)CC[C@]23O)[C@@]4(C)CC5)O[C@@H](C)[C@H](O[C@]6([H])O[C@H](CO)[C@@H](O)[C@H](O)[C@H]6O)[C@@H](O[C@]7([H])O[C@@H](C)[C@H](O)[C@@H](O)[C@H]7O)[C@H]8O

>  <ChEMBL_id>  (120) 
CHEMBL2375662

>  <ZINC_id>  (120) 


>  <PubChem_id>  (120) 
 202218

>  <DrugBank_id>  (120) 


>  <CAS_no>  (120) 
8002-35-5

>  <references>  (120) 
[{'journal': {'name': 'Journal of Pharmacy and Pharmacology', 'id': 11}, 'title': 'Vascular myorelaxing activity of isolates from South African Hyacinthaceae partly mediated by activation of soluble guanylyl cyclase in rat aortic ring preparations', 'year': 2008, 'start_page': 489, 'volume': 60, 'issue': None, 'doi': '10.1211/jpp.60.4.0012', 'isbn': '0022-3573', 'despositor': {'code': 'rah', 'first_name': 'Rowan', 'last_name': 'Hatherley', 'id': 20}, 'refauthors_set': [{'author': {'first_name': 'Fabio', 'initials': 'F', 'last_name': 'Fusi', 'id': 521}, 'first_author': True, 'id': 689}, {'author': {'first_name': 'Antonella', 'initials': 'A', 'last_name': 'Ferrara', 'id': 522}, 'first_author': False, 'id': 690}, {'author': {'first_name': 'Chantal', 'initials': 'C', 'last_name': 'Koorbanally', 'id': 523}, 'first_author': False, 'id': 691}, {'author': {'first_name': 'Neil', 'initials': 'NR', 'last_name': 'Crouch', 'id': 524}, 'first_author': False, 'id': 692}, {'author': {'first_name': 'Dulcie', 'initials': 'DA', 'last_name': 'Mulholland', 'id': 525}, 'first_author': False, 'id': 693}, {'author': {'first_name': 'Giampietro', 'initials': 'G', 'last_name': 'Sgaragli', 'id': 526}, 'first_author': False, 'id': 694}], 'id': 254}, {'journal': {'name': 'Phytochemistry', 'id': 10}, 'title': 'Bufadienolides from Drimia robusta and Urginea altissima (Hyacinthaceae)', 'year': 2001, 'start_page': 557, 'volume': 58, 'issue': None, 'doi': '10.1016/S0031-9422(01)00225-4', 'isbn': '', 'despositor': {'code': 'rah', 'first_name': 'Rowan', 'last_name': 'Hatherley', 'id': 20}, 'refauthors_set': [{'author': {'first_name': 'Tracy', 'initials': 'T', 'last_name': 'Pohl', 'id': 698}, 'first_author': True, 'id': 967}, {'author': {'first_name': 'Chantal', 'initials': 'C', 'last_name': 'Koorbanally', 'id': 523}, 'first_author': None, 'id': 968}, {'author': {'first_name': 'Neil', 'initials': 'NR', 'last_name': 'Crouch', 'id': 524}, 'first_author': None, 'id': 969}, {'author': {'first_name': 'Dulcie', 'initials': 'DA', 'last_name': 'Mulholland', 'id': 525}, 'first_author': None, 'id': 970}], 'id': 323}]

>  <classifications>  (120) 
[{'classification': 'Bufadienolide', 'id': 752}, {'classification': 'Steroid', 'id': 835}, {'classification': 'Steroids and steroid derivatives (Classyfire)', 'id': 942}]

>  <molecular_mass>  (120) 
838.93

$$$$
SANC00221_minRM1.pdb
     RDKit          3D

 35 39  0  0  1  0  0  0  0  0999 V2000
    0.8050   -1.9610   -1.3550 O   0  0  0  0  0  0  0  0  0  0  0  0
    0.9120   -1.2440   -0.3650 C   0  0  0  0  0  0  0  0  0  0  0  0
    2.0440   -0.3580   -0.2050 C   0  0  0  0  0  0  0  0  0  0  0  0
    2.9760   -0.1860   -1.2440 C   0  0  0  0  0  0  0  0  0  0  0  0
    2.9000   -0.8660   -2.3920 O   0  0  0  0  0  0  0  0  0  0  0  0
    4.0310    0.7240   -1.1280 C   0  0  0  0  0  0  0  0  0  0  0  0
    4.1350    1.4520    0.0570 C   0  0  0  0  0  0  0  0  0  0  0  0
    5.1080    2.3630    0.2620 O   0  0  0  0  0  0  0  0  0  0  0  0
    3.2480    1.2950    1.1320 C   0  0  0  0  0  0  0  0  0  0  0  0
    2.2160    0.3810    0.9740 C   0  0  0  0  0  0  0  0  0  0  0  0
    1.3470    0.2810    2.0130 O   0  0  0  0  0  0  0  0  0  0  0  0
    0.5630   -0.8910    2.0570 C   0  0  0  0  0  0  0  0  0  0  0  0
   -0.1080   -1.1930    0.7280 C   0  0  2  0  0  0  0  0  0  0  0  0
   -1.1180   -2.4150    0.7940 C   0  0  0  0  0  0  0  0  0  0  0  0
   -2.2020   -1.4250    0.4610 C   0  0  0  0  0  0  0  0  0  0  0  0
   -3.5550   -1.3180    0.2480 C   0  0  0  0  0  0  0  0  0  0  0  0
   -3.9310   -0.0100   -0.0470 C   0  0  0  0  0  0  0  0  0  0  0  0
   -5.2000    0.4300   -0.3270 O   0  0  0  0  0  0  0  0  0  0  0  0
   -5.0910    1.8320   -0.5600 C   0  0  0  0  0  0  0  0  0  0  0  0
   -3.7270    2.2100   -0.4290 O   0  0  0  0  0  0  0  0  0  0  0  0
   -3.0350    1.0690   -0.1140 C   0  0  0  0  0  0  0  0  0  0  0  0
   -1.6630    0.9590    0.1020 C   0  0  0  0  0  0  0  0  0  0  0  0
   -1.3030   -0.3350    0.3940 C   0  0  0  0  0  0  0  0  0  0  0  0
    2.1550   -1.5170   -2.3740 H   0  0  0  0  0  0  0  0  0  0  0  0
    4.7370    0.8430   -1.9520 H   0  0  0  0  0  0  0  0  0  0  0  0
    5.6190    2.4730   -0.5540 H   0  0  0  0  0  0  0  0  0  0  0  0
    3.3620    1.8770    2.0490 H   0  0  0  0  0  0  0  0  0  0  0  0
    1.1810   -1.7550    2.3920 H   0  0  0  0  0  0  0  0  0  0  0  0
   -0.1690   -0.6720    2.8630 H   0  0  0  0  0  0  0  0  0  0  0  0
   -0.9510   -3.2050    0.0470 H   0  0  0  0  0  0  0  0  0  0  0  0
   -1.2030   -2.8990    1.7790 H   0  0  0  0  0  0  0  0  0  0  0  0
   -4.2580   -2.1500    0.2830 H   0  0  0  0  0  0  0  0  0  0  0  0
   -5.4460    2.0590   -1.5880 H   0  0  0  0  0  0  0  0  0  0  0  0
   -5.7160    2.3720    0.1840 H   0  0  0  0  0  0  0  0  0  0  0  0
   -0.9770    1.8020    0.0420 H   0  0  0  0  0  0  0  0  0  0  0  0
  1  2  2  0
  2  3  1  0
  3  4  2  0
  3 10  1  0
  4  5  1  0
  4  6  1  0
  5 24  1  0
  6 25  1  0
  6  7  2  0
  7  8  1  0
  7  9  1  0
  8 26  1  0
  9 10  2  0
  9 27  1  0
 10 11  1  0
 11 12  1  0
 12 13  1  0
 12 28  1  0
 12 29  1  0
 13  2  1  6
 13 23  1  0
 13 14  1  0
 14 30  1  0
 14 15  1  0
 14 31  1  0
 15 16  2  0
 15 23  1  0
 16 17  1  0
 16 32  1  0
 17 18  1  0
 17 21  2  0
 18 19  1  0
 19 33  1  0
 19 20  1  0
 19 34  1  0
 20 21  1  0
 21 22  1  0
 22 35  1  0
 22 23  2  0
M  END
>  <id>  (121) 
221

>  <scaffolds>  (121) 
['c1ccccc1', 'O=C1c2ccccc2OCC1Cc1ccccc1', 'c1ccc(CCc2ccccc2)cc1', 'O=C(CCc1ccccc1)c1ccccc1', 'O=C1c2ccccc2OCC12Cc1ccccc12', 'O=C1c2ccccc2OCC12Cc1cc3c(cc12)OCO3', 'c1ccc2c(c1)OCO2', 'c1ccc(CCOc2ccccc2)cc1']

>  <name>  (121) 
(R)-Scillascillin

>  <formula>  (121) 
C17H12O6

>  <SMILES>  (121) 
O=C2c1c(O)cc(O)cc1OC[C@]25Cc4cc3OCOc3cc45

>  <ChEMBL_id>  (121) 


>  <ZINC_id>  (121) 


>  <PubChem_id>  (121) 


>  <DrugBank_id>  (121) 


>  <CAS_no>  (121) 
52706-07-7

>  <references>  (121) 
[{'journal': {'name': 'Journal of Pharmacy and Pharmacology', 'id': 11}, 'title': 'Vascular myorelaxing activity of isolates from South African Hyacinthaceae partly mediated by activation of soluble guanylyl cyclase in rat aortic ring preparations', 'year': 2008, 'start_page': 489, 'volume': 60, 'issue': None, 'doi': '10.1211/jpp.60.4.0012', 'isbn': '0022-3573', 'despositor': {'code': 'rah', 'first_name': 'Rowan', 'last_name': 'Hatherley', 'id': 20}, 'refauthors_set': [{'author': {'first_name': 'Fabio', 'initials': 'F', 'last_name': 'Fusi', 'id': 521}, 'first_author': True, 'id': 689}, {'author': {'first_name': 'Antonella', 'initials': 'A', 'last_name': 'Ferrara', 'id': 522}, 'first_author': False, 'id': 690}, {'author': {'first_name': 'Chantal', 'initials': 'C', 'last_name': 'Koorbanally', 'id': 523}, 'first_author': False, 'id': 691}, {'author': {'first_name': 'Neil', 'initials': 'NR', 'last_name': 'Crouch', 'id': 524}, 'first_author': False, 'id': 692}, {'author': {'first_name': 'Dulcie', 'initials': 'DA', 'last_name': 'Mulholland', 'id': 525}, 'first_author': False, 'id': 693}, {'author': {'first_name': 'Giampietro', 'initials': 'G', 'last_name': 'Sgaragli', 'id': 526}, 'first_author': False, 'id': 694}], 'id': 254}, {'journal': {'name': 'South African Journal of Botany', 'id': 1}, 'title': 'Homoisoflavanones and spirocyclic nortriterpenoids from three Eucomis species: E. comosa, E. schiffii and E. pallidiflora subsp. pole-evansii (Hyacinthaceae)', 'year': 2006, 'start_page': 428, 'volume': 72, 'issue': None, 'doi': '10.1016/j.sajb.2005.12.006', 'isbn': '', 'despositor': {'code': 'rah', 'first_name': 'Rowan', 'last_name': 'Hatherley', 'id': 20}, 'refauthors_set': [{'author': {'first_name': 'Chantal', 'initials': 'C', 'last_name': 'Koorbanally', 'id': 523}, 'first_author': True, 'id': 1034}, {'author': {'first_name': 'Neil', 'initials': 'NR', 'last_name': 'Crouch', 'id': 524}, 'first_author': None, 'id': 1035}, {'author': {'first_name': 'Angela', 'initials': 'A', 'last_name': 'Langlois', 'id': 712}, 'first_author': None, 'id': 1036}, {'author': {'first_name': 'Karen', 'initials': 'K', 'last_name': 'Du Toit', 'id': 713}, 'first_author': None, 'id': 1037}, {'author': {'first_name': 'Dulcie', 'initials': 'DA', 'last_name': 'Mulholland', 'id': 525}, 'first_author': None, 'id': 1038}, {'author': {'first_name': 'Siegfried', 'initials': 'SE', 'last_name': 'Drewes', 'id': 613}, 'first_author': None, 'id': 1039}], 'id': 344}, {'journal': {'name': 'Bioorganic & Medicinal Chemistry', 'id': 34}, 'title': 'Anti-inflammatory activity and QSAR studies of compounds isolated from Hyacinthaceae species and Tachiadenus longiflorus Griseb. (Gentianaceae)', 'year': 2005, 'start_page': 2561, 'volume': 13, 'issue': 7, 'doi': '10.1016/j.bmc.2005.01.036', 'isbn': '', 'despositor': {'code': 'rah', 'first_name': 'Rowan', 'last_name': 'Hatherley', 'id': 20}, 'refauthors_set': [{'author': {'first_name': 'Karen', 'initials': 'K', 'last_name': 'Du Toit', 'id': 713}, 'first_author': True, 'id': 1075}, {'author': {'first_name': 'Esameldin', 'initials': 'EE', 'last_name': 'Elgorashi', 'id': 594}, 'first_author': None, 'id': 1076}, {'author': {'first_name': 'Sarel', 'initials': 'SF', 'last_name': 'Malan', 'id': 759}, 'first_author': None, 'id': 1077}, {'author': {'first_name': 'Siegfried', 'initials': 'SE', 'last_name': 'Drewes', 'id': 613}, 'first_author': None, 'id': 1078}, {'author': {'first_name': 'Johannes', 'initials': 'J', 'last_name': 'Van Staden', 'id': 489}, 'first_author': None, 'id': 1079}, {'author': {'first_name': 'Neil', 'initials': 'NR', 'last_name': 'Crouch', 'id': 524}, 'first_author': None, 'id': 1080}, {'author': {'first_name': 'Dulcie', 'initials': 'DA', 'last_name': 'Mulholland', 'id': 525}, 'first_author': None, 'id': 1081}], 'id': 362}]

>  <classifications>  (121) 
[{'classification': 'Flavonoids', 'id': 776}, {'classification': 'Homoisoflavonoid', 'id': 783}, {'classification': 'Isoflavonoids (Classyfire)', 'id': 963}]

>  <molecular_mass>  (121) 
312.27

$$$$
SANC00222_minRM1.pdb
     RDKit          3D

 37 40  0  0  1  0  0  0  0  0999 V2000
    2.8880   -3.3370   -0.5760 C   0  0  0  0  0  0  0  0  0  0  0  0
    3.7020   -2.1930   -0.5990 O   0  0  0  0  0  0  0  0  0  0  0  0
    3.1220   -1.0060   -0.2450 C   0  0  0  0  0  0  0  0  0  0  0  0
    1.7460   -0.8350    0.0080 C   0  0  0  0  0  0  0  0  0  0  0  0
    1.3770    0.4380    0.3220 C   0  0  0  0  0  0  0  0  0  0  0  0
    2.2850    1.5190    0.3940 C   0  0  0  0  0  0  0  0  0  0  0  0
    3.6190    1.3750    0.1680 C   0  0  0  0  0  0  0  0  0  0  0  0
    4.0300    0.0610   -0.1560 C   0  0  0  0  0  0  0  0  0  0  0  0
    5.3530   -0.0590   -0.4250 O   0  0  0  0  0  0  0  0  0  0  0  0
    1.2160    2.5120    0.7610 C   0  0  0  0  0  0  0  0  0  0  0  0
    0.1970    1.2950    0.7060 C   0  0  2  0  0  0  0  0  0  0  0  0
   -0.4280    0.9670    2.0510 C   0  0  0  0  0  0  0  0  0  0  0  0
   -1.2150   -0.2050    2.0050 O   0  0  0  0  0  0  0  0  0  0  0  0
   -2.1630   -0.2210    1.0300 C   0  0  0  0  0  0  0  0  0  0  0  0
   -3.2440   -1.0630    1.2430 C   0  0  0  0  0  0  0  0  0  0  0  0
   -4.2350   -1.0990    0.2480 C   0  0  0  0  0  0  0  0  0  0  0  0
   -5.2530   -1.9450    0.5100 O   0  0  0  0  0  0  0  0  0  0  0  0
   -4.1780   -0.3220   -0.9070 C   0  0  0  0  0  0  0  0  0  0  0  0
   -3.0610    0.5000   -1.0900 C   0  0  0  0  0  0  0  0  0  0  0  0
   -3.0310    1.2210   -2.2140 O   0  0  0  0  0  0  0  0  0  0  0  0
   -2.0340    0.5550   -0.1310 C   0  0  0  0  0  0  0  0  0  0  0  0
   -0.8610    1.3730   -0.3480 C   0  0  0  0  0  0  0  0  0  0  0  0
   -0.7570    2.0680   -1.3570 O   0  0  0  0  0  0  0  0  0  0  0  0
    3.5860   -4.1530   -0.8220 H   0  0  0  0  0  0  0  0  0  0  0  0
    2.4420   -3.5420    0.4120 H   0  0  0  0  0  0  0  0  0  0  0  0
    2.0900   -3.3120   -1.3360 H   0  0  0  0  0  0  0  0  0  0  0  0
    1.0170   -1.6450   -0.0390 H   0  0  0  0  0  0  0  0  0  0  0  0
    4.3380    2.1940    0.2260 H   0  0  0  0  0  0  0  0  0  0  0  0
    5.6290   -0.9700   -0.3020 H   0  0  0  0  0  0  0  0  0  0  0  0
    1.3190    2.9850    1.7490 H   0  0  0  0  0  0  0  0  0  0  0  0
    1.0320    3.3090    0.0250 H   0  0  0  0  0  0  0  0  0  0  0  0
    0.3320    0.7230    2.8240 H   0  0  0  0  0  0  0  0  0  0  0  0
   -1.0250    1.8270    2.4290 H   0  0  0  0  0  0  0  0  0  0  0  0
   -3.3290   -1.6680    2.1480 H   0  0  0  0  0  0  0  0  0  0  0  0
   -5.9170   -1.8670   -0.1860 H   0  0  0  0  0  0  0  0  0  0  0  0
   -4.9720   -0.3350   -1.6580 H   0  0  0  0  0  0  0  0  0  0  0  0
   -2.1930    1.7430   -2.2800 H   0  0  0  0  0  0  0  0  0  0  0  0
  1 26  1  0
  1 24  1  0
  1  2  1  0
  1 25  1  0
  2  3  1  0
  3  8  2  0
  3  4  1  0
  4 27  1  0
  4  5  2  0
  5  6  1  0
  6  7  2  0
  6 10  1  0
  7  8  1  0
  7 28  1  0
  8  9  1  0
  9 29  1  0
 10 31  1  0
 10 11  1  0
 10 30  1  0
 11  5  1  0
 11 22  1  6
 11 12  1  0
 12 13  1  0
 12 33  1  0
 12 32  1  0
 13 14  1  0
 14 21  2  0
 14 15  1  0
 15 16  2  0
 15 34  1  0
 16 18  1  0
 16 17  1  0
 17 35  1  0
 18 36  1  0
 18 19  2  0
 19 20  1  0
 19 21  1  0
 20 37  1  0
 21 22  1  0
 22 23  2  0
M  END
>  <id>  (122) 
222

>  <scaffolds>  (122) 
['c1ccccc1', 'O=C1c2ccccc2OCC1Cc1ccccc1', 'c1ccc(CCc2ccccc2)cc1', 'O=C(CCc1ccccc1)c1ccccc1', 'O=C1c2ccccc2OCC12Cc1ccccc12', 'c1ccc(CCOc2ccccc2)cc1']

>  <name>  (122) 
(R)-3',5,7-trihydroxy-4'-methoxyspiro[2H-1-benzopyran-3 (4H),7'-bicyclo[4.2.0]-octa[1,3,5]-trien]-4-one

>  <formula>  (122) 
C17H14O6

>  <SMILES>  (122) 
COc1cc2c(cc1O)C[C@]24COc3cc(O)cc(O)c3C4=O

>  <ChEMBL_id>  (122) 


>  <ZINC_id>  (122) 


>  <PubChem_id>  (122) 


>  <DrugBank_id>  (122) 


>  <CAS_no>  (122) 
130995-32-3

>  <references>  (122) 
[{'journal': {'name': 'Journal of Pharmacy and Pharmacology', 'id': 11}, 'title': 'Vascular myorelaxing activity of isolates from South African Hyacinthaceae partly mediated by activation of soluble guanylyl cyclase in rat aortic ring preparations', 'year': 2008, 'start_page': 489, 'volume': 60, 'issue': None, 'doi': '10.1211/jpp.60.4.0012', 'isbn': '0022-3573', 'despositor': {'code': 'rah', 'first_name': 'Rowan', 'last_name': 'Hatherley', 'id': 20}, 'refauthors_set': [{'author': {'first_name': 'Fabio', 'initials': 'F', 'last_name': 'Fusi', 'id': 521}, 'first_author': True, 'id': 689}, {'author': {'first_name': 'Antonella', 'initials': 'A', 'last_name': 'Ferrara', 'id': 522}, 'first_author': False, 'id': 690}, {'author': {'first_name': 'Chantal', 'initials': 'C', 'last_name': 'Koorbanally', 'id': 523}, 'first_author': False, 'id': 691}, {'author': {'first_name': 'Neil', 'initials': 'NR', 'last_name': 'Crouch', 'id': 524}, 'first_author': False, 'id': 692}, {'author': {'first_name': 'Dulcie', 'initials': 'DA', 'last_name': 'Mulholland', 'id': 525}, 'first_author': False, 'id': 693}, {'author': {'first_name': 'Giampietro', 'initials': 'G', 'last_name': 'Sgaragli', 'id': 526}, 'first_author': False, 'id': 694}], 'id': 254}, {'journal': {'name': 'Biochemical Systematics and Ecology', 'id': 24}, 'title': 'Coincident isolation of a novel homoisoflavonoid from Resnova humifusa and Eucomis montana (Hyacinthoideae: Hyacinthaceae)', 'year': 2006, 'start_page': 114, 'volume': 34, 'issue': None, 'doi': '10.1016/j.bse.2005.08.003', 'isbn': '', 'despositor': {'code': 'rah', 'first_name': 'Rowan', 'last_name': 'Hatherley', 'id': 20}, 'refauthors_set': [{'author': {'first_name': 'Chantal', 'initials': 'C', 'last_name': 'Koorbanally', 'id': 523}, 'first_author': True, 'id': 854}, {'author': {'first_name': 'Neil', 'initials': 'NR', 'last_name': 'Crouch', 'id': 524}, 'first_author': False, 'id': 855}, {'author': {'first_name': 'Avinash', 'initials': 'A', 'last_name': 'Harilal', 'id': 624}, 'first_author': False, 'id': 856}, {'author': {'first_name': 'Bavani', 'initials': 'B', 'last_name': 'Pillay', 'id': 625}, 'first_author': False, 'id': 857}, {'author': {'first_name': 'Dulcie', 'initials': 'DA', 'last_name': 'Mulholland', 'id': 525}, 'first_author': False, 'id': 858}], 'id': 286}, {'journal': {'name': 'Bioorganic & Medicinal Chemistry', 'id': 34}, 'title': 'Anti-inflammatory activity and QSAR studies of compounds isolated from Hyacinthaceae species and Tachiadenus longiflorus Griseb. (Gentianaceae)', 'year': 2005, 'start_page': 2561, 'volume': 13, 'issue': 7, 'doi': '10.1016/j.bmc.2005.01.036', 'isbn': '', 'despositor': {'code': 'rah', 'first_name': 'Rowan', 'last_name': 'Hatherley', 'id': 20}, 'refauthors_set': [{'author': {'first_name': 'Karen', 'initials': 'K', 'last_name': 'Du Toit', 'id': 713}, 'first_author': True, 'id': 1075}, {'author': {'first_name': 'Esameldin', 'initials': 'EE', 'last_name': 'Elgorashi', 'id': 594}, 'first_author': None, 'id': 1076}, {'author': {'first_name': 'Sarel', 'initials': 'SF', 'last_name': 'Malan', 'id': 759}, 'first_author': None, 'id': 1077}, {'author': {'first_name': 'Siegfried', 'initials': 'SE', 'last_name': 'Drewes', 'id': 613}, 'first_author': None, 'id': 1078}, {'author': {'first_name': 'Johannes', 'initials': 'J', 'last_name': 'Van Staden', 'id': 489}, 'first_author': None, 'id': 1079}, {'author': {'first_name': 'Neil', 'initials': 'NR', 'last_name': 'Crouch', 'id': 524}, 'first_author': None, 'id': 1080}, {'author': {'first_name': 'Dulcie', 'initials': 'DA', 'last_name': 'Mulholland', 'id': 525}, 'first_author': None, 'id': 1081}], 'id': 362}]

>  <classifications>  (122) 
[{'classification': 'Flavonoids', 'id': 776}, {'classification': 'Homoisoflavonoid', 'id': 783}, {'classification': 'Isoflavonoids (Classyfire)', 'id': 963}]

>  <molecular_mass>  (122) 
314.29

$$$$
SANC00223_minRM1.pdb
     RDKit          3D

 40 43  0  0  1  0  0  0  0  0999 V2000
    6.0760   -1.6650    0.4130 C   0  0  0  0  0  0  0  0  0  0  0  0
    5.0430   -1.5420   -0.5350 O   0  0  0  0  0  0  0  0  0  0  0  0
    3.9880   -0.7480   -0.2230 C   0  0  0  0  0  0  0  0  0  0  0  0
    3.8630   -0.0290    0.9610 C   0  0  0  0  0  0  0  0  0  0  0  0
    2.7090    0.7440    1.1410 C   0  0  0  0  0  0  0  0  0  0  0  0
    2.6270    1.4280    2.2870 O   0  0  0  0  0  0  0  0  0  0  0  0
    1.6980    0.7890    0.1650 C   0  0  0  0  0  0  0  0  0  0  0  0
    0.4710    1.5190    0.3990 C   0  0  0  0  0  0  0  0  0  0  0  0
    0.3070    2.1680    1.4310 O   0  0  0  0  0  0  0  0  0  0  0  0
   -0.5710    1.3990   -0.6690 C   0  0  2  0  0  0  0  0  0  0  0  0
    0.0810    1.1690   -2.0210 C   0  0  0  0  0  0  0  0  0  0  0  0
    0.9600    0.0660   -2.0120 O   0  0  0  0  0  0  0  0  0  0  0  0
    1.8930    0.0690   -1.0240 C   0  0  0  0  0  0  0  0  0  0  0  0
    3.0170   -0.7100   -1.2410 C   0  0  0  0  0  0  0  0  0  0  0  0
   -1.6820    2.5330   -0.6830 C   0  0  0  0  0  0  0  0  0  0  0  0
   -2.6670    1.4510   -0.3350 C   0  0  0  0  0  0  0  0  0  0  0  0
   -3.9830    1.2010   -0.0910 C   0  0  0  0  0  0  0  0  0  0  0  0
   -4.2850   -0.1480    0.2130 C   0  0  0  0  0  0  0  0  0  0  0  0
   -5.5860   -0.3800    0.5180 O   0  0  0  0  0  0  0  0  0  0  0  0
   -3.2950   -1.1420    0.2680 C   0  0  0  0  0  0  0  0  0  0  0  0
   -3.7690   -2.3730    0.6340 O   0  0  0  0  0  0  0  0  0  0  0  0
   -2.9170   -3.4710    0.4020 C   0  0  0  0  0  0  0  0  0  0  0  0
   -1.9430   -0.8620   -0.0140 C   0  0  0  0  0  0  0  0  0  0  0  0
   -1.6790    0.4410   -0.3070 C   0  0  0  0  0  0  0  0  0  0  0  0
    6.6000   -0.7160    0.6080 H   0  0  0  0  0  0  0  0  0  0  0  0
    5.7410   -2.1010    1.3680 H   0  0  0  0  0  0  0  0  0  0  0  0
    6.7780   -2.3630   -0.0690 H   0  0  0  0  0  0  0  0  0  0  0  0
    4.6130   -0.0390    1.7540 H   0  0  0  0  0  0  0  0  0  0  0  0
    1.7550    1.8820    2.3610 H   0  0  0  0  0  0  0  0  0  0  0  0
   -0.6550    0.8970   -2.8070 H   0  0  0  0  0  0  0  0  0  0  0  0
    0.6100    2.0890   -2.3600 H   0  0  0  0  0  0  0  0  0  0  0  0
    3.1490   -1.2730   -2.1690 H   0  0  0  0  0  0  0  0  0  0  0  0
   -1.5550    3.3230    0.0720 H   0  0  0  0  0  0  0  0  0  0  0  0
   -1.8290    3.0230   -1.6580 H   0  0  0  0  0  0  0  0  0  0  0  0
   -4.7650    1.9640   -0.1190 H   0  0  0  0  0  0  0  0  0  0  0  0
   -5.8090   -1.2900    0.2890 H   0  0  0  0  0  0  0  0  0  0  0  0
   -2.0550   -3.4860    1.0920 H   0  0  0  0  0  0  0  0  0  0  0  0
   -3.5560   -4.3410    0.6190 H   0  0  0  0  0  0  0  0  0  0  0  0
   -2.5530   -3.5490   -0.6370 H   0  0  0  0  0  0  0  0  0  0  0  0
   -1.1580   -1.6170   -0.0020 H   0  0  0  0  0  0  0  0  0  0  0  0
  1  2  1  0
  1 27  1  0
  1 25  1  0
  1 26  1  0
  2  3  1  0
  3 14  2  0
  3  4  1  0
  4  5  2  0
  4 28  1  0
  5  7  1  0
  5  6  1  0
  6 29  1  0
  7 13  2  0
  7  8  1  0
  8  9  2  0
 10  8  1  1
 10 11  1  0
 10 15  1  0
 10 24  1  0
 11 30  1  0
 11 31  1  0
 11 12  1  0
 12 13  1  0
 13 14  1  0
 14 32  1  0
 15 34  1  0
 15 16  1  0
 15 33  1  0
 16 24  2  0
 16 17  1  0
 17 35  1  0
 17 18  2  0
 18 20  1  0
 18 19  1  0
 19 36  1  0
 20 23  2  0
 20 21  1  0
 21 22  1  0
 22 39  1  0
 22 38  1  0
 22 37  1  0
 23 24  1  0
 23 40  1  0
M  END
>  <id>  (123) 
223

>  <scaffolds>  (123) 
['c1ccccc1', 'O=C1c2ccccc2OCC1Cc1ccccc1', 'c1ccc(CCc2ccccc2)cc1', 'O=C(CCc1ccccc1)c1ccccc1', 'O=C1c2ccccc2OCC12Cc1ccccc12', 'c1ccc(CCOc2ccccc2)cc1']

>  <name>  (123) 
(R)-3',5-dihydroxy-4',7-dimethoxyspiro [2H-1-benzopyran- 3(4H),7'-bicyclo[4.2.0]-octa[1,3,5]-trien]-4-one

>  <formula>  (123) 
C18H16O6

>  <SMILES>  (123) 
COc2cc(O)c1C(=O)[C@]4(COc1c2)Cc3cc(O)c(OC)cc34

>  <ChEMBL_id>  (123) 


>  <ZINC_id>  (123) 


>  <PubChem_id>  (123) 


>  <DrugBank_id>  (123) 


>  <CAS_no>  (123) 
131019-75-5

>  <references>  (123) 
[{'journal': {'name': 'Journal of Pharmacy and Pharmacology', 'id': 11}, 'title': 'Vascular myorelaxing activity of isolates from South African Hyacinthaceae partly mediated by activation of soluble guanylyl cyclase in rat aortic ring preparations', 'year': 2008, 'start_page': 489, 'volume': 60, 'issue': None, 'doi': '10.1211/jpp.60.4.0012', 'isbn': '0022-3573', 'despositor': {'code': 'rah', 'first_name': 'Rowan', 'last_name': 'Hatherley', 'id': 20}, 'refauthors_set': [{'author': {'first_name': 'Fabio', 'initials': 'F', 'last_name': 'Fusi', 'id': 521}, 'first_author': True, 'id': 689}, {'author': {'first_name': 'Antonella', 'initials': 'A', 'last_name': 'Ferrara', 'id': 522}, 'first_author': False, 'id': 690}, {'author': {'first_name': 'Chantal', 'initials': 'C', 'last_name': 'Koorbanally', 'id': 523}, 'first_author': False, 'id': 691}, {'author': {'first_name': 'Neil', 'initials': 'NR', 'last_name': 'Crouch', 'id': 524}, 'first_author': False, 'id': 692}, {'author': {'first_name': 'Dulcie', 'initials': 'DA', 'last_name': 'Mulholland', 'id': 525}, 'first_author': False, 'id': 693}, {'author': {'first_name': 'Giampietro', 'initials': 'G', 'last_name': 'Sgaragli', 'id': 526}, 'first_author': False, 'id': 694}], 'id': 254}, {'journal': {'name': 'Bioorganic & Medicinal Chemistry', 'id': 34}, 'title': 'Anti-inflammatory activity and QSAR studies of compounds isolated from Hyacinthaceae species and Tachiadenus longiflorus Griseb. (Gentianaceae)', 'year': 2005, 'start_page': 2561, 'volume': 13, 'issue': 7, 'doi': '10.1016/j.bmc.2005.01.036', 'isbn': '', 'despositor': {'code': 'rah', 'first_name': 'Rowan', 'last_name': 'Hatherley', 'id': 20}, 'refauthors_set': [{'author': {'first_name': 'Karen', 'initials': 'K', 'last_name': 'Du Toit', 'id': 713}, 'first_author': True, 'id': 1075}, {'author': {'first_name': 'Esameldin', 'initials': 'EE', 'last_name': 'Elgorashi', 'id': 594}, 'first_author': None, 'id': 1076}, {'author': {'first_name': 'Sarel', 'initials': 'SF', 'last_name': 'Malan', 'id': 759}, 'first_author': None, 'id': 1077}, {'author': {'first_name': 'Siegfried', 'initials': 'SE', 'last_name': 'Drewes', 'id': 613}, 'first_author': None, 'id': 1078}, {'author': {'first_name': 'Johannes', 'initials': 'J', 'last_name': 'Van Staden', 'id': 489}, 'first_author': None, 'id': 1079}, {'author': {'first_name': 'Neil', 'initials': 'NR', 'last_name': 'Crouch', 'id': 524}, 'first_author': None, 'id': 1080}, {'author': {'first_name': 'Dulcie', 'initials': 'DA', 'last_name': 'Mulholland', 'id': 525}, 'first_author': None, 'id': 1081}], 'id': 362}]

>  <classifications>  (123) 
[{'classification': 'Flavonoids', 'id': 776}, {'classification': 'Homoisoflavonoid', 'id': 783}, {'classification': 'Isoflavonoids (Classyfire)', 'id': 963}]

>  <molecular_mass>  (123) 
328.32

$$$$
SANC00224_minRM1.pdb
     RDKit          3D

 41 42  0  0  1  0  0  0  0  0999 V2000
    1.2760    2.8140    0.2290 C   0  0  0  0  0  0  0  0  0  0  0  0
    1.5190    1.6080   -0.2680 C   0  0  0  0  0  0  0  0  0  0  0  0
    2.8750    1.2600   -0.8030 C   0  0  0  0  0  0  0  0  0  0  0  0
    3.4130    0.0050   -0.1290 C   0  0  0  0  0  0  0  0  0  0  0  0
    2.3900   -1.0980   -0.1980 C   0  0  0  0  0  0  0  0  0  0  0  0
    2.6740   -2.1980   -0.6310 O   0  0  0  0  0  0  0  0  0  0  0  0
    1.0070   -0.7490    0.3330 C   0  0  2  0  0  0  0  0  0  0  0  0
    1.1660   -0.5250    1.8340 C   0  0  0  0  0  0  0  0  0  0  0  0
    0.0320   -1.9000    0.0690 C   0  0  0  0  0  0  0  0  0  0  0  0
   -1.3910   -1.5160    0.4470 C   0  0  0  0  0  0  0  0  0  0  0  0
   -1.8580   -0.3080   -0.3640 C   0  0  1  0  0  0  0  0  0  0  0  0
   -1.7810   -0.5420   -1.4570 H   0  0  0  0  0  0  0  0  0  0  0  0
   -3.3320    0.0000   -0.0480 C   0  0  1  0  0  0  0  0  0  0  0  0
   -3.8060    1.2750   -0.7390 C   0  0  0  0  0  0  0  0  0  0  0  0
   -4.2060   -1.1620   -0.5170 C   0  0  0  0  0  0  0  0  0  0  0  0
   -0.9210    0.8840   -0.0670 C   0  0  1  0  0  0  0  0  0  0  0  0
   -0.9520    1.2240    1.2860 O   0  0  0  0  0  0  0  0  0  0  0  0
    0.5280    0.4980   -0.4250 C   0  0  1  0  0  0  0  0  0  0  0  0
    0.3270    3.1640    0.6170 H   0  0  0  0  0  0  0  0  0  0  0  0
    2.0350    3.5890    0.3010 H   0  0  0  0  0  0  0  0  0  0  0  0
    2.8160    1.1180   -1.9040 H   0  0  0  0  0  0  0  0  0  0  0  0
    3.6000    2.0920   -0.6770 H   0  0  0  0  0  0  0  0  0  0  0  0
    4.3740   -0.3060   -0.5940 H   0  0  0  0  0  0  0  0  0  0  0  0
    3.6720    0.2000    0.9330 H   0  0  0  0  0  0  0  0  0  0  0  0
    1.5330    0.4830    2.0750 H   0  0  0  0  0  0  0  0  0  0  0  0
    0.2190   -0.6430    2.3830 H   0  0  0  0  0  0  0  0  0  0  0  0
    1.8630   -1.2450    2.2870 H   0  0  0  0  0  0  0  0  0  0  0  0
    0.0780   -2.2140   -0.9970 H   0  0  0  0  0  0  0  0  0  0  0  0
    0.3510   -2.8030    0.6320 H   0  0  0  0  0  0  0  0  0  0  0  0
   -2.0720   -2.3810    0.2820 H   0  0  0  0  0  0  0  0  0  0  0  0
   -1.4650   -1.3120    1.5380 H   0  0  0  0  0  0  0  0  0  0  0  0
   -3.4660    0.1120    1.0590 H   0  0  0  0  0  0  0  0  0  0  0  0
   -3.5320    1.3030   -1.8030 H   0  0  0  0  0  0  0  0  0  0  0  0
   -4.9010    1.3800   -0.6970 H   0  0  0  0  0  0  0  0  0  0  0  0
   -3.4070    2.1910   -0.2800 H   0  0  0  0  0  0  0  0  0  0  0  0
   -3.8750   -2.1260   -0.0990 H   0  0  0  0  0  0  0  0  0  0  0  0
   -5.2560   -1.0360   -0.2170 H   0  0  0  0  0  0  0  0  0  0  0  0
   -4.2020   -1.2760   -1.6110 H   0  0  0  0  0  0  0  0  0  0  0  0
   -1.2060    1.7630   -0.7130 H   0  0  0  0  0  0  0  0  0  0  0  0
   -1.8030    1.6350    1.4630 H   0  0  0  0  0  0  0  0  0  0  0  0
    0.5100    0.2450   -1.5230 H   0  0  0  0  0  0  0  0  0  0  0  0
  1  2  2  0
  1 20  1  0
  1 19  1  0
  2  3  1  0
  2 18  1  0
  3 21  1  0
  3 22  1  0
  3  4  1  0
  4 23  1  0
  4  5  1  0
  4 24  1  0
  5  6  2  0
  5  7  1  0
  7 18  1  0
  7  9  1  0
  7  8  1  1
  8 25  1  0
  8 27  1  0
  8 26  1  0
  9 28  1  0
  9 10  1  0
  9 29  1  0
 10 11  1  0
 10 30  1  0
 10 31  1  0
 11 12  1  6
 11 16  1  0
 11 13  1  0
 13 14  1  0
 13 15  1  0
 13 32  1  1
 14 33  1  0
 14 34  1  0
 14 35  1  0
 15 38  1  0
 15 37  1  0
 15 36  1  0
 16 39  1  6
 16 18  1  0
 16 17  1  0
 17 40  1  0
 18 41  1  6
M  END
>  <id>  (124) 
224

>  <scaffolds>  (124) 
['C1CCCCC1', 'C=C1CCCC2CCCCC12', 'C=C1CCC(=O)C2CCCCC12', 'C1CCC2CCCCC2C1']

>  <name>  (124) 
6[alpha]-Hydroxy-4(14)-eudesmen-1-one

>  <formula>  (124) 
C15H24O2

>  <SMILES>  (124) 
C=C1CCC(=O)[C@]2(C)CC[C@@H](C(C)C)C(O)C12

>  <ChEMBL_id>  (124) 


>  <ZINC_id>  (124) 


>  <PubChem_id>  (124) 


>  <DrugBank_id>  (124) 


>  <CAS_no>  (124) 
488136-87-4

>  <references>  (124) 
[{'journal': {'name': 'Journal of Pharmacy and Pharmacology', 'id': 11}, 'title': 'Vascular myorelaxing activity of isolates from South African Hyacinthaceae partly mediated by activation of soluble guanylyl cyclase in rat aortic ring preparations', 'year': 2008, 'start_page': 489, 'volume': 60, 'issue': None, 'doi': '10.1211/jpp.60.4.0012', 'isbn': '0022-3573', 'despositor': {'code': 'rah', 'first_name': 'Rowan', 'last_name': 'Hatherley', 'id': 20}, 'refauthors_set': [{'author': {'first_name': 'Fabio', 'initials': 'F', 'last_name': 'Fusi', 'id': 521}, 'first_author': True, 'id': 689}, {'author': {'first_name': 'Antonella', 'initials': 'A', 'last_name': 'Ferrara', 'id': 522}, 'first_author': False, 'id': 690}, {'author': {'first_name': 'Chantal', 'initials': 'C', 'last_name': 'Koorbanally', 'id': 523}, 'first_author': False, 'id': 691}, {'author': {'first_name': 'Neil', 'initials': 'NR', 'last_name': 'Crouch', 'id': 524}, 'first_author': False, 'id': 692}, {'author': {'first_name': 'Dulcie', 'initials': 'DA', 'last_name': 'Mulholland', 'id': 525}, 'first_author': False, 'id': 693}, {'author': {'first_name': 'Giampietro', 'initials': 'G', 'last_name': 'Sgaragli', 'id': 526}, 'first_author': False, 'id': 694}], 'id': 254}, {'journal': {'name': 'Biochemical Systematics and Ecology', 'id': 24}, 'title': 'Eudesmane-type sesquiterpenoids from Urginea epigea (Urgineoideae; Hyacinthaceae)', 'year': 2005, 'start_page': 295, 'volume': 33, 'issue': None, 'doi': '10.1016/j.bse.2004.06.006', 'isbn': '', 'despositor': {'code': 'rah', 'first_name': 'Rowan', 'last_name': 'Hatherley', 'id': 20}, 'refauthors_set': [{'author': {'first_name': 'Chantal', 'initials': 'C', 'last_name': 'Koorbanally', 'id': 523}, 'first_author': True, 'id': 980}, {'author': {'first_name': 'Dulcie', 'initials': 'DA', 'last_name': 'Mulholland', 'id': 525}, 'first_author': None, 'id': 981}, {'author': {'first_name': 'Neil', 'initials': 'NR', 'last_name': 'Crouch', 'id': 524}, 'first_author': None, 'id': 982}], 'id': 326}]

>  <classifications>  (124) 
[{'classification': 'Eudesmane', 'id': 773}, {'classification': 'Sesquiterpene', 'id': 828}, {'classification': 'Terpenoid', 'id': 839}, {'classification': 'Phenol lipids (Classyfire)', 'id': 951}]

>  <molecular_mass>  (124) 
236.35

$$$$
SANC00225_minRM1.pdb
     RDKit          3D

 39 41  0  0  1  0  0  0  0  0999 V2000
    5.6250   -0.4420    1.5490 C   0  0  0  0  0  0  0  0  0  0  0  0
    4.8250    0.5960    1.0360 O   0  0  0  0  0  0  0  0  0  0  0  0
    3.6290    0.2560    0.4990 C   0  0  0  0  0  0  0  0  0  0  0  0
    3.0760   -1.0270    0.5020 C   0  0  0  0  0  0  0  0  0  0  0  0
    1.8140   -1.1910   -0.0600 C   0  0  0  0  0  0  0  0  0  0  0  0
    1.3060   -2.4520   -0.0110 O   0  0  0  0  0  0  0  0  0  0  0  0
    0.2660   -2.7180   -0.9290 C   0  0  0  0  0  0  0  0  0  0  0  0
   -0.8600   -1.6860   -0.8410 C   0  0  1  0  0  0  0  0  0  0  0  0
   -1.6400   -1.9250   -1.6080 H   0  0  0  0  0  0  0  0  0  0  0  0
   -1.4940   -1.6790    0.5550 C   0  0  0  0  0  0  0  0  0  0  0  0
   -2.6820   -0.7770    0.5560 C   0  0  0  0  0  0  0  0  0  0  0  0
   -2.5350    0.5730    0.8550 C   0  0  0  0  0  0  0  0  0  0  0  0
   -3.6350    1.4200    0.8490 C   0  0  0  0  0  0  0  0  0  0  0  0
   -4.8860    0.8940    0.5240 C   0  0  0  0  0  0  0  0  0  0  0  0
   -6.0290    1.6310    0.5290 O   0  0  0  0  0  0  0  0  0  0  0  0
   -5.0530   -0.4620    0.2270 C   0  0  0  0  0  0  0  0  0  0  0  0
   -3.9420   -1.2900    0.2530 C   0  0  0  0  0  0  0  0  0  0  0  0
   -0.2690   -0.3240   -1.0900 C   0  0  0  0  0  0  0  0  0  0  0  0
   -0.8810    0.5880   -1.6370 O   0  0  0  0  0  0  0  0  0  0  0  0
    1.0820   -0.1280   -0.6000 C   0  0  0  0  0  0  0  0  0  0  0  0
    1.6750    1.1460   -0.6280 C   0  0  0  0  0  0  0  0  0  0  0  0
    1.0640    2.2300   -1.1150 O   0  0  0  0  0  0  0  0  0  0  0  0
    2.9500    1.3420   -0.0800 C   0  0  0  0  0  0  0  0  0  0  0  0
    3.6010    2.5280   -0.1870 O   0  0  0  0  0  0  0  0  0  0  0  0
    5.1800   -0.9460    2.4190 H   0  0  0  0  0  0  0  0  0  0  0  0
    5.9050   -1.1910    0.7870 H   0  0  0  0  0  0  0  0  0  0  0  0
    6.5400    0.0830    1.8630 H   0  0  0  0  0  0  0  0  0  0  0  0
    3.5920   -1.8930    0.9210 H   0  0  0  0  0  0  0  0  0  0  0  0
    0.6730   -2.7820   -1.9640 H   0  0  0  0  0  0  0  0  0  0  0  0
   -0.0640   -3.7390   -0.6440 H   0  0  0  0  0  0  0  0  0  0  0  0
   -1.7770   -2.7130    0.8500 H   0  0  0  0  0  0  0  0  0  0  0  0
   -0.7500   -1.3740    1.3240 H   0  0  0  0  0  0  0  0  0  0  0  0
   -1.5510    0.9800    1.1030 H   0  0  0  0  0  0  0  0  0  0  0  0
   -3.5200    2.4790    1.0940 H   0  0  0  0  0  0  0  0  0  0  0  0
   -5.7930    2.5280    0.2730 H   0  0  0  0  0  0  0  0  0  0  0  0
   -6.0420   -0.8600   -0.0190 H   0  0  0  0  0  0  0  0  0  0  0  0
   -4.0610   -2.3530    0.0180 H   0  0  0  0  0  0  0  0  0  0  0  0
    0.1880    1.9830   -1.4930 H   0  0  0  0  0  0  0  0  0  0  0  0
    3.0560    3.1760    0.2830 H   0  0  0  0  0  0  0  0  0  0  0  0
  1 26  1  0
  1  2  1  0
  1 27  1  0
  1 25  1  0
  2  3  1  0
  3 23  2  0
  3  4  1  0
  4  5  2  0
  4 28  1  0
  5 20  1  0
  5  6  1  0
  6  7  1  0
  7 29  1  0
  7  8  1  0
  7 30  1  0
  8  9  1  6
  8 18  1  0
  8 10  1  0
 10 11  1  0
 10 31  1  0
 10 32  1  0
 11 17  2  0
 11 12  1  0
 12 13  2  0
 12 33  1  0
 13 14  1  0
 13 34  1  0
 14 16  2  0
 14 15  1  0
 15 35  1  0
 16 36  1  0
 16 17  1  0
 17 37  1  0
 18 19  2  0
 18 20  1  0
 20 21  2  0
 21 22  1  0
 21 23  1  0
 22 38  1  0
 23 24  1  0
 24 39  1  0
M  END
>  <id>  (125) 
225

>  <scaffolds>  (125) 
['c1ccccc1', 'O=C1c2ccccc2OCC1Cc1ccccc1', 'O=C(CCc1ccccc1)c1ccccc1']

>  <name>  (125) 
(R)-5,6-Dihydroxy-7- methoxy-3-(4'-hydroxybenzyl)chroman-4-one

>  <formula>  (125) 
C17H16O6

>  <SMILES>  (125) 
COc3cc2OC[C@@H](Cc1ccc(O)cc1)C(=O)c2c(O)c3O

>  <ChEMBL_id>  (125) 


>  <ZINC_id>  (125) 


>  <PubChem_id>  (125) 


>  <DrugBank_id>  (125) 


>  <CAS_no>  (125) 
849727-90-8

>  <references>  (125) 
[{'journal': {'name': 'Journal of Pharmacy and Pharmacology', 'id': 11}, 'title': 'Vascular myorelaxing activity of isolates from South African Hyacinthaceae partly mediated by activation of soluble guanylyl cyclase in rat aortic ring preparations', 'year': 2008, 'start_page': 489, 'volume': 60, 'issue': None, 'doi': '10.1211/jpp.60.4.0012', 'isbn': '0022-3573', 'despositor': {'code': 'rah', 'first_name': 'Rowan', 'last_name': 'Hatherley', 'id': 20}, 'refauthors_set': [{'author': {'first_name': 'Fabio', 'initials': 'F', 'last_name': 'Fusi', 'id': 521}, 'first_author': True, 'id': 689}, {'author': {'first_name': 'Antonella', 'initials': 'A', 'last_name': 'Ferrara', 'id': 522}, 'first_author': False, 'id': 690}, {'author': {'first_name': 'Chantal', 'initials': 'C', 'last_name': 'Koorbanally', 'id': 523}, 'first_author': False, 'id': 691}, {'author': {'first_name': 'Neil', 'initials': 'NR', 'last_name': 'Crouch', 'id': 524}, 'first_author': False, 'id': 692}, {'author': {'first_name': 'Dulcie', 'initials': 'DA', 'last_name': 'Mulholland', 'id': 525}, 'first_author': False, 'id': 693}, {'author': {'first_name': 'Giampietro', 'initials': 'G', 'last_name': 'Sgaragli', 'id': 526}, 'first_author': False, 'id': 694}], 'id': 254}, {'journal': {'name': 'Biochemical Systematics and Ecology', 'id': 24}, 'title': 'Norlignans and homoisoflavanones from two South African Drimiopsis species (Hyacinthaceae: Hyacinthoideae)', 'year': 2006, 'start_page': 588, 'volume': 34, 'issue': None, 'doi': '10.1016/j.bse.2005.12.011', 'isbn': '', 'despositor': {'code': 'rah', 'first_name': 'Rowan', 'last_name': 'Hatherley', 'id': 20}, 'refauthors_set': [{'author': {'first_name': 'Chantal', 'initials': 'C', 'last_name': 'Koorbanally', 'id': 523}, 'first_author': True, 'id': 1067}, {'author': {'first_name': 'Dulcie', 'initials': 'DA', 'last_name': 'Mulholland', 'id': 525}, 'first_author': None, 'id': 1068}, {'author': {'first_name': 'Neil', 'initials': 'NR', 'last_name': 'Crouch', 'id': 524}, 'first_author': None, 'id': 1069}], 'id': 360}, {'journal': {'name': 'Bioorganic & Medicinal Chemistry', 'id': 34}, 'title': 'Anti-inflammatory activity and QSAR studies of compounds isolated from Hyacinthaceae species and Tachiadenus longiflorus Griseb. (Gentianaceae)', 'year': 2005, 'start_page': 2561, 'volume': 13, 'issue': 7, 'doi': '10.1016/j.bmc.2005.01.036', 'isbn': '', 'despositor': {'code': 'rah', 'first_name': 'Rowan', 'last_name': 'Hatherley', 'id': 20}, 'refauthors_set': [{'author': {'first_name': 'Karen', 'initials': 'K', 'last_name': 'Du Toit', 'id': 713}, 'first_author': True, 'id': 1075}, {'author': {'first_name': 'Esameldin', 'initials': 'EE', 'last_name': 'Elgorashi', 'id': 594}, 'first_author': None, 'id': 1076}, {'author': {'first_name': 'Sarel', 'initials': 'SF', 'last_name': 'Malan', 'id': 759}, 'first_author': None, 'id': 1077}, {'author': {'first_name': 'Siegfried', 'initials': 'SE', 'last_name': 'Drewes', 'id': 613}, 'first_author': None, 'id': 1078}, {'author': {'first_name': 'Johannes', 'initials': 'J', 'last_name': 'Van Staden', 'id': 489}, 'first_author': None, 'id': 1079}, {'author': {'first_name': 'Neil', 'initials': 'NR', 'last_name': 'Crouch', 'id': 524}, 'first_author': None, 'id': 1080}, {'author': {'first_name': 'Dulcie', 'initials': 'DA', 'last_name': 'Mulholland', 'id': 525}, 'first_author': None, 'id': 1081}], 'id': 362}]

>  <classifications>  (125) 
[{'classification': 'Flavonoids', 'id': 776}, {'classification': 'Homoisoflavonoid', 'id': 783}, {'classification': 'Homoisoflavonoids (Classyfire)', 'id': 964}]

>  <molecular_mass>  (125) 
316.3

$$$$
SANC00226_minRM1.pdb
     RDKit          3D

 86 87  0  0  1  0  0  0  0  0999 V2000
   -6.0760    1.7650   -3.0990 C   0  0  0  0  0  0  0  0  0  0  0  0
   -5.2560    2.0010   -1.8830 C   0  0  0  0  0  0  0  0  0  0  0  0
   -4.4690    3.1350   -1.7670 C   0  0  0  0  0  0  0  0  0  0  0  0
   -3.6940    3.3260   -0.6200 C   0  0  0  0  0  0  0  0  0  0  0  0
   -3.6980    2.4050    0.4250 C   0  0  0  0  0  0  0  0  0  0  0  0
   -4.4960    1.2690    0.3190 C   0  0  0  0  0  0  0  0  0  0  0  0
   -5.2620    1.0760   -0.8250 C   0  0  0  0  0  0  0  0  0  0  0  0
   -6.1010    0.0160   -1.0330 O   0  0  0  0  0  0  0  0  0  0  0  0
   -6.0900   -1.0440   -0.1160 C   0  0  1  0  0  0  0  0  0  0  0  0
   -6.3220   -0.7170    0.9370 H   0  0  0  0  0  0  0  0  0  0  0  0
   -7.1780   -2.0320   -0.6330 C   0  0  2  0  0  0  0  0  0  0  0  0
   -8.1930   -1.5760   -0.4850 H   0  0  0  0  0  0  0  0  0  0  0  0
   -7.0520   -3.3530    0.1710 C   0  0  1  0  0  0  0  0  0  0  0  0
   -7.7540   -4.1280   -0.2400 H   0  0  0  0  0  0  0  0  0  0  0  0
   -5.5910   -3.8550    0.0680 C   0  0  1  0  0  0  0  0  0  0  0  0
   -5.3700   -4.1370   -0.9970 H   0  0  0  0  0  0  0  0  0  0  0  0
   -4.6260   -2.7440    0.5350 C   0  0  0  0  0  0  0  0  0  0  0  0
   -4.8050   -1.5960   -0.2470 O   0  0  0  0  0  0  0  0  0  0  0  0
   -5.5140   -4.9480    0.9330 O   0  0  0  0  0  0  0  0  0  0  0  0
   -7.3730   -3.0060    1.4840 O   0  0  0  0  0  0  0  0  0  0  0  0
   -6.9760   -2.4100   -1.9580 O   0  0  0  0  0  0  0  0  0  0  0  0
   -2.8350    2.5980    1.6310 C   0  0  0  0  0  0  0  0  0  0  0  0
   -1.4390    2.2200    1.2670 C   0  0  0  0  0  0  0  0  0  0  0  0
   -0.7340    1.2570    1.8630 C   0  0  0  0  0  0  0  0  0  0  0  0
   -1.2560    0.4470    2.9950 C   0  0  0  0  0  0  0  0  0  0  0  0
    0.6570    0.9380    1.4130 C   0  0  0  0  0  0  0  0  0  0  0  0
    1.6710    1.5780    2.3650 C   0  0  0  0  0  0  0  0  0  0  0  0
    3.0470    1.1860    1.9500 C   0  0  0  0  0  0  0  0  0  0  0  0
    3.8920    1.9740    1.2820 C   0  0  0  0  0  0  0  0  0  0  0  0
    3.5480    3.3610    0.8720 C   0  0  0  0  0  0  0  0  0  0  0  0
    5.2520    1.4890    0.8920 C   0  0  0  0  0  0  0  0  0  0  0  0
    5.2840    1.1790   -0.6070 C   0  0  0  0  0  0  0  0  0  0  0  0
    6.6430    0.7010   -0.9850 C   0  0  0  0  0  0  0  0  0  0  0  0
    6.9380   -0.5460   -1.3580 C   0  0  0  0  0  0  0  0  0  0  0  0
    5.9290   -1.6350   -1.4300 C   0  0  0  0  0  0  0  0  0  0  0  0
    8.3400   -0.9210   -1.7240 C   0  0  0  0  0  0  0  0  0  0  0  0
    9.0180   -1.5910   -0.5250 C   0  0  0  0  0  0  0  0  0  0  0  0
   10.4120   -1.9710   -0.8840 C   0  0  0  0  0  0  0  0  0  0  0  0
   11.5100   -1.5240   -0.2710 C   0  0  0  0  0  0  0  0  0  0  0  0
   11.4810   -0.5660    0.8660 C   0  0  0  0  0  0  0  0  0  0  0  0
   12.8670   -1.9670   -0.6950 C   0  0  0  0  0  0  0  0  0  0  0  0
   -2.8680    4.4120   -0.6240 O   0  0  0  0  0  0  0  0  0  0  0  0
   -7.1430    1.6620   -2.8520 H   0  0  0  0  0  0  0  0  0  0  0  0
   -5.9980    2.5750   -3.8390 H   0  0  0  0  0  0  0  0  0  0  0  0
   -5.7770    0.8370   -3.6080 H   0  0  0  0  0  0  0  0  0  0  0  0
   -4.4330    3.8760   -2.5700 H   0  0  0  0  0  0  0  0  0  0  0  0
   -4.4800    0.5380    1.1330 H   0  0  0  0  0  0  0  0  0  0  0  0
   -4.7370   -2.5400    1.6240 H   0  0  0  0  0  0  0  0  0  0  0  0
   -3.5630   -3.0140    0.3670 H   0  0  0  0  0  0  0  0  0  0  0  0
   -4.6680   -5.3790    0.7780 H   0  0  0  0  0  0  0  0  0  0  0  0
   -7.3890   -3.8130    2.0090 H   0  0  0  0  0  0  0  0  0  0  0  0
   -6.9700   -1.6180   -2.5060 H   0  0  0  0  0  0  0  0  0  0  0  0
   -2.8570    3.6530    1.9860 H   0  0  0  0  0  0  0  0  0  0  0  0
   -3.2380    2.0370    2.5000 H   0  0  0  0  0  0  0  0  0  0  0  0
   -1.0180    2.7990    0.4360 H   0  0  0  0  0  0  0  0  0  0  0  0
   -2.1210   -0.1630    2.6910 H   0  0  0  0  0  0  0  0  0  0  0  0
   -0.5160   -0.2520    3.4100 H   0  0  0  0  0  0  0  0  0  0  0  0
   -1.5810    1.0740    3.8390 H   0  0  0  0  0  0  0  0  0  0  0  0
    0.8030   -0.1620    1.3600 H   0  0  0  0  0  0  0  0  0  0  0  0
    0.8420    1.2820    0.3730 H   0  0  0  0  0  0  0  0  0  0  0  0
    1.5210    2.6760    2.3990 H   0  0  0  0  0  0  0  0  0  0  0  0
    1.4900    1.2520    3.4120 H   0  0  0  0  0  0  0  0  0  0  0  0
    3.3300    0.1630    2.2240 H   0  0  0  0  0  0  0  0  0  0  0  0
    3.3270    4.0020    1.7390 H   0  0  0  0  0  0  0  0  0  0  0  0
    4.3550    3.8690    0.3230 H   0  0  0  0  0  0  0  0  0  0  0  0
    2.6650    3.3840    0.2170 H   0  0  0  0  0  0  0  0  0  0  0  0
    6.0220    2.2450    1.1570 H   0  0  0  0  0  0  0  0  0  0  0  0
    5.5500    0.5880    1.4700 H   0  0  0  0  0  0  0  0  0  0  0  0
    4.4780    0.4620   -0.8650 H   0  0  0  0  0  0  0  0  0  0  0  0
    5.0360    2.0830   -1.2050 H   0  0  0  0  0  0  0  0  0  0  0  0
    7.4230    1.4690   -0.9340 H   0  0  0  0  0  0  0  0  0  0  0  0
    5.1900   -1.4490   -2.2240 H   0  0  0  0  0  0  0  0  0  0  0  0
    6.3650   -2.6210   -1.6440 H   0  0  0  0  0  0  0  0  0  0  0  0
    5.3720   -1.7480   -0.4880 H   0  0  0  0  0  0  0  0  0  0  0  0
    8.3490   -1.5880   -2.6120 H   0  0  0  0  0  0  0  0  0  0  0  0
    8.9300   -0.0370   -2.0490 H   0  0  0  0  0  0  0  0  0  0  0  0
    8.9540   -0.9250    0.3600 H   0  0  0  0  0  0  0  0  0  0  0  0
    8.4610   -2.5030   -0.2170 H   0  0  0  0  0  0  0  0  0  0  0  0
   10.4870   -2.6780   -1.7190 H   0  0  0  0  0  0  0  0  0  0  0  0
   10.9480   -0.9790    1.7360 H   0  0  0  0  0  0  0  0  0  0  0  0
   12.4840   -0.2920    1.2270 H   0  0  0  0  0  0  0  0  0  0  0  0
   10.9840    0.3780    0.5950 H   0  0  0  0  0  0  0  0  0  0  0  0
   13.4950   -1.1130   -0.9880 H   0  0  0  0  0  0  0  0  0  0  0  0
   13.3900   -2.4860    0.1220 H   0  0  0  0  0  0  0  0  0  0  0  0
   12.8630   -2.6570   -1.5520 H   0  0  0  0  0  0  0  0  0  0  0  0
   -3.1060    4.9440    0.1460 H   0  0  0  0  0  0  0  0  0  0  0  0
  1 44  1  0
  1 45  1  0
  1 43  1  0
  1  2  1  0
  2  3  2  0
  2  7  1  0
  3 46  1  0
  3  4  1  0
  4 42  1  0
  4  5  2  0
  5  6  1  0
  5 22  1  0
  6  7  2  0
  6 47  1  0
  7  8  1  0
  8  9  1  0
  9 11  1  0
  9 18  1  0
  9 10  1  1
 11 21  1  0
 11 12  1  6
 11 13  1  0
 13 14  1  6
 13 15  1  0
 13 20  1  0
 15 16  1  6
 15 17  1  0
 15 19  1  0
 17 18  1  0
 17 49  1  0
 17 48  1  0
 19 50  1  0
 20 51  1  0
 21 52  1  0
 22 23  1  0
 22 53  1  0
 22 54  1  0
 23 55  1  0
 23 24  2  0
 24 26  1  0
 24 25  1  0
 25 56  1  0
 25 57  1  0
 25 58  1  0
 26 60  1  0
 26 59  1  0
 26 27  1  0
 27 28  1  0
 27 61  1  0
 27 62  1  0
 28 29  2  0
 28 63  1  0
 29 30  1  0
 29 31  1  0
 30 66  1  0
 30 65  1  0
 30 64  1  0
 31 32  1  0
 31 67  1  0
 31 68  1  0
 32 70  1  0
 32 33  1  0
 32 69  1  0
 33 34  2  0
 33 71  1  0
 34 36  1  0
 34 35  1  0
 35 72  1  0
 35 73  1  0
 35 74  1  0
 36 75  1  0
 36 76  1  0
 36 37  1  0
 37 38  1  0
 37 78  1  0
 37 77  1  0
 38 79  1  0
 38 39  2  0
 39 41  1  0
 39 40  1  0
 40 82  1  0
 40 81  1  0
 40 80  1  0
 41 85  1  0
 41 83  1  0
 41 84  1  0
 42 86  1  0
M  END
>  <id>  (126) 
226

>  <scaffolds>  (126) 
['c1ccccc1', 'C1CCOCC1', 'c1ccc(OC2CCCCO2)cc1']

>  <name>  (126) 
Nephthoside

>  <formula>  (126) 
C32H48O6

>  <SMILES>  (126) 
CC1=CC(=C(C=C1O[C@H]2[C@H]([C@@H]([C@@H](CO2)O)O)O)C/C=C(\C)/CC/C=C(\C)/CC/C=C(\C)/CCC=C(C)C)O

>  <ChEMBL_id>  (126) 
CHEMBL462761

>  <ZINC_id>  (126) 


>  <PubChem_id>  (126) 
 10530208

>  <DrugBank_id>  (126) 


>  <CAS_no>  (126) 
172998-31-1

>  <references>  (126) 
[{'journal': {'name': 'Journal of Natural Products', 'id': 5}, 'title': 'Sindurol and Nephthoside: New Tetraprenyltoluquinols from the Soft Coral Sinularia dura and Nephthea sp.', 'year': 1996, 'start_page': 262, 'volume': 59, 'issue': 3, 'doi': '10.1021/np960118m', 'isbn': '', 'despositor': {'code': 'TMM', 'first_name': 'Thommas', 'last_name': 'Musyoka', 'id': 22}, 'refauthors_set': [{'author': {'first_name': '', 'initials': 'G', 'last_name': 'Koren-Goldshlager', 'id': 532}, 'first_author': True, 'id': 708}, {'author': {'first_name': '', 'initials': 'P', 'last_name': 'Klein', 'id': 533}, 'first_author': False, 'id': 709}, {'author': {'first_name': 'Amira', 'initials': 'A', 'last_name': 'Rudi', 'id': 534}, 'first_author': False, 'id': 710}, {'author': {'first_name': 'Yehuda', 'initials': 'Y', 'last_name': 'Benayahu', 'id': 535}, 'first_author': False, 'id': 711}, {'author': {'first_name': 'Michael', 'initials': 'M', 'last_name': 'Schleyer', 'id': 452}, 'first_author': False, 'id': 712}, {'author': {'first_name': 'Yoel', 'initials': 'Y', 'last_name': 'Kashman', 'id': 536}, 'first_author': False, 'id': 713}], 'id': 255}]

>  <classifications>  (126) 
[{'classification': 'Tetraprenyltoluquinol', 'id': 840}, {'classification': 'Phenol lipids (Classyfire)', 'id': 951}]

>  <molecular_mass>  (126) 
528.72

$$$$
SANC00227_minRM1.pdb
     RDKit          3D

 84 86  0  0  1  0  0  0  0  0999 V2000
    1.7540   -5.4060    0.0930 O   0  0  0  0  0  0  0  0  0  0  0  0
    2.5500   -4.3040    0.0220 C   0  0  0  0  0  0  0  0  0  0  0  0
    2.1000   -3.2070    0.7610 C   0  0  0  0  0  0  0  0  0  0  0  0
    2.8090   -2.0140    0.7150 C   0  0  0  0  0  0  0  0  0  0  0  0
    2.3350   -0.8380    1.4960 C   0  0  0  0  0  0  0  0  0  0  0  0
    1.4300    0.0440    0.6110 C   0  0  1  0  0  0  0  0  0  0  0  0
    0.2250   -0.6710    0.4540 O   0  0  0  0  0  0  0  0  0  0  0  0
    0.0290   -1.4130   -0.6680 C   0  0  0  0  0  0  0  0  0  0  0  0
   -1.1880   -2.2740   -0.5570 C   0  0  0  0  0  0  0  0  0  0  0  0
    0.7760   -1.3400   -1.6230 O   0  0  0  0  0  0  0  0  0  0  0  0
    1.0560    1.3590    1.3530 C   0  0  1  0  0  0  0  0  0  0  0  0
    0.5140    1.1150    2.6110 O   0  0  0  0  0  0  0  0  0  0  0  0
    2.3580    2.1480    1.6680 C   0  0  0  0  0  0  0  0  0  0  0  0
    2.8810    2.5220    0.4120 O   0  0  0  0  0  0  0  0  0  0  0  0
    4.1350    3.0400    0.3740 C   0  0  0  0  0  0  0  0  0  0  0  0
    4.5540    3.3850   -1.0170 C   0  0  0  0  0  0  0  0  0  0  0  0
    4.7780    3.1790    1.4010 O   0  0  0  0  0  0  0  0  0  0  0  0
    0.0690    2.2400    0.5440 C   0  0  2  0  0  0  0  0  0  0  0  0
   -0.1000    3.6940    1.0570 C   0  0  0  0  0  0  0  0  0  0  0  0
   -0.3270    4.4870   -0.2340 C   0  0  0  0  0  0  0  0  0  0  0  0
   -0.2900    3.4000   -1.3340 C   0  0  2  0  0  0  0  0  0  0  0  0
    0.3530    3.8560   -2.6290 C   0  0  0  0  0  0  0  0  0  0  0  0
   -1.6880    2.7980   -1.5410 C   0  0  0  0  0  0  0  0  0  0  0  0
   -2.1840    2.2280   -0.1970 C   0  0  2  0  0  0  0  0  0  0  0  0
   -2.5860    3.0580    0.4530 H   0  0  0  0  0  0  0  0  0  0  0  0
   -1.1520    1.5510    0.4980 O   0  0  0  0  0  0  0  0  0  0  0  0
   -3.2510    1.2070   -0.4520 C   0  0  0  0  0  0  0  0  0  0  0  0
   -4.5510    1.4530   -0.2890 C   0  0  0  0  0  0  0  0  0  0  0  0
   -5.0960    2.7380    0.2160 C   0  0  0  0  0  0  0  0  0  0  0  0
   -5.5730    0.4050   -0.6020 C   0  0  0  0  0  0  0  0  0  0  0  0
   -5.7010   -0.5570    0.5810 C   0  0  0  0  0  0  0  0  0  0  0  0
   -6.8260   -1.5050    0.3420 C   0  0  0  0  0  0  0  0  0  0  0  0
   -6.6770   -2.8270    0.2440 C   0  0  0  0  0  0  0  0  0  0  0  0
   -5.3640   -3.5150    0.3530 C   0  0  0  0  0  0  0  0  0  0  0  0
   -7.8370   -3.7300    0.0090 C   0  0  0  0  0  0  0  0  0  0  0  0
    0.5040    2.3610   -0.7850 O   0  0  0  0  0  0  0  0  0  0  0  0
    3.9680   -1.9510   -0.0650 C   0  0  0  0  0  0  0  0  0  0  0  0
    4.6550   -0.7820   -0.2130 O   0  0  0  0  0  0  0  0  0  0  0  0
    4.4150   -3.0440   -0.8060 C   0  0  0  0  0  0  0  0  0  0  0  0
    3.6950   -4.2340   -0.7790 C   0  0  0  0  0  0  0  0  0  0  0  0
    4.1360   -5.4020   -1.5860 C   0  0  0  0  0  0  0  0  0  0  0  0
    2.3030   -6.1910   -0.0170 H   0  0  0  0  0  0  0  0  0  0  0  0
    1.1870   -3.2930    1.3600 H   0  0  0  0  0  0  0  0  0  0  0  0
    1.7940   -1.1610    2.4130 H   0  0  0  0  0  0  0  0  0  0  0  0
    3.1860   -0.2410    1.8920 H   0  0  0  0  0  0  0  0  0  0  0  0
    1.9450    0.2990   -0.3560 H   0  0  0  0  0  0  0  0  0  0  0  0
   -1.9730   -1.9190   -1.2410 H   0  0  0  0  0  0  0  0  0  0  0  0
   -0.9460   -3.3110   -0.8440 H   0  0  0  0  0  0  0  0  0  0  0  0
   -1.6210   -2.3080    0.4520 H   0  0  0  0  0  0  0  0  0  0  0  0
   -0.2650    0.5550    2.5140 H   0  0  0  0  0  0  0  0  0  0  0  0
    2.1500    3.0530    2.2860 H   0  0  0  0  0  0  0  0  0  0  0  0
    3.0670    1.5200    2.2580 H   0  0  0  0  0  0  0  0  0  0  0  0
    3.8280    3.0790   -1.7870 H   0  0  0  0  0  0  0  0  0  0  0  0
    4.7000    4.4720   -1.1110 H   0  0  0  0  0  0  0  0  0  0  0  0
    5.5120    2.8980   -1.2580 H   0  0  0  0  0  0  0  0  0  0  0  0
   -0.9150    3.7930    1.7980 H   0  0  0  0  0  0  0  0  0  0  0  0
    0.7960    4.0470    1.6070 H   0  0  0  0  0  0  0  0  0  0  0  0
   -1.2720    5.0590   -0.2350 H   0  0  0  0  0  0  0  0  0  0  0  0
    0.4580    5.2510   -0.3910 H   0  0  0  0  0  0  0  0  0  0  0  0
    1.3940    4.1780   -2.4790 H   0  0  0  0  0  0  0  0  0  0  0  0
    0.3840    3.0530   -3.3800 H   0  0  0  0  0  0  0  0  0  0  0  0
   -0.1970    4.6990   -3.0680 H   0  0  0  0  0  0  0  0  0  0  0  0
   -2.4010    3.5450   -1.9360 H   0  0  0  0  0  0  0  0  0  0  0  0
   -1.6450    2.0020   -2.3130 H   0  0  0  0  0  0  0  0  0  0  0  0
   -2.8930    0.2300   -0.7970 H   0  0  0  0  0  0  0  0  0  0  0  0
   -5.5910    3.3040   -0.5790 H   0  0  0  0  0  0  0  0  0  0  0  0
   -5.8420    2.5820    1.0100 H   0  0  0  0  0  0  0  0  0  0  0  0
   -4.3240    3.4030    0.6370 H   0  0  0  0  0  0  0  0  0  0  0  0
   -6.5530    0.8690   -0.8440 H   0  0  0  0  0  0  0  0  0  0  0  0
   -5.3040   -0.1510   -1.5250 H   0  0  0  0  0  0  0  0  0  0  0  0
   -4.7340   -1.0870    0.7450 H   0  0  0  0  0  0  0  0  0  0  0  0
   -5.8800    0.0010    1.5250 H   0  0  0  0  0  0  0  0  0  0  0  0
   -7.8140   -1.0390    0.2600 H   0  0  0  0  0  0  0  0  0  0  0  0
   -5.2820   -4.0600    1.3060 H   0  0  0  0  0  0  0  0  0  0  0  0
   -5.2180   -4.2480   -0.4570 H   0  0  0  0  0  0  0  0  0  0  0  0
   -4.5060   -2.8220    0.3100 H   0  0  0  0  0  0  0  0  0  0  0  0
   -7.8200   -4.1310   -1.0180 H   0  0  0  0  0  0  0  0  0  0  0  0
   -7.8250   -4.5960    0.6860 H   0  0  0  0  0  0  0  0  0  0  0  0
   -8.8160   -3.2350    0.1330 H   0  0  0  0  0  0  0  0  0  0  0  0
    5.1160   -0.6370    0.6160 H   0  0  0  0  0  0  0  0  0  0  0  0
    5.3170   -2.9490   -1.4190 H   0  0  0  0  0  0  0  0  0  0  0  0
    4.5290   -6.2110   -0.9500 H   0  0  0  0  0  0  0  0  0  0  0  0
    3.3230   -5.8250   -2.1960 H   0  0  0  0  0  0  0  0  0  0  0  0
    4.9500   -5.1480   -2.2850 H   0  0  0  0  0  0  0  0  0  0  0  0
  1 42  1  0
  1  2  1  0
  2 40  2  0
  2  3  1  0
  3  4  2  0
  3 43  1  0
  4 37  1  0
  4  5  1  0
  5  6  1  0
  5 45  1  0
  5 44  1  0
  6 46  1  6
  6  7  1  0
  6 11  1  0
  7  8  1  0
  8 10  2  0
  8  9  1  0
  9 47  1  0
  9 48  1  0
  9 49  1  0
 11 13  1  0
 11 12  1  1
 12 50  1  0
 13 14  1  0
 13 52  1  0
 13 51  1  0
 14 15  1  0
 15 16  1  0
 15 17  2  0
 16 53  1  0
 16 55  1  0
 16 54  1  0
 18 11  1  0
 18 36  1  0
 18 26  1  6
 18 19  1  0
 19 20  1  0
 19 57  1  0
 19 56  1  0
 20 21  1  0
 20 59  1  0
 20 58  1  0
 21 22  1  6
 21 23  1  0
 21 36  1  0
 22 61  1  0
 22 62  1  0
 22 60  1  0
 23 64  1  0
 23 63  1  0
 23 24  1  0
 24 27  1  0
 24 25  1  1
 24 26  1  0
 27 65  1  0
 27 28  2  0
 28 30  1  0
 28 29  1  0
 29 66  1  0
 29 68  1  0
 29 67  1  0
 30 70  1  0
 30 69  1  0
 30 31  1  0
 31 32  1  0
 31 71  1  0
 31 72  1  0
 32 33  2  0
 32 73  1  0
 33 35  1  0
 33 34  1  0
 34 75  1  0
 34 76  1  0
 34 74  1  0
 35 77  1  0
 35 79  1  0
 35 78  1  0
 37 39  2  0
 37 38  1  0
 38 80  1  0
 39 81  1  0
 39 40  1  0
 40 41  1  0
 41 84  1  0
 41 83  1  0
 41 82  1  0
M  END
>  <id>  (127) 
227

>  <scaffolds>  (127) 
['c1ccccc1', 'c1ccc(CCCC23CCC(CCO2)O3)cc1']

>  <name>  (127) 
Sindurol

>  <formula>  (127) 
C31H44O9

>  <SMILES>  (127) 
Oc3cc(CC(OC(C)=O)C(O)(COC(C)=O)[C@@]21CC[C@](C)(C[C@H](O1)\C=C(/C)CC\C=C(/C)C)O2)c(O)cc3C

>  <ChEMBL_id>  (127) 


>  <ZINC_id>  (127) 


>  <PubChem_id>  (127) 


>  <DrugBank_id>  (127) 


>  <CAS_no>  (127) 
172998-30-0

>  <references>  (127) 
[{'journal': {'name': 'Journal of Natural Products', 'id': 5}, 'title': 'Sindurol and Nephthoside: New Tetraprenyltoluquinols from the Soft Coral Sinularia dura and Nephthea sp.', 'year': 1996, 'start_page': 262, 'volume': 59, 'issue': 3, 'doi': '10.1021/np960118m', 'isbn': '', 'despositor': {'code': 'TMM', 'first_name': 'Thommas', 'last_name': 'Musyoka', 'id': 22}, 'refauthors_set': [{'author': {'first_name': '', 'initials': 'G', 'last_name': 'Koren-Goldshlager', 'id': 532}, 'first_author': True, 'id': 708}, {'author': {'first_name': '', 'initials': 'P', 'last_name': 'Klein', 'id': 533}, 'first_author': False, 'id': 709}, {'author': {'first_name': 'Amira', 'initials': 'A', 'last_name': 'Rudi', 'id': 534}, 'first_author': False, 'id': 710}, {'author': {'first_name': 'Yehuda', 'initials': 'Y', 'last_name': 'Benayahu', 'id': 535}, 'first_author': False, 'id': 711}, {'author': {'first_name': 'Michael', 'initials': 'M', 'last_name': 'Schleyer', 'id': 452}, 'first_author': False, 'id': 712}, {'author': {'first_name': 'Yoel', 'initials': 'Y', 'last_name': 'Kashman', 'id': 536}, 'first_author': False, 'id': 713}], 'id': 255}]

>  <classifications>  (127) 
[{'classification': 'Tetraprenyltoluquinol', 'id': 840}, {'classification': 'Phenol lipids (Classyfire)', 'id': 951}]

>  <molecular_mass>  (127) 
560.67

$$$$
SANC00228_minRM1.pdb
     RDKit          3D

 67 68  0  0  1  0  0  0  0  0999 V2000
    1.0540    2.2790   -0.7640 C   0  0  0  0  0  0  0  0  0  0  0  0
    0.1820    1.1110   -0.4560 C   0  0  0  0  0  0  0  0  0  0  0  0
    0.6450   -0.1450   -0.4550 C   0  0  0  0  0  0  0  0  0  0  0  0
   -0.2420   -1.3470   -0.2290 C   0  0  1  0  0  0  0  0  0  0  0  0
    0.5030   -2.4440    0.5490 C   0  0  0  0  0  0  0  0  0  0  0  0
   -0.4260   -3.6010    0.8810 C   0  0  0  0  0  0  0  0  0  0  0  0
   -1.5420   -3.1250    1.7940 C   0  0  0  0  0  0  0  0  0  0  0  0
   -2.3780   -2.0110    1.1500 C   0  0  1  0  0  0  0  0  0  0  0  0
   -1.4330   -0.9050    0.6410 C   0  0  2  0  0  0  0  0  0  0  0  0
   -0.9640   -0.4740    1.5750 H   0  0  0  0  0  0  0  0  0  0  0  0
   -2.1920    0.2700    0.0150 C   0  0  1  0  0  0  0  0  0  0  0  0
   -3.0730    0.5390    0.6710 H   0  0  0  0  0  0  0  0  0  0  0  0
   -1.2350    1.4850   -0.1300 C   0  0  1  0  0  0  0  0  0  0  0  0
   -1.6380    2.1890   -0.9100 H   0  0  0  0  0  0  0  0  0  0  0  0
   -1.2330    2.0510    1.1720 O   0  0  0  0  0  0  0  0  0  0  0  0
   -1.1400    3.3970    1.3290 C   0  0  0  0  0  0  0  0  0  0  0  0
   -1.0100    4.1490    0.3810 O   0  0  0  0  0  0  0  0  0  0  0  0
   -1.2150    3.7730    2.7740 C   0  0  0  0  0  0  0  0  0  0  0  0
   -2.6270   -0.1050   -1.2740 O   0  0  0  0  0  0  0  0  0  0  0  0
   -3.6300    0.6040   -1.8550 C   0  0  0  0  0  0  0  0  0  0  0  0
   -4.1550    1.5410   -1.2840 O   0  0  0  0  0  0  0  0  0  0  0  0
   -3.9580    0.0630   -3.2100 C   0  0  0  0  0  0  0  0  0  0  0  0
   -3.3070   -2.5960    0.0910 C   0  0  0  0  0  0  0  0  0  0  0  0
   -3.2770   -1.4150    2.2480 C   0  0  0  0  0  0  0  0  0  0  0  0
   -0.5700   -1.8660   -1.6330 C   0  0  0  0  0  0  0  0  0  0  0  0
    2.0830   -0.4110   -0.7750 C   0  0  0  0  0  0  0  0  0  0  0  0
    2.9460   -0.2120    0.4740 C   0  0  0  0  0  0  0  0  0  0  0  0
    4.3700   -0.5300    0.1480 C   0  0  0  0  0  0  0  0  0  0  0  0
    5.2400    0.4380   -0.1560 C   0  0  0  0  0  0  0  0  0  0  0  0
    6.6650    0.1360   -0.4940 C   0  0  0  0  0  0  0  0  0  0  0  0
    7.2870    1.3710   -0.7320 O   0  0  0  0  0  0  0  0  0  0  0  0
    4.7530   -1.9670    0.1740 C   0  0  0  0  0  0  0  0  0  0  0  0
    0.5380    3.0600   -1.3450 H   0  0  0  0  0  0  0  0  0  0  0  0
    1.4210    2.7590    0.1610 H   0  0  0  0  0  0  0  0  0  0  0  0
    1.9450    2.0060   -1.3570 H   0  0  0  0  0  0  0  0  0  0  0  0
    1.3800   -2.8220   -0.0200 H   0  0  0  0  0  0  0  0  0  0  0  0
    0.9510   -2.0260    1.4780 H   0  0  0  0  0  0  0  0  0  0  0  0
   -0.8270   -4.0770   -0.0380 H   0  0  0  0  0  0  0  0  0  0  0  0
    0.1450   -4.4200    1.3730 H   0  0  0  0  0  0  0  0  0  0  0  0
   -2.1900   -3.9770    2.0910 H   0  0  0  0  0  0  0  0  0  0  0  0
   -1.1060   -2.7770    2.7560 H   0  0  0  0  0  0  0  0  0  0  0  0
   -0.3140    3.4410    3.3130 H   0  0  0  0  0  0  0  0  0  0  0  0
   -1.3020    4.8610    2.8990 H   0  0  0  0  0  0  0  0  0  0  0  0
   -2.0740    3.3110    3.2760 H   0  0  0  0  0  0  0  0  0  0  0  0
   -4.3390   -0.9680   -3.1450 H   0  0  0  0  0  0  0  0  0  0  0  0
   -4.7250    0.6740   -3.7100 H   0  0  0  0  0  0  0  0  0  0  0  0
   -3.0730    0.0390   -3.8630 H   0  0  0  0  0  0  0  0  0  0  0  0
   -3.8560   -3.4760    0.4650 H   0  0  0  0  0  0  0  0  0  0  0  0
   -4.0770   -1.8810   -0.2380 H   0  0  0  0  0  0  0  0  0  0  0  0
   -2.7810   -2.9290   -0.8150 H   0  0  0  0  0  0  0  0  0  0  0  0
   -2.7120   -1.0340    3.1110 H   0  0  0  0  0  0  0  0  0  0  0  0
   -3.8770   -0.5670    1.8790 H   0  0  0  0  0  0  0  0  0  0  0  0
   -3.9860   -2.1550    2.6450 H   0  0  0  0  0  0  0  0  0  0  0  0
    0.2020   -2.5460   -2.0210 H   0  0  0  0  0  0  0  0  0  0  0  0
   -1.5140   -2.4230   -1.6850 H   0  0  0  0  0  0  0  0  0  0  0  0
   -0.6500   -1.0600   -2.3790 H   0  0  0  0  0  0  0  0  0  0  0  0
    2.2360   -1.4240   -1.2040 H   0  0  0  0  0  0  0  0  0  0  0  0
    2.4340    0.2740   -1.5830 H   0  0  0  0  0  0  0  0  0  0  0  0
    2.8340    0.8230    0.8620 H   0  0  0  0  0  0  0  0  0  0  0  0
    2.5840   -0.8460    1.3150 H   0  0  0  0  0  0  0  0  0  0  0  0
    4.9420    1.4940   -0.1730 H   0  0  0  0  0  0  0  0  0  0  0  0
    7.1630   -0.4230    0.3370 H   0  0  0  0  0  0  0  0  0  0  0  0
    6.7220   -0.5300   -1.3950 H   0  0  0  0  0  0  0  0  0  0  0  0
    8.2070    1.1850   -0.9400 H   0  0  0  0  0  0  0  0  0  0  0  0
    5.2270   -2.2920   -0.7700 H   0  0  0  0  0  0  0  0  0  0  0  0
    5.4760   -2.1800    0.9790 H   0  0  0  0  0  0  0  0  0  0  0  0
    3.8990   -2.6410    0.3370 H   0  0  0  0  0  0  0  0  0  0  0  0
  1 35  1  0
  1 33  1  0
  1  2  1  0
  1 34  1  0
  2  3  2  0
  2 13  1  0
  3 26  1  0
  3  4  1  0
  4 25  1  6
  4  5  1  0
  4  9  1  0
  5 36  1  0
  5  6  1  0
  5 37  1  0
  6 38  1  0
  6 39  1  0
  6  7  1  0
  7  8  1  0
  7 40  1  0
  7 41  1  0
  8 23  1  6
  8  9  1  0
  8 24  1  0
  9 11  1  0
  9 10  1  1
 11 19  1  0
 11 13  1  0
 11 12  1  1
 13 14  1  6
 13 15  1  0
 15 16  1  0
 16 17  2  0
 16 18  1  0
 18 43  1  0
 18 44  1  0
 18 42  1  0
 19 20  1  0
 20 22  1  0
 20 21  2  0
 22 47  1  0
 22 46  1  0
 22 45  1  0
 23 50  1  0
 23 49  1  0
 23 48  1  0
 24 52  1  0
 24 53  1  0
 24 51  1  0
 25 56  1  0
 25 54  1  0
 25 55  1  0
 26 58  1  0
 26 57  1  0
 26 27  1  0
 27 28  1  0
 27 59  1  0
 27 60  1  0
 28 29  2  0
 28 32  1  0
 29 30  1  0
 29 61  1  0
 30 63  1  0
 30 31  1  0
 30 62  1  0
 31 64  1  0
 32 65  1  0
 32 67  1  0
 32 66  1  0
M  END
>  <id>  (128) 
228

>  <scaffolds>  (128) 
['C1=CC2CCCCC2CC1', 'C1=CCCCC1', 'C1CCCCC1']

>  <name>  (128) 
6[beta],7[alpha]-Diacetoxylabda-8,13-dien-15-ol

>  <formula>  (128) 
C24H38O5

>  <SMILES>  (128) 
CC1=C([C@]2(CCCC([C@@H]2[C@@H]([C@H]1OC(=O)C)OC(=O)C)(C)C)C)CC/C(=C/CO)/C

>  <ChEMBL_id>  (128) 
CHEMBL401598

>  <ZINC_id>  (128) 


>  <PubChem_id>  (128) 


>  <DrugBank_id>  (128) 


>  <CAS_no>  (128) 
273212-70-7

>  <references>  (128) 
[{'journal': {'name': 'Journal of Natural Products', 'id': 5}, 'title': 'Bioactive metabolites from the South African marine mollusk Trimusculus costatus', 'year': 2008, 'start_page': 420, 'volume': 71, 'issue': 3, 'doi': '10.1021/np070612y ', 'isbn': '', 'despositor': {'code': 'TMM', 'first_name': 'Thommas', 'last_name': 'Musyoka', 'id': 22}, 'refauthors_set': [{'author': {'first_name': '', 'initials': 'AW', 'last_name': 'van Wyk', 'id': 537}, 'first_author': True, 'id': 714}, {'author': {'first_name': '', 'initials': 'CA', 'last_name': 'Gray', 'id': 480}, 'first_author': False, 'id': 715}, {'author': {'first_name': 'Catherine', 'initials': 'CE', 'last_name': 'Whibley', 'id': 497}, 'first_author': False, 'id': 716}, {'author': {'first_name': '', 'initials': 'O', 'last_name': 'Omolaja', 'id': 538}, 'first_author': False, 'id': 717}, {'author': {'first_name': 'Denver', 'initials': 'DT', 'last_name': 'Hendricks', 'id': 498}, 'first_author': False, 'id': 718}, {'author': {'first_name': '', 'initials': 'RC', 'last_name': 'Mino', 'id': 540}, 'first_author': False, 'id': 719}, {'author': {'first_name': 'Michael', 'initials': 'MT', 'last_name': 'Davies-Coleman', 'id': 449}, 'first_author': False, 'id': 720}], 'id': 256}]

>  <classifications>  (128) 
[{'classification': 'Diterpene', 'id': 771}, {'classification': 'Terpenoid', 'id': 839}, {'classification': 'Phenol lipids (Classyfire)', 'id': 951}]

>  <molecular_mass>  (128) 
406.55

$$$$
SANC00229_minRM1.pdb
     RDKit          3D

 32 34  0  0  0  0  0  0  0  0999 V2000
    2.9640   -2.4240   -0.9780 C   0  0  0  0  0  0  0  0  0  0  0  0
    2.8940   -1.6910    0.2240 O   0  0  0  0  0  0  0  0  0  0  0  0
    2.3060   -0.4660    0.0660 C   0  0  0  0  0  0  0  0  0  0  0  0
    3.0990    0.6800    0.0670 C   0  0  0  0  0  0  0  0  0  0  0  0
    4.4440    0.6710    0.1250 O   0  0  0  0  0  0  0  0  0  0  0  0
    2.4880    1.9360    0.0280 C   0  0  0  0  0  0  0  0  0  0  0  0
    1.1040    2.0560   -0.0160 C   0  0  0  0  0  0  0  0  0  0  0  0
    0.6100    3.4560   -0.0950 C   0  0  0  0  0  0  0  0  0  0  0  0
    0.2670    0.9210   -0.0120 C   0  0  0  0  0  0  0  0  0  0  0  0
   -1.1900    0.9210   -0.0510 C   0  0  0  0  0  0  0  0  0  0  0  0
   -2.0030    2.0450   -0.0650 C   0  0  0  0  0  0  0  0  0  0  0  0
   -3.3950    1.9380   -0.1400 C   0  0  0  0  0  0  0  0  0  0  0  0
   -4.0270    0.7130   -0.1880 C   0  0  0  0  0  0  0  0  0  0  0  0
   -3.2290   -0.4410   -0.1440 C   0  0  0  0  0  0  0  0  0  0  0  0
   -3.8960   -1.6040   -0.1770 O   0  0  0  0  0  0  0  0  0  0  0  0
   -1.8310   -0.3340   -0.0740 C   0  0  0  0  0  0  0  0  0  0  0  0
   -1.0740   -1.5590   -0.0180 C   0  0  0  0  0  0  0  0  0  0  0  0
   -1.5520   -2.6890   -0.0080 O   0  0  0  0  0  0  0  0  0  0  0  0
    0.2880   -1.5380    0.0400 O   0  0  0  0  0  0  0  0  0  0  0  0
    0.9140   -0.3260    0.0350 C   0  0  0  0  0  0  0  0  0  0  0  0
    3.6190   -1.9520   -1.7320 H   0  0  0  0  0  0  0  0  0  0  0  0
    3.3970   -3.3880   -0.6780 H   0  0  0  0  0  0  0  0  0  0  0  0
    1.9890   -2.6140   -1.4540 H   0  0  0  0  0  0  0  0  0  0  0  0
    4.7810   -0.2420    0.1240 H   0  0  0  0  0  0  0  0  0  0  0  0
    3.1310    2.8230    0.0270 H   0  0  0  0  0  0  0  0  0  0  0  0
    0.2300    3.6840   -1.1030 H   0  0  0  0  0  0  0  0  0  0  0  0
   -0.1870    3.6680    0.6390 H   0  0  0  0  0  0  0  0  0  0  0  0
    1.3890    4.2070    0.1140 H   0  0  0  0  0  0  0  0  0  0  0  0
   -1.6120    3.0600   -0.0030 H   0  0  0  0  0  0  0  0  0  0  0  0
   -3.9990    2.8530   -0.1590 H   0  0  0  0  0  0  0  0  0  0  0  0
   -5.1150    0.6260   -0.2470 H   0  0  0  0  0  0  0  0  0  0  0  0
   -3.2850   -2.3680   -0.0800 H   0  0  0  0  0  0  0  0  0  0  0  0
  1 21  1  0
  1 23  1  0
  1 22  1  0
  1  2  1  0
  2  3  1  0
  3 20  2  0
  3  4  1  0
  4  6  2  0
  4  5  1  0
  5 24  1  0
  6  7  1  0
  6 25  1  0
  7  8  1  0
  7  9  2  0
  8 26  1  0
  8 28  1  0
  8 27  1  0
  9 10  1  0
  9 20  1  0
 10 16  2  0
 10 11  1  0
 11 12  2  0
 11 29  1  0
 12 13  1  0
 12 30  1  0
 13 31  1  0
 13 14  2  0
 14 15  1  0
 14 16  1  0
 15 32  1  0
 16 17  1  0
 17 18  2  0
 17 19  1  0
 19 20  1  0
M  END
>  <id>  (129) 
229

>  <scaffolds>  (129) 
['c1ccccc1', 'O=c1ccc2ccccc2o1', 'O=c1oc2ccccc2c2ccccc12']

>  <name>  (129) 
Autumnariniol

>  <formula>  (129) 
C15H12O5

>  <SMILES>  (129) 
COc2c(O)cc(C)c3c1cccc(O)c1c(=O)oc23

>  <ChEMBL_id>  (129) 


>  <ZINC_id>  (129) 


>  <PubChem_id>  (129) 


>  <DrugBank_id>  (129) 


>  <CAS_no>  (129) 
32595-79-2

>  <references>  (129) 
[{'journal': {'name': 'Helvetica Chimica Acta', 'id': 12}, 'title': 'Autumnariol and autumnariniol, two new dibenzo-[alpha]-pyrones from Eucomis autumnalis. Detection of long-range coupling over six bonds in the NMR spectra', 'year': 1971, 'start_page': 201, 'volume': 54, 'issue': 1, 'doi': '10.1002/hlca.19710540118', 'isbn': '', 'despositor': {'code': 'rah', 'first_name': 'Rowan', 'last_name': 'Hatherley', 'id': 20}, 'refauthors_set': [{'author': {'first_name': '', 'initials': 'WTL', 'last_name': 'Sidwell', 'id': 541}, 'first_author': True, 'id': 721}, {'author': {'first_name': '', 'initials': 'H', 'last_name': 'Fritz', 'id': 542}, 'first_author': False, 'id': 722}, {'author': {'first_name': 'Christoph', 'initials': 'C', 'last_name': 'Tamm', 'id': 543}, 'first_author': False, 'id': 723}], 'id': 257}, {'journal': {'name': 'Phytochemistry: Advances in Research (Book)', 'id': 13}, 'title': 'Chapter 3: The phytochemistry and ethnobotany of the southern African genus Eucomis (Hyacinthaceae: Hyacinthoideae)', 'year': 2006, 'start_page': 69, 'volume': None, 'issue': None, 'doi': '', 'isbn': '81-308-0034-9', 'despositor': {'code': 'rah', 'first_name': 'Rowan', 'last_name': 'Hatherley', 'id': 20}, 'refauthors_set': [{'author': {'first_name': 'Chantal', 'initials': 'C', 'last_name': 'Koorbanally', 'id': 523}, 'first_author': True, 'id': 851}, {'author': {'first_name': 'Neil', 'initials': 'NR', 'last_name': 'Crouch', 'id': 524}, 'first_author': False, 'id': 852}, {'author': {'first_name': 'Dulcie', 'initials': 'DA', 'last_name': 'Mulholland', 'id': 525}, 'first_author': False, 'id': 853}], 'id': 259}]

>  <classifications>  (129) 
[{'classification': 'Dibenzo-[alpha]-pyrone', 'id': 768}, {'classification': 'Coumarins and derivatives (Classyfire)', 'id': 965}]

>  <molecular_mass>  (129) 
272.25

$$$$
SANC00230_minRM1.pdb
     RDKit          3D

 73 74  0  0  1  0  0  0  0  0999 V2000
    0.9530    0.1010    1.4060 H   0  0  0  0  0  0  0  0  0  0  0  0
    1.4040    0.3900    0.4110 C   0  0  2  0  0  0  0  0  0  0  0  0
    2.2740   -0.8090    0.0190 C   0  0  2  0  0  0  0  0  0  0  0  0
    3.1530   -0.8760    0.7270 H   0  0  0  0  0  0  0  0  0  0  0  0
    2.7120   -0.6380   -1.3110 O   0  0  0  0  0  0  0  0  0  0  0  0
    3.8010   -1.3330   -1.7320 C   0  0  0  0  0  0  0  0  0  0  0  0
    4.1200   -1.0290   -3.1590 C   0  0  0  0  0  0  0  0  0  0  0  0
    4.3960   -2.0900   -0.9880 O   0  0  0  0  0  0  0  0  0  0  0  0
    1.4300   -2.1110    0.0840 C   0  0  1  0  0  0  0  0  0  0  0  0
    1.9020   -2.8930   -0.5730 H   0  0  0  0  0  0  0  0  0  0  0  0
    1.4540   -2.4540    1.4610 O   0  0  0  0  0  0  0  0  0  0  0  0
    1.5690   -3.7530    1.8390 C   0  0  0  0  0  0  0  0  0  0  0  0
    1.6530   -3.8690    3.3270 C   0  0  0  0  0  0  0  0  0  0  0  0
    1.5920   -4.6570    1.0260 O   0  0  0  0  0  0  0  0  0  0  0  0
   -0.0110   -1.9290   -0.2970 C   0  0  0  0  0  0  0  0  0  0  0  0
   -0.7740   -3.2060   -0.3790 C   0  0  0  0  0  0  0  0  0  0  0  0
   -0.5810   -0.7410   -0.5300 C   0  0  0  0  0  0  0  0  0  0  0  0
   -2.0270   -0.6600   -0.9060 C   0  0  0  0  0  0  0  0  0  0  0  0
   -2.9070   -0.6870    0.3460 C   0  0  0  0  0  0  0  0  0  0  0  0
   -4.3400   -0.5630   -0.0610 C   0  0  0  0  0  0  0  0  0  0  0  0
   -4.8470    0.8110   -0.3110 C   0  0  0  0  0  0  0  0  0  0  0  0
   -5.1040   -1.6470   -0.2060 C   0  0  0  0  0  0  0  0  0  0  0  0
   -6.5410   -1.5580   -0.6100 C   0  0  0  0  0  0  0  0  0  0  0  0
   -7.0160   -2.8740   -0.6860 O   0  0  0  0  0  0  0  0  0  0  0  0
    0.1980    0.5530   -0.5330 C   0  0  2  0  0  0  0  0  0  0  0  0
    0.5060    0.8200   -2.0090 C   0  0  0  0  0  0  0  0  0  0  0  0
   -0.6580    1.7030    0.0220 C   0  0  0  0  0  0  0  0  0  0  0  0
    0.1840    2.9790    0.1010 C   0  0  1  0  0  0  0  0  0  0  0  0
    0.5740    3.2750   -0.9080 H   0  0  0  0  0  0  0  0  0  0  0  0
   -0.7220    3.9580    0.5950 O   0  0  0  0  0  0  0  0  0  0  0  0
   -0.3940    5.2680    0.4780 C   0  0  0  0  0  0  0  0  0  0  0  0
   -1.4420    6.1540    1.0720 C   0  0  0  0  0  0  0  0  0  0  0  0
    0.6430    5.6160   -0.0570 O   0  0  0  0  0  0  0  0  0  0  0  0
    1.3120    2.7990    1.1130 C   0  0  0  0  0  0  0  0  0  0  0  0
    2.2420    1.6490    0.7040 C   0  0  1  0  0  0  0  0  0  0  0  0
    3.1540    1.3540    1.9090 C   0  0  0  0  0  0  0  0  0  0  0  0
    3.1500    2.0890   -0.4390 C   0  0  0  0  0  0  0  0  0  0  0  0
    4.2790    0.0470   -3.3200 H   0  0  0  0  0  0  0  0  0  0  0  0
    5.0270   -1.5550   -3.4880 H   0  0  0  0  0  0  0  0  0  0  0  0
    3.2960   -1.3310   -3.8230 H   0  0  0  0  0  0  0  0  0  0  0  0
    0.7440   -3.4850    3.8110 H   0  0  0  0  0  0  0  0  0  0  0  0
    1.7840   -4.9160    3.6370 H   0  0  0  0  0  0  0  0  0  0  0  0
    2.5020   -3.2960    3.7280 H   0  0  0  0  0  0  0  0  0  0  0  0
   -0.1650   -4.0580   -0.7180 H   0  0  0  0  0  0  0  0  0  0  0  0
   -1.1900   -3.4850    0.6020 H   0  0  0  0  0  0  0  0  0  0  0  0
   -1.6250   -3.1500   -1.0810 H   0  0  0  0  0  0  0  0  0  0  0  0
   -2.2470    0.2410   -1.5190 H   0  0  0  0  0  0  0  0  0  0  0  0
   -2.3030   -1.5090   -1.5770 H   0  0  0  0  0  0  0  0  0  0  0  0
   -2.7280   -1.6170    0.9270 H   0  0  0  0  0  0  0  0  0  0  0  0
   -2.6250    0.1230    1.0530 H   0  0  0  0  0  0  0  0  0  0  0  0
   -5.2180    0.9290   -1.3420 H   0  0  0  0  0  0  0  0  0  0  0  0
   -5.6800    1.0680    0.3610 H   0  0  0  0  0  0  0  0  0  0  0  0
   -4.0840    1.5920   -0.1710 H   0  0  0  0  0  0  0  0  0  0  0  0
   -4.7070   -2.6540   -0.0320 H   0  0  0  0  0  0  0  0  0  0  0  0
   -7.1200   -0.9570    0.1310 H   0  0  0  0  0  0  0  0  0  0  0  0
   -6.6510   -1.0300   -1.5880 H   0  0  0  0  0  0  0  0  0  0  0  0
   -7.9410   -2.8290   -0.9430 H   0  0  0  0  0  0  0  0  0  0  0  0
   -0.3040    1.3700   -2.5160 H   0  0  0  0  0  0  0  0  0  0  0  0
    1.4200    1.4080   -2.1720 H   0  0  0  0  0  0  0  0  0  0  0  0
    0.6360   -0.1080   -2.5880 H   0  0  0  0  0  0  0  0  0  0  0  0
   -1.5620    1.8810   -0.6010 H   0  0  0  0  0  0  0  0  0  0  0  0
   -1.0720    1.4390    1.0210 H   0  0  0  0  0  0  0  0  0  0  0  0
   -1.2620    6.2900    2.1490 H   0  0  0  0  0  0  0  0  0  0  0  0
   -1.4260    7.1500    0.6040 H   0  0  0  0  0  0  0  0  0  0  0  0
   -2.4580    5.7510    0.9620 H   0  0  0  0  0  0  0  0  0  0  0  0
    1.8870    3.7410    1.2350 H   0  0  0  0  0  0  0  0  0  0  0  0
    0.8820    2.6150    2.1230 H   0  0  0  0  0  0  0  0  0  0  0  0
    2.5970    1.1070    2.8240 H   0  0  0  0  0  0  0  0  0  0  0  0
    3.8270    0.5000    1.7210 H   0  0  0  0  0  0  0  0  0  0  0  0
    3.7950    2.2120    2.1570 H   0  0  0  0  0  0  0  0  0  0  0  0
    3.6010    3.0760   -0.2520 H   0  0  0  0  0  0  0  0  0  0  0  0
    3.9950    1.4020   -0.5970 H   0  0  0  0  0  0  0  0  0  0  0  0
    2.6320    2.1690   -1.4050 H   0  0  0  0  0  0  0  0  0  0  0  0
  2  1  1  1
  2 25  1  0
  2  3  1  0
  2 35  1  0
  3  5  1  0
  3  9  1  0
  3  4  1  1
  5  6  1  0
  6  7  1  0
  6  8  2  0
  7 40  1  0
  7 39  1  0
  7 38  1  0
  9 10  1  6
  9 15  1  0
  9 11  1  0
 11 12  1  0
 12 14  2  0
 12 13  1  0
 13 42  1  0
 13 43  1  0
 13 41  1  0
 15 17  2  0
 15 16  1  0
 16 46  1  0
 16 44  1  0
 16 45  1  0
 17 18  1  0
 17 25  1  0
 18 48  1  0
 18 47  1  0
 18 19  1  0
 19 20  1  0
 19 49  1  0
 19 50  1  0
 20 21  1  0
 20 22  2  0
 21 51  1  0
 21 53  1  0
 21 52  1  0
 22 23  1  0
 22 54  1  0
 23 56  1  0
 23 24  1  0
 23 55  1  0
 24 57  1  0
 25 26  1  6
 25 27  1  0
 26 60  1  0
 26 58  1  0
 26 59  1  0
 27 61  1  0
 27 28  1  0
 27 62  1  0
 28 29  1  6
 28 30  1  0
 28 34  1  0
 30 31  1  0
 31 33  2  0
 31 32  1  0
 32 64  1  0
 32 65  1  0
 32 63  1  0
 34 35  1  0
 34 66  1  0
 34 67  1  0
 35 37  1  6
 35 36  1  0
 36 69  1  0
 36 70  1  0
 36 68  1  0
 37 73  1  0
 37 72  1  0
 37 71  1  0
M  END
>  <id>  (130) 
230

>  <scaffolds>  (130) 
['C1=CC2CCCCC2CC1', 'C1=CCCCC1', 'C1CCCCC1']

>  <name>  (130) 
2[alpha],6[beta],7[alpha]-Triacetoxylabda-8,13-dien-15-ol

>  <formula>  (130) 
C26H40O7

>  <SMILES>  (130) 
[H][C@@]12[C@H](OC(C)=O)[C@@H](OC(C)=O)C(C)=C(CC/C(C)=C/CO)C1(C)C[C@@H](OC(C)=O)CC2(C)C

>  <ChEMBL_id>  (130) 
CHEMBL254986

>  <ZINC_id>  (130) 


>  <PubChem_id>  (130) 


>  <DrugBank_id>  (130) 


>  <CAS_no>  (130) 
273212-72-9

>  <references>  (130) 
[{'journal': {'name': 'Journal of Natural Products', 'id': 5}, 'title': 'Bioactive metabolites from the South African marine mollusk Trimusculus costatus', 'year': 2008, 'start_page': 420, 'volume': 71, 'issue': 3, 'doi': '10.1021/np070612y ', 'isbn': '', 'despositor': {'code': 'TMM', 'first_name': 'Thommas', 'last_name': 'Musyoka', 'id': 22}, 'refauthors_set': [{'author': {'first_name': '', 'initials': 'AW', 'last_name': 'van Wyk', 'id': 537}, 'first_author': True, 'id': 714}, {'author': {'first_name': '', 'initials': 'CA', 'last_name': 'Gray', 'id': 480}, 'first_author': False, 'id': 715}, {'author': {'first_name': 'Catherine', 'initials': 'CE', 'last_name': 'Whibley', 'id': 497}, 'first_author': False, 'id': 716}, {'author': {'first_name': '', 'initials': 'O', 'last_name': 'Omolaja', 'id': 538}, 'first_author': False, 'id': 717}, {'author': {'first_name': 'Denver', 'initials': 'DT', 'last_name': 'Hendricks', 'id': 498}, 'first_author': False, 'id': 718}, {'author': {'first_name': '', 'initials': 'RC', 'last_name': 'Mino', 'id': 540}, 'first_author': False, 'id': 719}, {'author': {'first_name': 'Michael', 'initials': 'MT', 'last_name': 'Davies-Coleman', 'id': 449}, 'first_author': False, 'id': 720}], 'id': 256}]

>  <classifications>  (130) 
[{'classification': 'Diterpene', 'id': 771}, {'classification': 'Terpenoid', 'id': 839}, {'classification': 'Phenol lipids (Classyfire)', 'id': 951}]

>  <molecular_mass>  (130) 
464.59

$$$$
SANC00231_minRM1.pdb
     RDKit          3D

 28 30  0  0  0  0  0  0  0  0999 V2000
    1.5260    2.7930    0.5030 C   0  0  0  0  0  0  0  0  0  0  0  0
    1.7740    1.3630    0.1850 C   0  0  0  0  0  0  0  0  0  0  0  0
    3.0960    0.9400    0.1280 C   0  0  0  0  0  0  0  0  0  0  0  0
    3.3850   -0.4130   -0.0630 C   0  0  0  0  0  0  0  0  0  0  0  0
    4.6720   -0.8190   -0.2460 O   0  0  0  0  0  0  0  0  0  0  0  0
    2.3840   -1.3720   -0.1260 C   0  0  0  0  0  0  0  0  0  0  0  0
    1.0670   -0.9140   -0.0470 C   0  0  0  0  0  0  0  0  0  0  0  0
    0.1540   -1.9310   -0.0080 O   0  0  0  0  0  0  0  0  0  0  0  0
   -1.1510   -1.6130    0.2340 C   0  0  0  0  0  0  0  0  0  0  0  0
   -1.8710   -2.5790    0.4660 O   0  0  0  0  0  0  0  0  0  0  0  0
   -1.6020   -0.2450    0.1350 C   0  0  0  0  0  0  0  0  0  0  0  0
   -2.9780    0.0160    0.1790 C   0  0  0  0  0  0  0  0  0  0  0  0
   -3.9020   -0.9210    0.4270 O   0  0  0  0  0  0  0  0  0  0  0  0
   -3.4580    1.3130   -0.0660 C   0  0  0  0  0  0  0  0  0  0  0  0
   -2.5480    2.3010   -0.3810 C   0  0  0  0  0  0  0  0  0  0  0  0
   -1.1720    2.0510   -0.3970 C   0  0  0  0  0  0  0  0  0  0  0  0
   -0.6820    0.7950   -0.0770 C   0  0  0  0  0  0  0  0  0  0  0  0
    0.7250    0.4450    0.0130 C   0  0  0  0  0  0  0  0  0  0  0  0
    0.8340    2.9040    1.3510 H   0  0  0  0  0  0  0  0  0  0  0  0
    2.4330    3.3500    0.7770 H   0  0  0  0  0  0  0  0  0  0  0  0
    1.0880    3.3330   -0.3500 H   0  0  0  0  0  0  0  0  0  0  0  0
    3.9200    1.6520    0.2260 H   0  0  0  0  0  0  0  0  0  0  0  0
    5.1000   -0.7770    0.6180 H   0  0  0  0  0  0  0  0  0  0  0  0
    2.6140   -2.4360   -0.2350 H   0  0  0  0  0  0  0  0  0  0  0  0
   -3.4860   -1.8050    0.5490 H   0  0  0  0  0  0  0  0  0  0  0  0
   -4.5320    1.5160   -0.0320 H   0  0  0  0  0  0  0  0  0  0  0  0
   -2.9090    3.3060   -0.6350 H   0  0  0  0  0  0  0  0  0  0  0  0
   -0.5080    2.8620   -0.7130 H   0  0  0  0  0  0  0  0  0  0  0  0
  1 21  1  0
  1  2  1  0
  1 20  1  0
  1 19  1  0
  2 18  2  0
  2  3  1  0
  3  4  2  0
  3 22  1  0
  4  5  1  0
  4  6  1  0
  5 23  1  0
  6 24  1  0
  6  7  2  0
  7  8  1  0
  7 18  1  0
  8  9  1  0
  9 11  1  0
  9 10  2  0
 11 17  2  0
 11 12  1  0
 12 14  2  0
 12 13  1  0
 13 25  1  0
 14 15  1  0
 14 26  1  0
 15 27  1  0
 15 16  2  0
 16 28  1  0
 16 17  1  0
 17 18  1  0
M  END
>  <id>  (131) 
231

>  <scaffolds>  (131) 
['c1ccccc1', 'O=c1ccc2ccccc2o1', 'O=c1oc2ccccc2c2ccccc12']

>  <name>  (131) 
Autumnariol

>  <formula>  (131) 
C14H10O4

>  <SMILES>  (131) 
Cc2cc(O)cc3oc(=O)c1c(O)cccc1c23

>  <ChEMBL_id>  (131) 


>  <ZINC_id>  (131) 


>  <PubChem_id>  (131) 


>  <DrugBank_id>  (131) 


>  <CAS_no>  (131) 
32595-80-5

>  <references>  (131) 
[{'journal': {'name': 'Helvetica Chimica Acta', 'id': 12}, 'title': 'Autumnariol and autumnariniol, two new dibenzo-[alpha]-pyrones from Eucomis autumnalis. Detection of long-range coupling over six bonds in the NMR spectra', 'year': 1971, 'start_page': 201, 'volume': 54, 'issue': 1, 'doi': '10.1002/hlca.19710540118', 'isbn': '', 'despositor': {'code': 'rah', 'first_name': 'Rowan', 'last_name': 'Hatherley', 'id': 20}, 'refauthors_set': [{'author': {'first_name': '', 'initials': 'WTL', 'last_name': 'Sidwell', 'id': 541}, 'first_author': True, 'id': 721}, {'author': {'first_name': '', 'initials': 'H', 'last_name': 'Fritz', 'id': 542}, 'first_author': False, 'id': 722}, {'author': {'first_name': 'Christoph', 'initials': 'C', 'last_name': 'Tamm', 'id': 543}, 'first_author': False, 'id': 723}], 'id': 257}, {'journal': {'name': 'Phytochemistry: Advances in Research (Book)', 'id': 13}, 'title': 'Chapter 3: The phytochemistry and ethnobotany of the southern African genus Eucomis (Hyacinthaceae: Hyacinthoideae)', 'year': 2006, 'start_page': 69, 'volume': None, 'issue': None, 'doi': '', 'isbn': '81-308-0034-9', 'despositor': {'code': 'rah', 'first_name': 'Rowan', 'last_name': 'Hatherley', 'id': 20}, 'refauthors_set': [{'author': {'first_name': 'Chantal', 'initials': 'C', 'last_name': 'Koorbanally', 'id': 523}, 'first_author': True, 'id': 851}, {'author': {'first_name': 'Neil', 'initials': 'NR', 'last_name': 'Crouch', 'id': 524}, 'first_author': False, 'id': 852}, {'author': {'first_name': 'Dulcie', 'initials': 'DA', 'last_name': 'Mulholland', 'id': 525}, 'first_author': False, 'id': 853}], 'id': 259}]

>  <classifications>  (131) 
[{'classification': 'Dibenzo-[alpha]-pyrone', 'id': 768}, {'classification': 'Coumarins and derivatives (Classyfire)', 'id': 965}]

>  <molecular_mass>  (131) 
242.23

$$$$
SANC00232_minRM1.pdb
     RDKit          3D

 72 73  0  0  1  0  0  0  0  0999 V2000
   -0.4760    2.1350    0.4800 C   0  0  0  0  0  0  0  0  0  0  0  0
    0.5200    1.0390    0.3240 C   0  0  0  0  0  0  0  0  0  0  0  0
    0.1720   -0.2520    0.3650 C   0  0  0  0  0  0  0  0  0  0  0  0
    1.1770   -1.3760    0.2760 C   0  0  1  0  0  0  0  0  0  0  0  0
    0.5900   -2.5790   -0.4810 C   0  0  0  0  0  0  0  0  0  0  0  0
    1.6410   -3.6570   -0.6950 C   0  0  0  0  0  0  0  0  0  0  0  0
    2.7650   -3.1220   -1.5650 C   0  0  0  0  0  0  0  0  0  0  0  0
    3.4530   -1.9070   -0.9280 C   0  0  1  0  0  0  0  0  0  0  0  0
    2.3810   -0.8700   -0.5400 C   0  0  2  0  0  0  0  0  0  0  0  0
    1.9390   -0.5280   -1.5230 H   0  0  0  0  0  0  0  0  0  0  0  0
    2.9910    0.3980    0.0670 C   0  0  1  0  0  0  0  0  0  0  0  0
    3.8800    0.7180   -0.5530 H   0  0  0  0  0  0  0  0  0  0  0  0
    1.9220    1.5250    0.0980 C   0  0  1  0  0  0  0  0  0  0  0  0
    2.1960    2.2770    0.8890 H   0  0  0  0  0  0  0  0  0  0  0  0
    1.9660    2.0600   -1.2170 O   0  0  0  0  0  0  0  0  0  0  0  0
    1.8660    3.3980   -1.4130 C   0  0  0  0  0  0  0  0  0  0  0  0
    1.6850    4.1700   -0.4900 O   0  0  0  0  0  0  0  0  0  0  0  0
    1.9880    3.7470   -2.8620 C   0  0  0  0  0  0  0  0  0  0  0  0
    3.3810    0.1260    1.3960 O   0  0  0  0  0  0  0  0  0  0  0  0
    4.2920    0.9430    1.9870 C   0  0  0  0  0  0  0  0  0  0  0  0
    4.7810    1.8830    1.3890 O   0  0  0  0  0  0  0  0  0  0  0  0
    4.5750    0.5110    3.3890 C   0  0  0  0  0  0  0  0  0  0  0  0
    4.3520   -2.3520    0.2210 C   0  0  0  0  0  0  0  0  0  0  0  0
    4.3700   -1.2850   -1.9960 C   0  0  0  0  0  0  0  0  0  0  0  0
    1.4450   -1.7800    1.7290 C   0  0  0  0  0  0  0  0  0  0  0  0
   -1.2560   -0.6380    0.5920 C   0  0  0  0  0  0  0  0  0  0  0  0
   -2.0170   -0.6370   -0.7370 C   0  0  0  0  0  0  0  0  0  0  0  0
   -3.4290   -1.0690   -0.5000 C   0  0  0  0  0  0  0  0  0  0  0  0
   -4.3870   -0.1710   -0.2610 C   0  0  0  0  0  0  0  0  0  0  0  0
   -5.8020   -0.5870   -0.0320 C   0  0  0  0  0  0  0  0  0  0  0  0
   -6.4990    0.5930    0.3390 O   0  0  0  0  0  0  0  0  0  0  0  0
   -7.8290    0.4850    0.5840 C   0  0  0  0  0  0  0  0  0  0  0  0
   -8.3970   -0.5830    0.4610 O   0  0  0  0  0  0  0  0  0  0  0  0
   -8.4250    1.7950    0.9900 C   0  0  0  0  0  0  0  0  0  0  0  0
   -3.7020   -2.5290   -0.5310 C   0  0  0  0  0  0  0  0  0  0  0  0
   -0.0660    3.0350    0.9660 H   0  0  0  0  0  0  0  0  0  0  0  0
   -0.8710    2.4540   -0.4990 H   0  0  0  0  0  0  0  0  0  0  0  0
   -1.3450    1.8370    1.0940 H   0  0  0  0  0  0  0  0  0  0  0  0
   -0.2810   -3.0130    0.0580 H   0  0  0  0  0  0  0  0  0  0  0  0
    0.1580   -2.2500   -1.4530 H   0  0  0  0  0  0  0  0  0  0  0  0
    2.0250   -4.0480    0.2700 H   0  0  0  0  0  0  0  0  0  0  0  0
    1.1790   -4.5480   -1.1760 H   0  0  0  0  0  0  0  0  0  0  0  0
    3.5050   -3.9220   -1.7790 H   0  0  0  0  0  0  0  0  0  0  0  0
    2.3620   -2.8580   -2.5680 H   0  0  0  0  0  0  0  0  0  0  0  0
    2.5810    3.0200   -3.4350 H   0  0  0  0  0  0  0  0  0  0  0  0
    0.9910    3.7960   -3.3270 H   0  0  0  0  0  0  0  0  0  0  0  0
    2.4640    4.7330   -2.9860 H   0  0  0  0  0  0  0  0  0  0  0  0
    5.0750   -0.4690    3.4080 H   0  0  0  0  0  0  0  0  0  0  0  0
    5.2290    1.2310    3.9020 H   0  0  0  0  0  0  0  0  0  0  0  0
    3.6510    0.4180    3.9810 H   0  0  0  0  0  0  0  0  0  0  0  0
    4.9870   -3.2060   -0.0590 H   0  0  0  0  0  0  0  0  0  0  0  0
    5.0440   -1.5620    0.5490 H   0  0  0  0  0  0  0  0  0  0  0  0
    3.7940   -2.6640    1.1150 H   0  0  0  0  0  0  0  0  0  0  0  0
    3.8350   -0.9970   -2.9130 H   0  0  0  0  0  0  0  0  0  0  0  0
    4.8700   -0.3700   -1.6350 H   0  0  0  0  0  0  0  0  0  0  0  0
    5.1660   -1.9780   -2.3060 H   0  0  0  0  0  0  0  0  0  0  0  0
    0.7120   -2.5110    2.1040 H   0  0  0  0  0  0  0  0  0  0  0  0
    2.4320   -2.2370    1.8840 H   0  0  0  0  0  0  0  0  0  0  0  0
    1.3900   -0.9290    2.4230 H   0  0  0  0  0  0  0  0  0  0  0  0
   -1.3460   -1.6250    1.0950 H   0  0  0  0  0  0  0  0  0  0  0  0
   -1.7450    0.0670    1.3070 H   0  0  0  0  0  0  0  0  0  0  0  0
   -1.9750    0.3700   -1.2070 H   0  0  0  0  0  0  0  0  0  0  0  0
   -1.5140   -1.2950   -1.4810 H   0  0  0  0  0  0  0  0  0  0  0  0
   -4.1700    0.9030   -0.2320 H   0  0  0  0  0  0  0  0  0  0  0  0
   -6.2400   -1.0320   -0.9520 H   0  0  0  0  0  0  0  0  0  0  0  0
   -5.8920   -1.3550    0.7680 H   0  0  0  0  0  0  0  0  0  0  0  0
   -8.4940    2.4780    0.1300 H   0  0  0  0  0  0  0  0  0  0  0  0
   -9.4430    1.6620    1.3890 H   0  0  0  0  0  0  0  0  0  0  0  0
   -7.8280    2.3050    1.7610 H   0  0  0  0  0  0  0  0  0  0  0  0
   -4.1400   -2.8890    0.4130 H   0  0  0  0  0  0  0  0  0  0  0  0
   -4.4110   -2.7900   -1.3320 H   0  0  0  0  0  0  0  0  0  0  0  0
   -2.8040   -3.1410   -0.7010 H   0  0  0  0  0  0  0  0  0  0  0  0
  1 37  1  0
  1  2  1  0
  1 36  1  0
  1 38  1  0
  2 13  1  0
  2  3  2  0
  3  4  1  0
  3 26  1  0
  4  9  1  0
  4  5  1  0
  4 25  1  1
  5 40  1  0
  5  6  1  0
  5 39  1  0
  6  7  1  0
  6 42  1  0
  6 41  1  0
  7 44  1  0
  7 43  1  0
  7  8  1  0
  8 24  1  6
  8  9  1  0
  8 23  1  0
  9 10  1  6
  9 11  1  0
 11 12  1  6
 11 13  1  0
 11 19  1  0
 13 15  1  0
 13 14  1  1
 15 16  1  0
 16 18  1  0
 16 17  2  0
 18 45  1  0
 18 46  1  0
 18 47  1  0
 19 20  1  0
 20 21  2  0
 20 22  1  0
 22 48  1  0
 22 49  1  0
 22 50  1  0
 23 51  1  0
 23 52  1  0
 23 53  1  0
 24 54  1  0
 24 56  1  0
 24 55  1  0
 25 58  1  0
 25 57  1  0
 25 59  1  0
 26 27  1  0
 26 60  1  0
 26 61  1  0
 27 63  1  0
 27 62  1  0
 27 28  1  0
 28 35  1  0
 28 29  2  0
 29 64  1  0
 29 30  1  0
 30 65  1  0
 30 31  1  0
 30 66  1  0
 31 32  1  0
 32 33  2  0
 32 34  1  0
 34 67  1  0
 34 68  1  0
 34 69  1  0
 35 71  1  0
 35 72  1  0
 35 70  1  0
M  END
>  <id>  (132) 
232

>  <scaffolds>  (132) 
['C1=CC2CCCCC2CC1', 'C1=CCCCC1', 'C1CCCCC1']

>  <name>  (132) 
6[beta],7[alpha],15-triacetoxylabda-8,13E-diene

>  <formula>  (132) 
C26H40O6

>  <SMILES>  (132) 
CC1=C([C@]2(CCCC([C@@H]2[C@@H]([C@H]1OC(=O)C)OC(=O)C)(C)C)C)CC/C(=C/COC(=O)C)/C

>  <ChEMBL_id>  (132) 
CHEMBL267935

>  <ZINC_id>  (132) 


>  <PubChem_id>  (132) 


>  <DrugBank_id>  (132) 


>  <CAS_no>  (132) 
1015763-01-5

>  <references>  (132) 
[{'journal': {'name': 'Journal of Natural Products', 'id': 5}, 'title': 'Bioactive metabolites from the South African marine mollusk Trimusculus costatus', 'year': 2008, 'start_page': 420, 'volume': 71, 'issue': 3, 'doi': '10.1021/np070612y ', 'isbn': '', 'despositor': {'code': 'TMM', 'first_name': 'Thommas', 'last_name': 'Musyoka', 'id': 22}, 'refauthors_set': [{'author': {'first_name': '', 'initials': 'AW', 'last_name': 'van Wyk', 'id': 537}, 'first_author': True, 'id': 714}, {'author': {'first_name': '', 'initials': 'CA', 'last_name': 'Gray', 'id': 480}, 'first_author': False, 'id': 715}, {'author': {'first_name': 'Catherine', 'initials': 'CE', 'last_name': 'Whibley', 'id': 497}, 'first_author': False, 'id': 716}, {'author': {'first_name': '', 'initials': 'O', 'last_name': 'Omolaja', 'id': 538}, 'first_author': False, 'id': 717}, {'author': {'first_name': 'Denver', 'initials': 'DT', 'last_name': 'Hendricks', 'id': 498}, 'first_author': False, 'id': 718}, {'author': {'first_name': '', 'initials': 'RC', 'last_name': 'Mino', 'id': 540}, 'first_author': False, 'id': 719}, {'author': {'first_name': 'Michael', 'initials': 'MT', 'last_name': 'Davies-Coleman', 'id': 449}, 'first_author': False, 'id': 720}], 'id': 256}]

>  <classifications>  (132) 
[{'classification': 'Diterpene', 'id': 771}, {'classification': 'Terpenoid', 'id': 839}, {'classification': 'Phenol lipids (Classyfire)', 'id': 951}]

>  <molecular_mass>  (132) 
448.59

$$$$
SANC00233_minRM1.pdb
     RDKit          3D

 73 75  0  0  1  0  0  0  0  0999 V2000
    4.6370   -2.3000    0.7040 C   0  0  0  0  0  0  0  0  0  0  0  0
    3.3550   -1.7020    0.1230 C   0  0  2  0  0  0  0  0  0  0  0  0
    3.4150   -1.8260   -0.9900 H   0  0  0  0  0  0  0  0  0  0  0  0
    3.2870   -0.2110    0.4630 C   0  0  0  0  0  0  0  0  0  0  0  0
    4.3190    0.5940   -0.3280 C   0  0  0  0  0  0  0  0  0  0  0  0
    4.2360    2.0740    0.0380 C   0  0  0  0  0  0  0  0  0  0  0  0
    5.0930    2.9460   -0.8850 C   0  0  1  0  0  0  0  0  0  0  0  0
    4.8880    4.4160   -0.5270 C   0  0  0  0  0  0  0  0  0  0  0  0
    6.5710    2.5940   -0.7670 C   0  0  0  0  0  0  0  0  0  0  0  0
    2.1420   -2.5020    0.6290 C   0  0  1  0  0  0  0  0  0  0  0  0
    2.4320   -3.5770    0.4800 H   0  0  0  0  0  0  0  0  0  0  0  0
    1.8730   -2.2930    2.1230 C   0  0  0  0  0  0  0  0  0  0  0  0
    0.7120   -1.3150    2.2210 C   0  0  0  0  0  0  0  0  0  0  0  0
   -0.1590   -1.6220    0.9960 C   0  0  2  0  0  0  0  0  0  0  0  0
   -0.8920   -2.4060    1.3280 H   0  0  0  0  0  0  0  0  0  0  0  0
    0.7730   -2.2530   -0.0830 C   0  0  1  0  0  0  0  0  0  0  0  0
    0.8820   -1.4160   -1.3480 C   0  0  0  0  0  0  0  0  0  0  0  0
    0.2190   -3.6400   -0.4870 C   0  0  0  0  0  0  0  0  0  0  0  0
   -1.1110   -3.5680   -1.2490 C   0  0  0  0  0  0  0  0  0  0  0  0
   -1.6020   -4.8810   -1.2540 O   0  0  0  0  0  0  0  0  0  0  0  0
   -0.9200   -0.4100    0.5610 C   0  0  0  0  0  0  0  0  0  0  0  0
   -0.3410    0.7710    0.3210 C   0  0  0  0  0  0  0  0  0  0  0  0
   -1.1170    1.9520   -0.1100 C   0  0  0  0  0  0  0  0  0  0  0  0
   -0.5730    3.0030   -0.4030 O   0  0  0  0  0  0  0  0  0  0  0  0
   -2.5830    1.7860   -0.1350 C   0  0  0  0  0  0  0  0  0  0  0  0
   -3.3830    2.7710    0.2710 C   0  0  0  0  0  0  0  0  0  0  0  0
   -4.8710    2.5890    0.3560 C   0  0  1  0  0  0  0  0  0  0  0  0
   -5.3330    2.9620   -0.6010 H   0  0  0  0  0  0  0  0  0  0  0  0
   -5.2000    1.1040    0.5700 C   0  0  0  0  0  0  0  0  0  0  0  0
   -4.5740    0.3140   -0.5700 C   0  0  0  0  0  0  0  0  0  0  0  0
   -3.0450    0.4280   -0.5550 C   0  0  2  0  0  0  0  0  0  0  0  0
   -2.4010   -0.5270    0.4430 C   0  0  0  0  0  0  0  0  0  0  0  0
   -3.0440   -1.3070    1.1140 O   0  0  0  0  0  0  0  0  0  0  0  0
   -2.5150    0.0940   -1.9500 C   0  0  0  0  0  0  0  0  0  0  0  0
   -5.3940    3.2550    1.4690 O   0  0  0  0  0  0  0  0  0  0  0  0
    4.7570   -3.3650    0.4530 H   0  0  0  0  0  0  0  0  0  0  0  0
    5.5370   -1.7980    0.3170 H   0  0  0  0  0  0  0  0  0  0  0  0
    4.6930   -2.2280    1.7990 H   0  0  0  0  0  0  0  0  0  0  0  0
    2.2650    0.1790    0.2400 H   0  0  0  0  0  0  0  0  0  0  0  0
    3.4280   -0.0400    1.5490 H   0  0  0  0  0  0  0  0  0  0  0  0
    5.3400    0.2040   -0.1340 H   0  0  0  0  0  0  0  0  0  0  0  0
    4.1650    0.4560   -1.4190 H   0  0  0  0  0  0  0  0  0  0  0  0
    3.1800    2.4190   -0.0050 H   0  0  0  0  0  0  0  0  0  0  0  0
    4.5330    2.2240    1.0980 H   0  0  0  0  0  0  0  0  0  0  0  0
    4.7660    2.7890   -1.9460 H   0  0  0  0  0  0  0  0  0  0  0  0
    5.2080    4.6430    0.5000 H   0  0  0  0  0  0  0  0  0  0  0  0
    5.4560    5.0850   -1.1900 H   0  0  0  0  0  0  0  0  0  0  0  0
    3.8350    4.7210   -0.6070 H   0  0  0  0  0  0  0  0  0  0  0  0
    6.9190    2.5910    0.2750 H   0  0  0  0  0  0  0  0  0  0  0  0
    6.8040    1.6060   -1.1870 H   0  0  0  0  0  0  0  0  0  0  0  0
    7.2080    3.3100   -1.3090 H   0  0  0  0  0  0  0  0  0  0  0  0
    1.6050   -3.2580    2.6040 H   0  0  0  0  0  0  0  0  0  0  0  0
    2.7570   -1.9510    2.6940 H   0  0  0  0  0  0  0  0  0  0  0  0
    0.1410   -1.4310    3.1650 H   0  0  0  0  0  0  0  0  0  0  0  0
    1.0660   -0.2670    2.2660 H   0  0  0  0  0  0  0  0  0  0  0  0
    1.4310   -0.4720   -1.2090 H   0  0  0  0  0  0  0  0  0  0  0  0
    1.3960   -1.9560   -2.1580 H   0  0  0  0  0  0  0  0  0  0  0  0
   -0.1000   -1.1190   -1.7550 H   0  0  0  0  0  0  0  0  0  0  0  0
    0.9560   -4.1810   -1.1200 H   0  0  0  0  0  0  0  0  0  0  0  0
    0.1070   -4.2860    0.4120 H   0  0  0  0  0  0  0  0  0  0  0  0
   -1.8250   -2.8520   -0.7800 H   0  0  0  0  0  0  0  0  0  0  0  0
   -0.9660   -3.2050   -2.2940 H   0  0  0  0  0  0  0  0  0  0  0  0
   -2.5140   -4.8440   -1.5560 H   0  0  0  0  0  0  0  0  0  0  0  0
    0.7430    0.9300    0.4260 H   0  0  0  0  0  0  0  0  0  0  0  0
   -2.9780    3.7450    0.5710 H   0  0  0  0  0  0  0  0  0  0  0  0
   -4.8310    0.7500    1.5560 H   0  0  0  0  0  0  0  0  0  0  0  0
   -6.2980    0.9490    0.6090 H   0  0  0  0  0  0  0  0  0  0  0  0
   -4.8860   -0.7500   -0.5230 H   0  0  0  0  0  0  0  0  0  0  0  0
   -4.9770    0.6710   -1.5430 H   0  0  0  0  0  0  0  0  0  0  0  0
   -2.7740    0.8740   -2.6810 H   0  0  0  0  0  0  0  0  0  0  0  0
   -1.4190   -0.0200   -1.9920 H   0  0  0  0  0  0  0  0  0  0  0  0
   -2.9350   -0.8510   -2.3260 H   0  0  0  0  0  0  0  0  0  0  0  0
   -5.2950    4.2000    1.3200 H   0  0  0  0  0  0  0  0  0  0  0  0
  1  2  1  0
  1 37  1  0
  1 36  1  0
  1 38  1  0
  2  3  1  6
  2  4  1  0
  2 10  1  0
  4  5  1  0
  4 39  1  0
  4 40  1  0
  5 42  1  0
  5 41  1  0
  5  6  1  0
  6  7  1  0
  6 43  1  0
  6 44  1  0
  7 45  1  6
  7  9  1  0
  7  8  1  0
  8 47  1  0
  8 48  1  0
  8 46  1  0
  9 51  1  0
  9 50  1  0
  9 49  1  0
 10 16  1  0
 10 11  1  1
 10 12  1  0
 12 13  1  0
 12 52  1  0
 12 53  1  0
 13 14  1  0
 13 55  1  0
 13 54  1  0
 14 16  1  0
 14 21  1  0
 14 15  1  1
 16 17  1  6
 16 18  1  0
 17 57  1  0
 17 58  1  0
 17 56  1  0
 18 19  1  0
 18 59  1  0
 18 60  1  0
 19 62  1  0
 19 20  1  0
 19 61  1  0
 20 63  1  0
 21 22  2  0
 21 32  1  0
 22 23  1  0
 22 64  1  0
 23 24  2  0
 23 25  1  0
 25 31  1  0
 25 26  2  0
 26 27  1  0
 26 65  1  0
 27 28  1  6
 27 29  1  0
 27 35  1  0
 29 30  1  0
 29 67  1  0
 29 66  1  0
 30 69  1  0
 30 31  1  0
 30 68  1  0
 31 34  1  6
 31 32  1  0
 32 33  2  0
 34 70  1  0
 34 72  1  0
 34 71  1  0
 35 73  1  0
M  END
>  <id>  (133) 
233

>  <scaffolds>  (133) 
['C1=CCCCC1', 'O=C1C=CCCC1', 'C=C1CCC=CC1=O']

>  <name>  (133) 
3[alpha],11-dihydroxy-9,11-seco-cholest-4,7-dien-6,9-dione

>  <formula>  (133) 
C27H42O4

>  <SMILES>  (133) 
C[C@H](CCCC(C)C)[C@H]1CC[C@H]([C@]1(C)CCO)C2=CC(=O)C3=C[C@@H](CC[C@@]3(C2=O)C)O

>  <ChEMBL_id>  (133) 
CHEMBL401943

>  <ZINC_id>  (133) 


>  <PubChem_id>  (133) 


>  <DrugBank_id>  (133) 


>  <CAS_no>  (133) 
1015763-02-6

>  <references>  (133) 
[{'journal': {'name': 'Journal of Natural Products', 'id': 5}, 'title': 'Bioactive metabolites from the South African marine mollusk Trimusculus costatus', 'year': 2008, 'start_page': 420, 'volume': 71, 'issue': 3, 'doi': '10.1021/np070612y ', 'isbn': '', 'despositor': {'code': 'TMM', 'first_name': 'Thommas', 'last_name': 'Musyoka', 'id': 22}, 'refauthors_set': [{'author': {'first_name': '', 'initials': 'AW', 'last_name': 'van Wyk', 'id': 537}, 'first_author': True, 'id': 714}, {'author': {'first_name': '', 'initials': 'CA', 'last_name': 'Gray', 'id': 480}, 'first_author': False, 'id': 715}, {'author': {'first_name': 'Catherine', 'initials': 'CE', 'last_name': 'Whibley', 'id': 497}, 'first_author': False, 'id': 716}, {'author': {'first_name': '', 'initials': 'O', 'last_name': 'Omolaja', 'id': 538}, 'first_author': False, 'id': 717}, {'author': {'first_name': 'Denver', 'initials': 'DT', 'last_name': 'Hendricks', 'id': 498}, 'first_author': False, 'id': 718}, {'author': {'first_name': '', 'initials': 'RC', 'last_name': 'Mino', 'id': 540}, 'first_author': False, 'id': 719}, {'author': {'first_name': 'Michael', 'initials': 'MT', 'last_name': 'Davies-Coleman', 'id': 449}, 'first_author': False, 'id': 720}], 'id': 256}]

>  <classifications>  (133) 
[{'classification': 'Diterpene', 'id': 771}, {'classification': 'Terpenoid', 'id': 839}, {'classification': 'Phenol lipids (Classyfire)', 'id': 951}]

>  <molecular_mass>  (133) 
430.62

$$$$
SANC00234_minRM1.pdb
     RDKit          3D

 76 79  0  0  1  0  0  0  0  0999 V2000
   -3.3260    1.8450    0.3780 C   0  0  0  0  0  0  0  0  0  0  0  0
   -3.3790    0.3850   -0.0600 C   0  0  2  0  0  0  0  0  0  0  0  0
   -3.3840    0.3380   -1.1780 H   0  0  0  0  0  0  0  0  0  0  0  0
   -4.6890   -0.2370    0.4530 C   0  0  0  0  0  0  0  0  0  0  0  0
   -5.9040    0.4120   -0.2130 C   0  0  0  0  0  0  0  0  0  0  0  0
   -7.1990   -0.1920    0.3240 C   0  0  0  0  0  0  0  0  0  0  0  0
   -8.4340    0.5820   -0.1470 C   0  0  1  0  0  0  0  0  0  0  0  0
   -8.5670    0.5440   -1.6650 C   0  0  0  0  0  0  0  0  0  0  0  0
   -9.6840   -0.0200    0.4890 C   0  0  0  0  0  0  0  0  0  0  0  0
   -2.1820   -0.3900    0.5010 C   0  0  1  0  0  0  0  0  0  0  0  0
   -2.2610   -0.3600    1.6190 H   0  0  0  0  0  0  0  0  0  0  0  0
   -2.1690   -1.8690    0.0460 C   0  0  0  0  0  0  0  0  0  0  0  0
   -0.6950   -2.2870   -0.0990 C   0  0  0  0  0  0  0  0  0  0  0  0
    0.0720   -1.1120    0.4900 C   0  0  2  0  0  0  0  0  0  0  0  0
   -0.7720    0.1130    0.0870 C   0  0  2  0  0  0  0  0  0  0  0  0
   -0.2460    1.3250    0.8710 C   0  0  0  0  0  0  0  0  0  0  0  0
    1.2750    1.2930    1.1310 C   0  0  0  0  0  0  0  0  0  0  0  0
    1.9810    0.4860    0.0530 C   0  0  2  0  0  0  0  0  0  0  0  0
    1.5830   -1.0020    0.2050 C   0  0  2  0  0  0  0  0  0  0  0  0
    2.1030   -1.6680   -1.0460 C   0  0  0  0  0  0  0  0  0  0  0  0
    3.3680   -1.4380   -1.4030 C   0  0  0  0  0  0  0  0  0  0  0  0
    4.2340   -0.6230   -0.4730 C   0  0  2  0  0  0  0  0  0  0  0  0
    3.5030    0.7090   -0.1350 C   0  0  2  0  0  0  0  0  0  0  0  0
    4.2310    1.3370    1.0530 C   0  0  0  0  0  0  0  0  0  0  0  0
    5.6960    1.6060    0.7100 C   0  0  0  0  0  0  0  0  0  0  0  0
    6.4300    0.3840    0.1270 C   0  0  1  0  0  0  0  0  0  0  0  0
    6.6380   -0.3500    0.9540 H   0  0  0  0  0  0  0  0  0  0  0  0
    5.6440   -0.3110   -1.0010 C   0  0  0  0  0  0  0  0  0  0  0  0
    7.6300    0.7860   -0.4770 O   0  0  0  0  0  0  0  0  0  0  0  0
    3.6200    1.6690   -1.3370 C   0  0  0  0  0  0  0  0  0  0  0  0
    4.4020   -1.3550    0.7130 O   0  0  0  0  0  0  0  0  0  0  0  0
    2.2200   -1.4910    1.3500 O   0  0  0  0  0  0  0  0  0  0  0  0
   -0.7630    0.3670   -1.4180 C   0  0  0  0  0  0  0  0  0  0  0  0
   -3.2160    1.9550    1.4670 H   0  0  0  0  0  0  0  0  0  0  0  0
   -2.4990    2.4010   -0.0840 H   0  0  0  0  0  0  0  0  0  0  0  0
   -4.2460    2.3870    0.1040 H   0  0  0  0  0  0  0  0  0  0  0  0
   -4.7160   -1.3310    0.2670 H   0  0  0  0  0  0  0  0  0  0  0  0
   -4.7510   -0.1410    1.5570 H   0  0  0  0  0  0  0  0  0  0  0  0
   -5.8870    1.5130   -0.0530 H   0  0  0  0  0  0  0  0  0  0  0  0
   -5.8410    0.2850   -1.3140 H   0  0  0  0  0  0  0  0  0  0  0  0
   -7.2750   -1.2600    0.0290 H   0  0  0  0  0  0  0  0  0  0  0  0
   -7.1780   -0.2110    1.4350 H   0  0  0  0  0  0  0  0  0  0  0  0
   -8.3450    1.6500    0.1820 H   0  0  0  0  0  0  0  0  0  0  0  0
   -7.7870    1.1300   -2.1710 H   0  0  0  0  0  0  0  0  0  0  0  0
   -8.5110   -0.4780   -2.0650 H   0  0  0  0  0  0  0  0  0  0  0  0
   -9.5270    0.9620   -2.0040 H   0  0  0  0  0  0  0  0  0  0  0  0
   -9.6390   -0.0090    1.5870 H   0  0  0  0  0  0  0  0  0  0  0  0
  -10.5950    0.5290    0.2110 H   0  0  0  0  0  0  0  0  0  0  0  0
   -9.8430   -1.0660    0.1890 H   0  0  0  0  0  0  0  0  0  0  0  0
   -2.6950   -2.5140    0.7770 H   0  0  0  0  0  0  0  0  0  0  0  0
   -2.7190   -2.0230   -0.9030 H   0  0  0  0  0  0  0  0  0  0  0  0
   -0.4720   -3.2380    0.4230 H   0  0  0  0  0  0  0  0  0  0  0  0
   -0.4160   -2.4870   -1.1540 H   0  0  0  0  0  0  0  0  0  0  0  0
   -0.0210   -1.1920    1.6130 H   0  0  0  0  0  0  0  0  0  0  0  0
   -0.5090    2.2680    0.3450 H   0  0  0  0  0  0  0  0  0  0  0  0
   -0.7700    1.4120    1.8460 H   0  0  0  0  0  0  0  0  0  0  0  0
    1.6590    2.3350    1.1630 H   0  0  0  0  0  0  0  0  0  0  0  0
    1.5010    0.8830    2.1370 H   0  0  0  0  0  0  0  0  0  0  0  0
    1.5200    0.8070   -0.9250 H   0  0  0  0  0  0  0  0  0  0  0  0
    1.4100   -2.2670   -1.6400 H   0  0  0  0  0  0  0  0  0  0  0  0
    3.8140   -1.8270   -2.3190 H   0  0  0  0  0  0  0  0  0  0  0  0
    3.7520    2.2950    1.3490 H   0  0  0  0  0  0  0  0  0  0  0  0
    4.1380    0.6980    1.9560 H   0  0  0  0  0  0  0  0  0  0  0  0
    5.7770    2.4650    0.0090 H   0  0  0  0  0  0  0  0  0  0  0  0
    6.2280    1.9540    1.6220 H   0  0  0  0  0  0  0  0  0  0  0  0
    6.1700   -1.2360   -1.3180 H   0  0  0  0  0  0  0  0  0  0  0  0
    5.6190    0.3060   -1.9220 H   0  0  0  0  0  0  0  0  0  0  0  0
    8.1780    1.1900    0.2010 H   0  0  0  0  0  0  0  0  0  0  0  0
    3.1980    1.2410   -2.2590 H   0  0  0  0  0  0  0  0  0  0  0  0
    3.0950    2.6170   -1.1450 H   0  0  0  0  0  0  0  0  0  0  0  0
    4.6530    1.9490   -1.5930 H   0  0  0  0  0  0  0  0  0  0  0  0
    4.7510   -2.2180    0.4690 H   0  0  0  0  0  0  0  0  0  0  0  0
    2.1970   -2.4520    1.3050 H   0  0  0  0  0  0  0  0  0  0  0  0
   -1.2810   -0.4100   -1.9980 H   0  0  0  0  0  0  0  0  0  0  0  0
   -1.2390    1.3200   -1.6920 H   0  0  0  0  0  0  0  0  0  0  0  0
    0.2510    0.4100   -1.8470 H   0  0  0  0  0  0  0  0  0  0  0  0
  1 35  1  0
  1  2  1  0
  1 36  1  0
  1 34  1  0
  2  3  1  6
  2  4  1  0
  2 10  1  0
  4  5  1  0
  4 37  1  0
  4 38  1  0
  5 40  1  0
  5 39  1  0
  5  6  1  0
  6  7  1  0
  6 41  1  0
  6 42  1  0
  7  8  1  0
  7 43  1  1
  7  9  1  0
  8 44  1  0
  8 45  1  0
  8 46  1  0
  9 49  1  0
  9 48  1  0
  9 47  1  0
 10 12  1  0
 10 15  1  0
 10 11  1  1
 12 51  1  0
 12 13  1  0
 12 50  1  0
 13 53  1  0
 13 52  1  0
 13 14  1  0
 14 15  1  0
 14 19  1  0
 14 54  1  1
 15 33  1  6
 15 16  1  0
 16 55  1  0
 16 17  1  0
 16 56  1  0
 17 18  1  0
 17 57  1  0
 17 58  1  0
 18 59  1  6
 18 23  1  0
 18 19  1  0
 19 20  1  0
 19 32  1  1
 20 60  1  0
 20 21  2  0
 21 61  1  0
 21 22  1  0
 22 28  1  0
 22 23  1  0
 22 31  1  1
 23 30  1  6
 23 24  1  0
 24 25  1  0
 24 62  1  0
 24 63  1  0
 25 64  1  0
 25 26  1  0
 25 65  1  0
 26 28  1  0
 26 29  1  0
 26 27  1  1
 28 67  1  0
 28 66  1  0
 29 68  1  0
 30 69  1  0
 30 71  1  0
 30 70  1  0
 31 72  1  0
 32 73  1  0
 33 74  1  0
 33 76  1  0
 33 75  1  0
M  END
>  <id>  (134) 
234

>  <scaffolds>  (134) 
['C1=CC2CCCCC2CC1', 'C1=CCCCC1', 'C1CCCCC1', 'C1=CC2C3CCCC3CCC2C2CCCCC12']

>  <name>  (134) 
Cholest-7-en-3,5,7-triol

>  <formula>  (134) 
C27H46O3

>  <SMILES>  (134) 
C[C@H](CCCC(C)C)[C@H]1CCC2[C@@]1(CCC3[C@@]2(C=C[C@@]4([C@@]3(CC[C@@H](C4)O)C)O)O)C

>  <ChEMBL_id>  (134) 


>  <ZINC_id>  (134) 


>  <PubChem_id>  (134) 


>  <DrugBank_id>  (134) 


>  <CAS_no>  (134) 
15401-33-9

>  <references>  (134) 
[{'journal': {'name': 'Journal of Natural Products', 'id': 5}, 'title': 'Bioactive metabolites from the South African marine mollusk Trimusculus costatus', 'year': 2008, 'start_page': 420, 'volume': 71, 'issue': 3, 'doi': '10.1021/np070612y ', 'isbn': '', 'despositor': {'code': 'TMM', 'first_name': 'Thommas', 'last_name': 'Musyoka', 'id': 22}, 'refauthors_set': [{'author': {'first_name': '', 'initials': 'AW', 'last_name': 'van Wyk', 'id': 537}, 'first_author': True, 'id': 714}, {'author': {'first_name': '', 'initials': 'CA', 'last_name': 'Gray', 'id': 480}, 'first_author': False, 'id': 715}, {'author': {'first_name': 'Catherine', 'initials': 'CE', 'last_name': 'Whibley', 'id': 497}, 'first_author': False, 'id': 716}, {'author': {'first_name': '', 'initials': 'O', 'last_name': 'Omolaja', 'id': 538}, 'first_author': False, 'id': 717}, {'author': {'first_name': 'Denver', 'initials': 'DT', 'last_name': 'Hendricks', 'id': 498}, 'first_author': False, 'id': 718}, {'author': {'first_name': '', 'initials': 'RC', 'last_name': 'Mino', 'id': 540}, 'first_author': False, 'id': 719}, {'author': {'first_name': 'Michael', 'initials': 'MT', 'last_name': 'Davies-Coleman', 'id': 449}, 'first_author': False, 'id': 720}], 'id': 256}]

>  <classifications>  (134) 
[{'classification': 'Diterpene', 'id': 771}, {'classification': 'Terpenoid', 'id': 839}, {'classification': 'Steroids and steroid derivatives (Classyfire)', 'id': 942}]

>  <molecular_mass>  (134) 
418.65

$$$$
SANC00235_minRM1.pdb
     RDKit          3D

 80 83  0  0  1  0  0  0  0  0999 V2000
    2.0890    3.4130    0.7510 C   0  0  0  0  0  0  0  0  0  0  0  0
    2.5510    2.0030    0.7490 C   0  0  0  0  0  0  0  0  0  0  0  0
    1.9640    1.0040    0.0710 C   0  0  0  0  0  0  0  0  0  0  0  0
    2.5400   -0.3920    0.2100 C   0  0  1  0  0  0  0  0  0  0  0  0
    1.9550   -1.3880   -0.7980 C   0  0  0  0  0  0  0  0  0  0  0  0
    2.7930   -1.4400   -2.0640 C   0  0  0  0  0  0  0  0  0  0  0  0
    4.0860   -2.0760   -1.6460 C   0  0  0  0  0  0  0  0  0  0  0  0
    4.4800   -3.1190   -2.1290 O   0  0  0  0  0  0  0  0  0  0  0  0
    4.8770   -1.3260   -0.5890 C   0  0  1  0  0  0  0  0  0  0  0  0
    4.0510   -0.3240    0.1600 C   0  0  0  0  0  0  0  0  0  0  0  0
    4.6150    0.6470    0.9050 C   0  0  0  0  0  0  0  0  0  0  0  0
    3.7770    1.7180    1.5090 C   0  0  0  0  0  0  0  0  0  0  0  0
    4.1220    2.3070    2.5190 O   0  0  0  0  0  0  0  0  0  0  0  0
    5.9580    0.7300    1.0520 O   0  0  0  0  0  0  0  0  0  0  0  0
    5.4680   -2.3240    0.4060 C   0  0  0  0  0  0  0  0  0  0  0  0
    5.9940   -0.6380   -1.3850 C   0  0  0  0  0  0  0  0  0  0  0  0
    2.1680   -0.8920    1.6210 C   0  0  0  0  0  0  0  0  0  0  0  0
    0.7490    1.2540   -0.7630 C   0  0  0  0  0  0  0  0  0  0  0  0
   -0.5250    1.0660    0.0680 C   0  0  0  0  0  0  0  0  0  0  0  0
   -1.7840    0.8360   -0.7830 C   0  0  1  0  0  0  0  0  0  0  0  0
   -1.5300    0.1060   -1.6030 H   0  0  0  0  0  0  0  0  0  0  0  0
   -2.8840    0.1430    0.0750 C   0  0  2  0  0  0  0  0  0  0  0  0
   -2.3860   -1.2860    0.3740 C   0  0  0  0  0  0  0  0  0  0  0  0
   -3.0370   -1.9820    1.5570 C   0  0  0  0  0  0  0  0  0  0  0  0
   -4.5390   -1.9570    1.6130 C   0  0  0  0  0  0  0  0  0  0  0  0
   -5.0940   -2.1220    2.6850 O   0  0  0  0  0  0  0  0  0  0  0  0
   -5.3640   -1.7640    0.3400 C   0  0  1  0  0  0  0  0  0  0  0  0
   -5.2730   -0.4170   -0.0320 O   0  0  0  0  0  0  0  0  0  0  0  0
   -4.1700    0.0300   -0.7760 C   0  0  1  0  0  0  0  0  0  0  0  0
   -3.9780   -0.6230   -1.6720 H   0  0  0  0  0  0  0  0  0  0  0  0
   -4.6330    1.4040   -1.2800 C   0  0  0  0  0  0  0  0  0  0  0  0
   -3.5780    1.9560   -2.2150 C   0  0  0  0  0  0  0  0  0  0  0  0
   -2.2290    2.1390   -1.4980 C   0  0  1  0  0  0  0  0  0  0  0  0
   -2.2790    3.3750   -0.5950 C   0  0  0  0  0  0  0  0  0  0  0  0
   -1.2440    2.3340   -2.4830 O   0  0  0  0  0  0  0  0  0  0  0  0
   -4.9720   -2.7800   -0.7280 C   0  0  0  0  0  0  0  0  0  0  0  0
   -6.8660   -1.9340    0.6440 C   0  0  0  0  0  0  0  0  0  0  0  0
   -3.1430    0.8840    1.3790 C   0  0  0  0  0  0  0  0  0  0  0  0
    2.6170    4.0420    1.4850 H   0  0  0  0  0  0  0  0  0  0  0  0
    2.2460    3.8870   -0.2330 H   0  0  0  0  0  0  0  0  0  0  0  0
    1.0190    3.5060    0.9930 H   0  0  0  0  0  0  0  0  0  0  0  0
    1.8900   -2.4090   -0.3570 H   0  0  0  0  0  0  0  0  0  0  0  0
    0.8970   -1.1500   -1.0430 H   0  0  0  0  0  0  0  0  0  0  0  0
    2.2870   -2.0130   -2.8710 H   0  0  0  0  0  0  0  0  0  0  0  0
    2.9710   -0.4340   -2.4950 H   0  0  0  0  0  0  0  0  0  0  0  0
    6.1510    1.2910    1.8160 H   0  0  0  0  0  0  0  0  0  0  0  0
    6.1450   -3.0370   -0.0870 H   0  0  0  0  0  0  0  0  0  0  0  0
    6.0490   -1.8270    1.1950 H   0  0  0  0  0  0  0  0  0  0  0  0
    4.6880   -2.9190    0.9030 H   0  0  0  0  0  0  0  0  0  0  0  0
    5.6500    0.2970   -1.8490 H   0  0  0  0  0  0  0  0  0  0  0  0
    6.8730   -0.3950   -0.7720 H   0  0  0  0  0  0  0  0  0  0  0  0
    6.3860   -1.2760   -2.1920 H   0  0  0  0  0  0  0  0  0  0  0  0
    1.0940   -1.1090    1.7150 H   0  0  0  0  0  0  0  0  0  0  0  0
    2.6980   -1.8220    1.8780 H   0  0  0  0  0  0  0  0  0  0  0  0
    2.4070   -0.1750    2.4180 H   0  0  0  0  0  0  0  0  0  0  0  0
    0.7910    2.2730   -1.2050 H   0  0  0  0  0  0  0  0  0  0  0  0
    0.7420    0.5930   -1.6590 H   0  0  0  0  0  0  0  0  0  0  0  0
   -0.3780    0.1980    0.7510 H   0  0  0  0  0  0  0  0  0  0  0  0
   -0.6570    1.9280    0.7540 H   0  0  0  0  0  0  0  0  0  0  0  0
   -2.4750   -1.9260   -0.5350 H   0  0  0  0  0  0  0  0  0  0  0  0
   -1.2860   -1.2730    0.5720 H   0  0  0  0  0  0  0  0  0  0  0  0
   -2.7280   -3.0540    1.5730 H   0  0  0  0  0  0  0  0  0  0  0  0
   -2.6280   -1.5810    2.5130 H   0  0  0  0  0  0  0  0  0  0  0  0
   -5.6060    1.3120   -1.8110 H   0  0  0  0  0  0  0  0  0  0  0  0
   -4.8590    2.0970   -0.4440 H   0  0  0  0  0  0  0  0  0  0  0  0
   -3.4560    1.2900   -3.0980 H   0  0  0  0  0  0  0  0  0  0  0  0
   -3.9230    2.9170   -2.6540 H   0  0  0  0  0  0  0  0  0  0  0  0
   -2.9850    3.2580    0.2400 H   0  0  0  0  0  0  0  0  0  0  0  0
   -1.2970    3.6040   -0.1490 H   0  0  0  0  0  0  0  0  0  0  0  0
   -2.5900    4.2820   -1.1380 H   0  0  0  0  0  0  0  0  0  0  0  0
   -1.4460    3.1450   -2.9580 H   0  0  0  0  0  0  0  0  0  0  0  0
   -5.2760   -3.7940   -0.4370 H   0  0  0  0  0  0  0  0  0  0  0  0
   -5.4650   -2.5690   -1.6880 H   0  0  0  0  0  0  0  0  0  0  0  0
   -3.8900   -2.8350   -0.9280 H   0  0  0  0  0  0  0  0  0  0  0  0
   -7.2270   -1.1970    1.3760 H   0  0  0  0  0  0  0  0  0  0  0  0
   -7.4770   -1.8140   -0.2610 H   0  0  0  0  0  0  0  0  0  0  0  0
   -7.0800   -2.9270    1.0620 H   0  0  0  0  0  0  0  0  0  0  0  0
   -3.2900    1.9660    1.2380 H   0  0  0  0  0  0  0  0  0  0  0  0
   -4.0430    0.5340    1.9050 H   0  0  0  0  0  0  0  0  0  0  0  0
   -2.3170    0.7830    2.0980 H   0  0  0  0  0  0  0  0  0  0  0  0
  1 40  1  0
  1  2  1  0
  1 41  1  0
  1 39  1  0
  2  3  2  0
  2 12  1  0
  3 18  1  0
  3  4  1  0
  4  5  1  0
  4 10  1  0
  4 17  1  1
  5  6  1  0
  5 43  1  0
  5 42  1  0
  6 44  1  0
  6 45  1  0
  6  7  1  0
  7  8  2  0
  7  9  1  0
  9 16  1  6
  9 10  1  0
  9 15  1  0
 10 11  2  0
 11 14  1  0
 11 12  1  0
 12 13  2  0
 14 46  1  0
 15 47  1  0
 15 49  1  0
 15 48  1  0
 16 52  1  0
 16 50  1  0
 16 51  1  0
 17 53  1  0
 17 54  1  0
 17 55  1  0
 18 57  1  0
 18 56  1  0
 18 19  1  0
 19 20  1  0
 19 58  1  0
 19 59  1  0
 20 21  1  6
 20 33  1  0
 20 22  1  0
 22 29  1  0
 22 23  1  0
 22 38  1  1
 23 60  1  0
 23 61  1  0
 23 24  1  0
 24 62  1  0
 24 25  1  0
 24 63  1  0
 25 27  1  0
 25 26  2  0
 27 36  1  6
 27 28  1  0
 27 37  1  0
 28 29  1  0
 29 30  1  6
 29 31  1  0
 31 32  1  0
 31 64  1  0
 31 65  1  0
 32 66  1  0
 32 67  1  0
 32 33  1  0
 33 35  1  6
 33 34  1  0
 34 70  1  0
 34 69  1  0
 34 68  1  0
 35 71  1  0
 36 73  1  0
 36 74  1  0
 36 72  1  0
 37 76  1  0
 37 77  1  0
 37 75  1  0
 38 78  1  0
 38 79  1  0
 38 80  1  0
M  END
>  <id>  (135) 
235

>  <scaffolds>  (135) 
['C1CCCCC1']

>  <name>  (135) 
Sodwanone A

>  <formula>  (135) 
C30H44O6

>  <SMILES>  (135) 
CC1=C([C@]2(CCC(=O)C(C2=C(C1=O)O)(C)C)C)CC[C@H]3[C@@]4(CCC(=O)C(O[C@H]4CC[C@]3(C)O)(C)C)C

>  <ChEMBL_id>  (135) 
CHEMBL513880

>  <ZINC_id>  (135) 


>  <PubChem_id>  (135) 


>  <DrugBank_id>  (135) 


>  <CAS_no>  (135) 
150050-12-7

>  <references>  (135) 
[{'journal': {'name': 'Annals of the New York Academy of Sciences', 'id': 15}, 'title': 'Antiesophageal Cancer Activity from Southern African Marine Organisms', 'year': 2005, 'start_page': 405, 'volume': 1056, 'issue': None, 'doi': '10.1196/annals.1352.031', 'isbn': '', 'despositor': {'code': 'TMM', 'first_name': 'Thommas', 'last_name': 'Musyoka', 'id': 22}, 'refauthors_set': [{'author': {'first_name': 'Catherine', 'initials': 'CE', 'last_name': 'Whibley', 'id': 497}, 'first_author': True, 'id': 732}, {'author': {'first_name': '', 'initials': 'RA', 'last_name': 'Keyzers', 'id': 546}, 'first_author': False, 'id': 733}, {'author': {'first_name': '', 'initials': 'AG', 'last_name': 'Soper', 'id': 547}, 'first_author': False, 'id': 734}, {'author': {'first_name': 'Michael', 'initials': 'MT', 'last_name': 'Davies-Coleman', 'id': 449}, 'first_author': False, 'id': 735}, {'author': {'first_name': 'Toufiek', 'initials': 'T', 'last_name': 'Samaai', 'id': 517}, 'first_author': False, 'id': 736}, {'author': {'first_name': 'Denver', 'initials': 'DT', 'last_name': 'Hendricks', 'id': 498}, 'first_author': False, 'id': 737}], 'id': 264}, {'journal': {'name': 'Journal of Natural Products', 'id': 5}, 'title': 'Sodwanone and Yardenone Triterpenes from a South African Species of the Marine Sponge Axinella Inhibit Hypoxia-Inducible Factor-1 (HIF-1) Activation in Both Breast and Prostate Tumor Cells', 'year': 2006, 'start_page': 1715, 'volume': 69, 'issue': None, 'doi': '10.1021/np060278q', 'isbn': '', 'despositor': {'code': 'NFA', 'first_name': 'Ngonidzashe', 'last_name': 'Faya', 'id': 21}, 'refauthors_set': [{'author': {'first_name': 'Jingqiu', 'initials': 'J', 'last_name': 'Dai', 'id': 782}, 'first_author': True, 'id': 1112}, {'author': {'first_name': 'James', 'initials': 'JA', 'last_name': 'Fishback', 'id': 783}, 'first_author': False, 'id': 1113}, {'author': {'first_name': 'Yu-Dong', 'initials': 'Y', 'last_name': 'Zhou', 'id': 784}, 'first_author': False, 'id': 1114}, {'author': {'first_name': 'Dale', 'initials': 'DG', 'last_name': 'Nagle', 'id': 785}, 'first_author': False, 'id': 1115}], 'id': 367}]

>  <classifications>  (135) 
[{'classification': 'Terpenoid', 'id': 839}, {'classification': 'Triterpene', 'id': 842}, {'classification': 'Phenol lipids (Classyfire)', 'id': 951}]

>  <molecular_mass>  (135) 
500.67

$$$$
SANC00236_minRM1.pdb
     RDKit          3D

 55 58  0  0  1  0  0  0  0  0999 V2000
   -5.4490   -1.0780   -1.1850 C   0  0  0  0  0  0  0  0  0  0  0  0
   -4.6420    0.0050   -0.4730 C   0  0  1  0  0  0  0  0  0  0  0  0
   -5.2140    1.3540   -0.9470 C   0  0  0  0  0  0  0  0  0  0  0  0
   -4.8280   -0.0900    1.0450 C   0  0  0  0  0  0  0  0  0  0  0  0
   -4.0560   -1.2440    1.6650 C   0  0  0  0  0  0  0  0  0  0  0  0
   -2.5690   -1.1240    1.3600 C   0  0  0  0  0  0  0  0  0  0  0  0
   -2.3170   -1.1130   -0.1540 C   0  0  1  0  0  0  0  0  0  0  0  0
   -2.7720   -2.4660   -0.7190 C   0  0  0  0  0  0  0  0  0  0  0  0
   -3.1490   -0.0190   -0.8350 C   0  0  0  0  0  0  0  0  0  0  0  0
   -0.8240   -0.8920   -0.3540 C   0  0  0  0  0  0  0  0  0  0  0  0
   -0.0580   -1.9280   -0.9080 C   0  0  0  0  0  0  0  0  0  0  0  0
    1.3300   -1.8740   -1.0940 C   0  0  0  0  0  0  0  0  0  0  0  0
    1.9790   -0.7590   -0.6240 C   0  0  0  0  0  0  0  0  0  0  0  0
    1.2420    0.2320    0.0060 C   0  0  0  0  0  0  0  0  0  0  0  0
   -0.1330    0.2660    0.0620 C   0  0  0  0  0  0  0  0  0  0  0  0
   -0.6080    1.6270    0.4740 C   0  0  1  0  0  0  0  0  0  0  0  0
   -1.6410    1.8360    0.0940 H   0  0  0  0  0  0  0  0  0  0  0  0
   -0.6030    1.7960    1.9880 C   0  0  0  0  0  0  0  0  0  0  0  0
    0.3020    2.6850   -0.1460 C   0  0  0  0  0  0  0  0  0  0  0  0
   -0.1000    3.6990   -0.6780 O   0  0  0  0  0  0  0  0  0  0  0  0
    1.6670    2.5730   -0.1240 O   0  0  0  0  0  0  0  0  0  0  0  0
    2.1590    1.3560    0.3850 C   0  0  2  0  0  0  0  0  0  0  0  0
    2.3920    1.4670    1.4760 H   0  0  0  0  0  0  0  0  0  0  0  0
    3.3570    1.1110   -0.3280 O   0  0  0  0  0  0  0  0  0  0  0  0
    3.3950   -0.2490   -0.7250 C   0  0  1  0  0  0  0  0  0  0  0  0
    3.8580   -0.3090   -1.7420 H   0  0  0  0  0  0  0  0  0  0  0  0
    4.1060   -0.8960    0.3060 O   0  0  0  0  0  0  0  0  0  0  0  0
    5.4690   -0.8410    0.2990 C   0  0  0  0  0  0  0  0  0  0  0  0
    6.0500   -1.4130    1.5520 C   0  0  0  0  0  0  0  0  0  0  0  0
    6.0690   -0.3980   -0.6600 O   0  0  0  0  0  0  0  0  0  0  0  0
   -5.2640   -2.0940   -0.8040 H   0  0  0  0  0  0  0  0  0  0  0  0
   -6.5330   -0.9210   -1.0750 H   0  0  0  0  0  0  0  0  0  0  0  0
   -5.2410   -1.1090   -2.2650 H   0  0  0  0  0  0  0  0  0  0  0  0
   -6.2800    1.4610   -0.7010 H   0  0  0  0  0  0  0  0  0  0  0  0
   -4.7140    2.2220   -0.4950 H   0  0  0  0  0  0  0  0  0  0  0  0
   -5.1260    1.4770   -2.0370 H   0  0  0  0  0  0  0  0  0  0  0  0
   -4.5180    0.8600    1.5280 H   0  0  0  0  0  0  0  0  0  0  0  0
   -5.9070   -0.1810    1.2910 H   0  0  0  0  0  0  0  0  0  0  0  0
   -4.2180   -1.2630    2.7640 H   0  0  0  0  0  0  0  0  0  0  0  0
   -4.4480   -2.2250    1.3200 H   0  0  0  0  0  0  0  0  0  0  0  0
   -2.1590   -0.2100    1.8440 H   0  0  0  0  0  0  0  0  0  0  0  0
   -2.0070   -1.9590    1.8320 H   0  0  0  0  0  0  0  0  0  0  0  0
   -3.7690   -2.7590   -0.3420 H   0  0  0  0  0  0  0  0  0  0  0  0
   -2.8420   -2.4700   -1.8170 H   0  0  0  0  0  0  0  0  0  0  0  0
   -2.1100   -3.3000   -0.4360 H   0  0  0  0  0  0  0  0  0  0  0  0
   -3.0210   -0.0780   -1.9370 H   0  0  0  0  0  0  0  0  0  0  0  0
   -2.7370    0.9780   -0.5770 H   0  0  0  0  0  0  0  0  0  0  0  0
   -0.5330   -2.8620   -1.2420 H   0  0  0  0  0  0  0  0  0  0  0  0
    1.8640   -2.6870   -1.6010 H   0  0  0  0  0  0  0  0  0  0  0  0
    0.3500    1.5240    2.4640 H   0  0  0  0  0  0  0  0  0  0  0  0
   -0.8270    2.8290    2.2900 H   0  0  0  0  0  0  0  0  0  0  0  0
   -1.3730    1.1490    2.4440 H   0  0  0  0  0  0  0  0  0  0  0  0
    6.1680   -2.5050    1.4550 H   0  0  0  0  0  0  0  0  0  0  0  0
    7.0420   -0.9840    1.7580 H   0  0  0  0  0  0  0  0  0  0  0  0
    5.4220   -1.2350    2.4390 H   0  0  0  0  0  0  0  0  0  0  0  0
  1 33  1  0
  1 32  1  0
  1 31  1  0
  2  1  1  6
  2  3  1  0
  2  9  1  0
  2  4  1  0
  3 36  1  0
  3 34  1  0
  3 35  1  0
  4 38  1  0
  4 37  1  0
  4  5  1  0
  5 40  1  0
  5  6  1  0
  5 39  1  0
  6  7  1  0
  6 42  1  0
  6 41  1  0
  7  9  1  0
  7  8  1  6
  7 10  1  0
  8 44  1  0
  8 45  1  0
  8 43  1  0
  9 46  1  0
  9 47  1  0
 10 11  2  0
 10 15  1  0
 11 48  1  0
 11 12  1  0
 12 49  1  0
 12 13  2  0
 13 25  1  0
 13 14  1  0
 14 15  2  0
 14 22  1  0
 15 16  1  0
 16 19  1  0
 16 17  1  6
 16 18  1  0
 18 51  1  0
 18 52  1  0
 18 50  1  0
 19 20  2  0
 19 21  1  0
 21 22  1  0
 22 24  1  0
 22 23  1  1
 24 25  1  0
 25 26  1  6
 25 27  1  0
 27 28  1  0
 28 30  2  0
 28 29  1  0
 29 53  1  0
 29 54  1  0
 29 55  1  0
M  END
>  <id>  (136) 
236

>  <scaffolds>  (136) 
['c1ccccc1', 'C1CCCCC1', 'O=C1Cc2c(C3CCCCC3)ccc3c2C(OC3)O1']

>  <name>  (136) 
Aplysulphurin-1

>  <formula>  (136) 
C22H28O5

>  <SMILES>  (136) 
CC1(C)CCC[C@@](C)(C1)c2ccc3c4c2[C@@H](C)C(=O)O[C@@H]4O[C@H]3OC(C)=O

>  <ChEMBL_id>  (136) 


>  <ZINC_id>  (136) 


>  <PubChem_id>  (136) 


>  <DrugBank_id>  (136) 


>  <CAS_no>  (136) 
91236-90-7

>  <references>  (136) 
[{'journal': {'name': 'Annals of the New York Academy of Sciences', 'id': 15}, 'title': 'Antiesophageal Cancer Activity from Southern African Marine Organisms', 'year': 2005, 'start_page': 405, 'volume': 1056, 'issue': None, 'doi': '10.1196/annals.1352.031', 'isbn': '', 'despositor': {'code': 'TMM', 'first_name': 'Thommas', 'last_name': 'Musyoka', 'id': 22}, 'refauthors_set': [{'author': {'first_name': 'Catherine', 'initials': 'CE', 'last_name': 'Whibley', 'id': 497}, 'first_author': True, 'id': 732}, {'author': {'first_name': '', 'initials': 'RA', 'last_name': 'Keyzers', 'id': 546}, 'first_author': False, 'id': 733}, {'author': {'first_name': '', 'initials': 'AG', 'last_name': 'Soper', 'id': 547}, 'first_author': False, 'id': 734}, {'author': {'first_name': 'Michael', 'initials': 'MT', 'last_name': 'Davies-Coleman', 'id': 449}, 'first_author': False, 'id': 735}, {'author': {'first_name': 'Toufiek', 'initials': 'T', 'last_name': 'Samaai', 'id': 517}, 'first_author': False, 'id': 736}, {'author': {'first_name': 'Denver', 'initials': 'DT', 'last_name': 'Hendricks', 'id': 498}, 'first_author': False, 'id': 737}], 'id': 264}]

>  <classifications>  (136) 
[{'classification': 'Diterpene', 'id': 771}, {'classification': 'Terpenoid', 'id': 839}, {'classification': 'Benzopyrans (Classyfire)', 'id': 966}]

>  <molecular_mass>  (136) 
372.45

$$$$
SANC00237_minRM1.pdb
     RDKit          3D

 64 66  0  0  1  0  0  0  0  0999 V2000
    5.5990   -2.2460   -0.7810 C   0  0  0  0  0  0  0  0  0  0  0  0
    4.5310   -1.8860    0.1940 C   0  0  0  0  0  0  0  0  0  0  0  0
    4.5930   -1.9150    1.4020 O   0  0  0  0  0  0  0  0  0  0  0  0
    3.3760   -1.5350   -0.4370 O   0  0  0  0  0  0  0  0  0  0  0  0
    2.3020   -1.0500    0.3380 C   0  0  1  0  0  0  0  0  0  0  0  0
    2.1330   -1.6440    1.2770 H   0  0  0  0  0  0  0  0  0  0  0  0
    2.6470    0.2520    0.7080 O   0  0  0  0  0  0  0  0  0  0  0  0
    2.1220    1.1740   -0.2200 C   0  0  1  0  0  0  0  0  0  0  0  0
    1.3940    1.8400    0.3110 H   0  0  0  0  0  0  0  0  0  0  0  0
    3.2410    1.8620   -0.7390 O   0  0  0  0  0  0  0  0  0  0  0  0
    3.8070    2.8270    0.0380 C   0  0  0  0  0  0  0  0  0  0  0  0
    4.9800    3.4690   -0.6300 C   0  0  0  0  0  0  0  0  0  0  0  0
    3.3460    3.0910    1.1310 O   0  0  0  0  0  0  0  0  0  0  0  0
    1.4950    0.3540   -1.3730 C   0  0  2  0  0  0  0  0  0  0  0  0
    2.2820    0.0970   -2.1320 H   0  0  0  0  0  0  0  0  0  0  0  0
    0.3830    1.0960   -2.0840 C   0  0  0  0  0  0  0  0  0  0  0  0
   -0.9060    1.1010   -1.2810 C   0  0  0  0  0  0  0  0  0  0  0  0
   -1.2900   -0.3410   -0.9180 C   0  0  1  0  0  0  0  0  0  0  0  0
   -1.1290   -0.9980   -1.8200 H   0  0  0  0  0  0  0  0  0  0  0  0
   -0.2550   -0.8010    0.0710 C   0  0  0  0  0  0  0  0  0  0  0  0
   -0.3190   -1.0840    1.3780 C   0  0  0  0  0  0  0  0  0  0  0  0
   -1.4330   -0.9640    2.3490 C   0  0  0  0  0  0  0  0  0  0  0  0
    1.0850   -0.9330   -0.6290 C   0  0  2  0  0  0  0  0  0  0  0  0
    1.0410   -1.8130   -1.3120 H   0  0  0  0  0  0  0  0  0  0  0  0
   -2.8230   -0.4350   -0.6640 C   0  0  1  0  0  0  0  0  0  0  0  0
   -3.4900   -0.1570   -2.0240 C   0  0  0  0  0  0  0  0  0  0  0  0
   -3.1900   -1.8640   -0.2620 C   0  0  0  0  0  0  0  0  0  0  0  0
   -4.6360   -1.9710    0.2090 C   0  0  0  0  0  0  0  0  0  0  0  0
   -4.8820   -1.0290    1.3780 C   0  0  0  0  0  0  0  0  0  0  0  0
   -4.6670    0.4320    0.9790 C   0  0  1  0  0  0  0  0  0  0  0  0
   -5.7860    0.9090    0.0500 C   0  0  0  0  0  0  0  0  0  0  0  0
   -4.7390    1.3060    2.2420 C   0  0  0  0  0  0  0  0  0  0  0  0
   -3.2860    0.6310    0.3370 C   0  0  0  0  0  0  0  0  0  0  0  0
    5.4340   -3.2510   -1.1640 H   0  0  0  0  0  0  0  0  0  0  0  0
    5.6280   -1.5600   -1.6380 H   0  0  0  0  0  0  0  0  0  0  0  0
    6.5860   -2.2250   -0.2990 H   0  0  0  0  0  0  0  0  0  0  0  0
    5.0910    3.2020   -1.6910 H   0  0  0  0  0  0  0  0  0  0  0  0
    4.8960    4.5680   -0.5800 H   0  0  0  0  0  0  0  0  0  0  0  0
    5.8970    3.1900   -0.1100 H   0  0  0  0  0  0  0  0  0  0  0  0
    0.7080    2.1320   -2.3170 H   0  0  0  0  0  0  0  0  0  0  0  0
    0.2050    0.6380   -3.0820 H   0  0  0  0  0  0  0  0  0  0  0  0
   -0.8150    1.7290   -0.3710 H   0  0  0  0  0  0  0  0  0  0  0  0
   -1.7010    1.6000   -1.8810 H   0  0  0  0  0  0  0  0  0  0  0  0
    0.5930   -1.4460    1.8980 H   0  0  0  0  0  0  0  0  0  0  0  0
   -1.7180    0.0960    2.4830 H   0  0  0  0  0  0  0  0  0  0  0  0
   -2.3460   -1.5270    2.0600 H   0  0  0  0  0  0  0  0  0  0  0  0
   -1.1520   -1.3270    3.3460 H   0  0  0  0  0  0  0  0  0  0  0  0
   -3.2320   -0.9010   -2.7920 H   0  0  0  0  0  0  0  0  0  0  0  0
   -4.5890   -0.1500   -1.9660 H   0  0  0  0  0  0  0  0  0  0  0  0
   -3.2030    0.8250   -2.4390 H   0  0  0  0  0  0  0  0  0  0  0  0
   -3.0190   -2.5630   -1.1120 H   0  0  0  0  0  0  0  0  0  0  0  0
   -2.5070   -2.2540    0.5240 H   0  0  0  0  0  0  0  0  0  0  0  0
   -5.3490   -1.7880   -0.6180 H   0  0  0  0  0  0  0  0  0  0  0  0
   -4.8610   -3.0180    0.5130 H   0  0  0  0  0  0  0  0  0  0  0  0
   -5.9040   -1.1730    1.7880 H   0  0  0  0  0  0  0  0  0  0  0  0
   -4.2070   -1.3020    2.2220 H   0  0  0  0  0  0  0  0  0  0  0  0
   -6.7770    0.7470    0.4870 H   0  0  0  0  0  0  0  0  0  0  0  0
   -5.7190    1.9850   -0.1610 H   0  0  0  0  0  0  0  0  0  0  0  0
   -5.7860    0.4030   -0.9200 H   0  0  0  0  0  0  0  0  0  0  0  0
   -4.0280    0.9950    3.0360 H   0  0  0  0  0  0  0  0  0  0  0  0
   -4.5270    2.3650    2.0240 H   0  0  0  0  0  0  0  0  0  0  0  0
   -5.7410    1.2720    2.7060 H   0  0  0  0  0  0  0  0  0  0  0  0
   -2.5230    0.7390    1.1390 H   0  0  0  0  0  0  0  0  0  0  0  0
   -3.2760    1.6340   -0.1440 H   0  0  0  0  0  0  0  0  0  0  0  0
  1 35  1  0
  1 34  1  0
  1 36  1  0
  1  2  1  0
  2  4  1  0
  2  3  2  0
  4  5  1  0
  5 23  1  0
  5  7  1  0
  5  6  1  1
  7  8  1  0
  8 14  1  0
  8 10  1  0
  8  9  1  1
 10 11  1  0
 11 12  1  0
 11 13  2  0
 12 37  1  0
 12 38  1  0
 12 39  1  0
 14 15  1  6
 14 16  1  0
 14 23  1  0
 16 41  1  0
 16 40  1  0
 16 17  1  0
 17 43  1  0
 17 18  1  0
 17 42  1  0
 18 19  1  6
 18 25  1  0
 18 20  1  0
 20 23  1  0
 20 21  2  0
 21 44  1  0
 21 22  1  0
 22 46  1  0
 22 45  1  0
 22 47  1  0
 23 24  1  6
 25 26  1  6
 25 27  1  0
 25 33  1  0
 26 48  1  0
 26 50  1  0
 26 49  1  0
 27 51  1  0
 27 28  1  0
 27 52  1  0
 28 53  1  0
 28 54  1  0
 28 29  1  0
 29 30  1  0
 29 55  1  0
 29 56  1  0
 30 31  1  6
 30 33  1  0
 30 32  1  0
 31 59  1  0
 31 58  1  0
 31 57  1  0
 32 61  1  0
 32 62  1  0
 32 60  1  0
 33 64  1  0
 33 63  1  0
M  END
>  <id>  (137) 
237

>  <scaffolds>  (137) 
['C1CCCCC1']

>  <name>  (137) 
9,11-dihydrogracilin A

>  <formula>  (137) 
C23H36O5

>  <SMILES>  (137) 
CC(=O)O[C@H]1O[C@@H](OC(C)=O)[C@@H]2CC[C@@H](C(=C\C)/[C@H]12)C3(C)CCCC(C)(C)C3

>  <ChEMBL_id>  (137) 


>  <ZINC_id>  (137) 


>  <PubChem_id>  (137) 


>  <DrugBank_id>  (137) 


>  <CAS_no>  (137) 
106231-25-8

>  <references>  (137) 
[{'journal': {'name': 'Annals of the New York Academy of Sciences', 'id': 15}, 'title': 'Antiesophageal Cancer Activity from Southern African Marine Organisms', 'year': 2005, 'start_page': 405, 'volume': 1056, 'issue': None, 'doi': '10.1196/annals.1352.031', 'isbn': '', 'despositor': {'code': 'TMM', 'first_name': 'Thommas', 'last_name': 'Musyoka', 'id': 22}, 'refauthors_set': [{'author': {'first_name': 'Catherine', 'initials': 'CE', 'last_name': 'Whibley', 'id': 497}, 'first_author': True, 'id': 732}, {'author': {'first_name': '', 'initials': 'RA', 'last_name': 'Keyzers', 'id': 546}, 'first_author': False, 'id': 733}, {'author': {'first_name': '', 'initials': 'AG', 'last_name': 'Soper', 'id': 547}, 'first_author': False, 'id': 734}, {'author': {'first_name': 'Michael', 'initials': 'MT', 'last_name': 'Davies-Coleman', 'id': 449}, 'first_author': False, 'id': 735}, {'author': {'first_name': 'Toufiek', 'initials': 'T', 'last_name': 'Samaai', 'id': 517}, 'first_author': False, 'id': 736}, {'author': {'first_name': 'Denver', 'initials': 'DT', 'last_name': 'Hendricks', 'id': 498}, 'first_author': False, 'id': 737}], 'id': 264}]

>  <classifications>  (137) 
[{'classification': 'Diterpene', 'id': 771}, {'classification': 'Terpenoid', 'id': 839}, {'classification': 'Isobenzofurans (Classyfire)', 'id': 967}]

>  <molecular_mass>  (137) 
392.53

$$$$
SANC00238_minRM1.pdb
     RDKit          3D

 22 24  0  0  0  0  0  0  0  0999 V2000
    3.0200   -0.1320    0.1790 C   0  0  0  0  0  0  0  0  0  0  0  0
    2.8360    1.3040   -0.3660 C   0  0  0  0  0  0  0  0  0  0  0  0
    1.5870    1.9580    0.0580 N   0  0  0  0  0  0  0  0  0  0  0  0
    0.4000    1.2560    0.0460 C   0  0  0  0  0  0  0  0  0  0  0  0
   -0.8570    1.7750    0.1030 C   0  0  0  0  0  0  0  0  0  0  0  0
   -2.0320    0.9190    0.1040 C   0  0  0  0  0  0  0  0  0  0  0  0
   -3.1650    1.3590    0.1950 O   0  0  0  0  0  0  0  0  0  0  0  0
   -1.8850   -0.6000   -0.0260 C   0  0  0  0  0  0  0  0  0  0  0  0
   -2.8390   -1.3450   -0.1090 O   0  0  0  0  0  0  0  0  0  0  0  0
   -0.5050   -1.0680   -0.0350 C   0  0  0  0  0  0  0  0  0  0  0  0
    0.5510   -0.1700    0.0080 C   0  0  0  0  0  0  0  0  0  0  0  0
    1.7640   -0.8850    0.0450 C   0  0  0  0  0  0  0  0  0  0  0  0
    1.4320   -2.2370    0.0030 C   0  0  0  0  0  0  0  0  0  0  0  0
    0.0380   -2.3400   -0.0480 N   0  0  0  0  0  0  0  0  0  0  0  0
    3.8610   -0.6250   -0.3510 H   0  0  0  0  0  0  0  0  0  0  0  0
    3.3240   -0.1120    1.2490 H   0  0  0  0  0  0  0  0  0  0  0  0
    3.6900    1.9410   -0.0360 H   0  0  0  0  0  0  0  0  0  0  0  0
    2.8940    1.2800   -1.4820 H   0  0  0  0  0  0  0  0  0  0  0  0
    1.5610    2.9710    0.0610 H   0  0  0  0  0  0  0  0  0  0  0  0
   -1.0430    2.8500    0.1530 H   0  0  0  0  0  0  0  0  0  0  0  0
    2.0780   -3.1110    0.0060 H   0  0  0  0  0  0  0  0  0  0  0  0
   -0.4960   -3.1970   -0.0860 H   0  0  0  0  0  0  0  0  0  0  0  0
  1  2  1  0
  1 15  1  0
  1 12  1  0
  1 16  1  0
  2 18  1  0
  2 17  1  0
  2  3  1  0
  3  4  1  0
  3 19  1  0
  4 11  1  0
  4  5  2  0
  5  6  1  0
  5 20  1  0
  6  8  1  0
  6  7  2  0
  8  9  2  0
  8 10  1  0
 10 14  1  0
 10 11  2  0
 11 12  1  0
 12 13  2  0
 13 14  1  0
 13 21  1  0
 14 22  1  0
M  END
>  <id>  (138) 
238

>  <scaffolds>  (138) 
[]

>  <name>  (138) 
Damirone C

>  <formula>  (138) 
C10H8N2O2

>  <SMILES>  (138) 
C1CNC2=CC(=O)C(=O)C3=C2C1=CN3

>  <ChEMBL_id>  (138) 
CHEMBL469984

>  <ZINC_id>  (138) 


>  <PubChem_id>  (138) 
 10465081

>  <DrugBank_id>  (138) 


>  <CAS_no>  (138) 
157669-64-2

>  <references>  (138) 
[{'journal': {'name': 'Annals of the New York Academy of Sciences', 'id': 15}, 'title': 'Antiesophageal Cancer Activity from Southern African Marine Organisms', 'year': 2005, 'start_page': 405, 'volume': 1056, 'issue': None, 'doi': '10.1196/annals.1352.031', 'isbn': '', 'despositor': {'code': 'TMM', 'first_name': 'Thommas', 'last_name': 'Musyoka', 'id': 22}, 'refauthors_set': [{'author': {'first_name': 'Catherine', 'initials': 'CE', 'last_name': 'Whibley', 'id': 497}, 'first_author': True, 'id': 732}, {'author': {'first_name': '', 'initials': 'RA', 'last_name': 'Keyzers', 'id': 546}, 'first_author': False, 'id': 733}, {'author': {'first_name': '', 'initials': 'AG', 'last_name': 'Soper', 'id': 547}, 'first_author': False, 'id': 734}, {'author': {'first_name': 'Michael', 'initials': 'MT', 'last_name': 'Davies-Coleman', 'id': 449}, 'first_author': False, 'id': 735}, {'author': {'first_name': 'Toufiek', 'initials': 'T', 'last_name': 'Samaai', 'id': 517}, 'first_author': False, 'id': 736}, {'author': {'first_name': 'Denver', 'initials': 'DT', 'last_name': 'Hendricks', 'id': 498}, 'first_author': False, 'id': 737}], 'id': 264}]

>  <classifications>  (138) 
[{'classification': 'Alkaloid', 'id': 738}, {'classification': 'Damirone', 'id': 767}, {'classification': 'Pyrroloiminoquinone', 'id': 820}, {'classification': 'Quinolines and derivatives (Classyfire)', 'id': 948}]

>  <molecular_mass>  (138) 
188.18

$$$$
SANC00239_minRM1.pdb
     RDKit          3D

 23 25  0  0  0  0  0  0  0  0999 V2000
   -3.3320   -1.1960   -0.0760 N   0  0  0  0  0  0  0  0  0  0  0  0
   -2.0160   -0.7920   -0.0310 C   0  0  0  0  0  0  0  0  0  0  0  0
   -1.0030   -1.7030   -0.0310 C   0  0  0  0  0  0  0  0  0  0  0  0
    0.3940   -1.2950    0.0260 C   0  0  0  0  0  0  0  0  0  0  0  0
    1.3990   -2.1120    0.1170 N   0  0  0  0  0  0  0  0  0  0  0  0
    2.7480   -1.5460    0.2580 C   0  0  0  0  0  0  0  0  0  0  0  0
    3.0460   -0.0780   -0.1480 C   0  0  0  0  0  0  0  0  0  0  0  0
    1.8420    0.7600   -0.0560 C   0  0  0  0  0  0  0  0  0  0  0  0
    1.5920    2.1340   -0.0650 C   0  0  0  0  0  0  0  0  0  0  0  0
    0.2100    2.3290   -0.0280 N   0  0  0  0  0  0  0  0  0  0  0  0
   -0.2700    3.2150   -0.0220 H   0  0  0  0  0  0  0  0  0  0  0  0
   -0.4110    1.0880   -0.0000 C   0  0  0  0  0  0  0  0  0  0  0  0
   -1.8070    0.7000    0.0100 C   0  0  0  0  0  0  0  0  0  0  0  0
   -2.7280    1.5000    0.0420 O   0  0  0  0  0  0  0  0  0  0  0  0
    0.5880    0.1310   -0.0080 C   0  0  0  0  0  0  0  0  0  0  0  0
   -4.0860   -0.5380   -0.0360 H   0  0  0  0  0  0  0  0  0  0  0  0
   -3.5640   -2.1680   -0.1330 H   0  0  0  0  0  0  0  0  0  0  0  0
   -1.1960   -2.7810   -0.0600 H   0  0  0  0  0  0  0  0  0  0  0  0
    3.0270   -1.7020    1.3280 H   0  0  0  0  0  0  0  0  0  0  0  0
    3.4120   -2.2310   -0.3180 H   0  0  0  0  0  0  0  0  0  0  0  0
    3.8700    0.3270    0.4760 H   0  0  0  0  0  0  0  0  0  0  0  0
    3.4360   -0.0350   -1.1890 H   0  0  0  0  0  0  0  0  0  0  0  0
    2.2920    2.9640   -0.0950 H   0  0  0  0  0  0  0  0  0  0  0  0
  1 17  1  0
  1 16  1  0
  1  2  1  0
  2  3  2  0
  2 13  1  0
  3 18  1  0
  3  4  1  0
  4 15  1  0
  4  5  2  0
  5  6  1  0
  6 20  1  0
  6  7  1  0
  6 19  1  0
  7 22  1  0
  7  8  1  0
  7 21  1  0
  8  9  2  0
  8 15  1  0
  9 23  1  0
  9 10  1  0
 10 11  1  0
 10 12  1  0
 12 15  2  0
 12 13  1  0
 13 14  2  0
M  END
>  <id>  (139) 
239

>  <scaffolds>  (139) 
[]

>  <name>  (139) 
Makaluvamine I

>  <formula>  (139) 
C10H9N3O

>  <SMILES>  (139) 
Nc1cc3=NCCc2c[nH]c(c1=O)c23

>  <ChEMBL_id>  (139) 


>  <ZINC_id>  (139) 


>  <PubChem_id>  (139) 


>  <DrugBank_id>  (139) 


>  <CAS_no>  (139) 
138087-43-1

>  <references>  (139) 
[{'journal': {'name': 'Annals of the New York Academy of Sciences', 'id': 15}, 'title': 'Antiesophageal Cancer Activity from Southern African Marine Organisms', 'year': 2005, 'start_page': 405, 'volume': 1056, 'issue': None, 'doi': '10.1196/annals.1352.031', 'isbn': '', 'despositor': {'code': 'TMM', 'first_name': 'Thommas', 'last_name': 'Musyoka', 'id': 22}, 'refauthors_set': [{'author': {'first_name': 'Catherine', 'initials': 'CE', 'last_name': 'Whibley', 'id': 497}, 'first_author': True, 'id': 732}, {'author': {'first_name': '', 'initials': 'RA', 'last_name': 'Keyzers', 'id': 546}, 'first_author': False, 'id': 733}, {'author': {'first_name': '', 'initials': 'AG', 'last_name': 'Soper', 'id': 547}, 'first_author': False, 'id': 734}, {'author': {'first_name': 'Michael', 'initials': 'MT', 'last_name': 'Davies-Coleman', 'id': 449}, 'first_author': False, 'id': 735}, {'author': {'first_name': 'Toufiek', 'initials': 'T', 'last_name': 'Samaai', 'id': 517}, 'first_author': False, 'id': 736}, {'author': {'first_name': 'Denver', 'initials': 'DT', 'last_name': 'Hendricks', 'id': 498}, 'first_author': False, 'id': 737}], 'id': 264}]

>  <classifications>  (139) 
[{'classification': 'Alkaloid', 'id': 738}, {'classification': 'Makaluvamine', 'id': 793}, {'classification': 'Pyrroloiminoquinone', 'id': 820}, {'classification': 'Quinolines and derivatives (Classyfire)', 'id': 948}]

>  <molecular_mass>  (139) 
187.2

$$$$
SANC00240_minRM1.pdb
     RDKit          3D

 38 41  0  0  0  0  0  0  0  0999 V2000
   -2.0960   -2.9820    0.1110 O   0  0  0  0  0  0  0  0  0  0  0  0
   -2.1960   -1.7670    0.0720 C   0  0  0  0  0  0  0  0  0  0  0  0
   -1.0080   -0.8410    0.1380 C   0  0  0  0  0  0  0  0  0  0  0  0
    0.2300   -1.4900    0.1360 N   0  0  0  0  0  4  0  0  0  0  0  0
    1.4350   -0.7830    0.0920 C   0  0  0  0  0  0  0  0  0  0  0  0
    2.6320   -1.4030    0.0690 C   0  0  0  0  0  0  0  0  0  0  0  0
    3.8720   -0.6490    0.0160 C   0  0  0  0  0  0  0  0  0  0  0  0
    3.8790    0.7480    0.0440 C   0  0  0  0  0  0  0  0  0  0  0  0
    5.0700    1.4550   -0.0010 C   0  0  0  0  0  0  0  0  0  0  0  0
    6.2680    0.7470   -0.0710 C   0  0  0  0  0  0  0  0  0  0  0  0
    7.4630    1.3930   -0.1970 O   0  0  0  0  0  0  0  0  0  0  0  0
    6.2890   -0.6470   -0.1080 C   0  0  0  0  0  0  0  0  0  0  0  0
    5.0870   -1.3360   -0.0630 C   0  0  0  0  0  0  0  0  0  0  0  0
   -1.1090    0.5140    0.1890 C   0  0  0  0  0  0  0  0  0  0  0  0
   -2.4000    1.1920    0.1690 C   0  0  0  0  0  0  0  0  0  0  0  0
   -2.5610    2.4710    0.3190 N   0  0  0  0  0  0  0  0  0  0  0  0
   -3.9360    2.9920    0.3590 C   0  0  0  0  0  0  0  0  0  0  0  0
   -5.1030    2.1810   -0.2630 C   0  0  0  0  0  0  0  0  0  0  0  0
   -4.8430    0.7340   -0.1890 C   0  0  0  0  0  0  0  0  0  0  0  0
   -5.6120   -0.4230   -0.3200 C   0  0  0  0  0  0  0  0  0  0  0  0
   -4.7620   -1.5270   -0.2260 N   0  0  0  0  0  0  0  0  0  0  0  0
   -5.0330   -2.4980   -0.2850 H   0  0  0  0  0  0  0  0  0  0  0  0
   -3.4620   -1.0730   -0.0500 C   0  0  0  0  0  0  0  0  0  0  0  0
   -3.5160    0.3080   -0.0190 C   0  0  0  0  0  0  0  0  0  0  0  0
    0.2580   -2.5060    0.1480 H   0  0  0  0  0  0  0  0  0  0  0  0
    1.3580    0.3210    0.0770 H   0  0  0  0  0  0  0  0  0  0  0  0
    2.7190   -2.4940    0.0860 H   0  0  0  0  0  0  0  0  0  0  0  0
    2.9330    1.3020    0.1010 H   0  0  0  0  0  0  0  0  0  0  0  0
    5.0680    2.5480    0.0170 H   0  0  0  0  0  0  0  0  0  0  0  0
    7.5540    1.9520    0.5920 H   0  0  0  0  0  0  0  0  0  0  0  0
    7.2410   -1.1800   -0.1850 H   0  0  0  0  0  0  0  0  0  0  0  0
    5.1000   -2.4300   -0.0930 H   0  0  0  0  0  0  0  0  0  0  0  0
   -0.2230    1.1590    0.2510 H   0  0  0  0  0  0  0  0  0  0  0  0
   -4.1510    3.1920    1.4350 H   0  0  0  0  0  0  0  0  0  0  0  0
   -3.8810    3.9940   -0.1230 H   0  0  0  0  0  0  0  0  0  0  0  0
   -6.0590    2.4530    0.2270 H   0  0  0  0  0  0  0  0  0  0  0  0
   -5.2430    2.4630   -1.3300 H   0  0  0  0  0  0  0  0  0  0  0  0
   -6.6830   -0.5280   -0.4730 H   0  0  0  0  0  0  0  0  0  0  0  0
  1  2  2  0
  2 23  1  0
  2  3  1  0
  3  4  1  0
  3 14  2  0
  4  5  2  0
  4 25  1  0
  5  6  1  0
  5 26  1  0
  6  7  1  0
  6 27  1  0
  7 13  2  0
  7  8  1  0
  8  9  2  0
  8 28  1  0
  9 10  1  0
  9 29  1  0
 10 11  1  0
 10 12  2  0
 11 30  1  0
 12 31  1  0
 12 13  1  0
 13 32  1  0
 14 15  1  0
 14 33  1  0
 15 24  1  0
 15 16  2  0
 16 17  1  0
 17 18  1  0
 17 35  1  0
 17 34  1  0
 18 37  1  0
 18 19  1  0
 18 36  1  0
 19 20  2  0
 19 24  1  0
 20 38  1  0
 20 21  1  0
 21 22  1  0
 21 23  1  0
 23 24  2  0
M  END
>  <id>  (140) 
240

>  <scaffolds>  (140) 
['c1ccccc1']

>  <name>  (140) 
Makaluvamine M

>  <formula>  (140) 
C18H15N3O2

>  <SMILES>  (140) 
O=c2c(N/C=C/c1ccc(O)cc1)cc4=NCCc3c[nH]c2c34

>  <ChEMBL_id>  (140) 


>  <ZINC_id>  (140) 


>  <PubChem_id>  (140) 


>  <DrugBank_id>  (140) 


>  <CAS_no>  (140) 
174232-41-8

>  <references>  (140) 
[{'journal': {'name': 'Annals of the New York Academy of Sciences', 'id': 15}, 'title': 'Antiesophageal Cancer Activity from Southern African Marine Organisms', 'year': 2005, 'start_page': 405, 'volume': 1056, 'issue': None, 'doi': '10.1196/annals.1352.031', 'isbn': '', 'despositor': {'code': 'TMM', 'first_name': 'Thommas', 'last_name': 'Musyoka', 'id': 22}, 'refauthors_set': [{'author': {'first_name': 'Catherine', 'initials': 'CE', 'last_name': 'Whibley', 'id': 497}, 'first_author': True, 'id': 732}, {'author': {'first_name': '', 'initials': 'RA', 'last_name': 'Keyzers', 'id': 546}, 'first_author': False, 'id': 733}, {'author': {'first_name': '', 'initials': 'AG', 'last_name': 'Soper', 'id': 547}, 'first_author': False, 'id': 734}, {'author': {'first_name': 'Michael', 'initials': 'MT', 'last_name': 'Davies-Coleman', 'id': 449}, 'first_author': False, 'id': 735}, {'author': {'first_name': 'Toufiek', 'initials': 'T', 'last_name': 'Samaai', 'id': 517}, 'first_author': False, 'id': 736}, {'author': {'first_name': 'Denver', 'initials': 'DT', 'last_name': 'Hendricks', 'id': 498}, 'first_author': False, 'id': 737}], 'id': 264}]

>  <classifications>  (140) 
[{'classification': 'Alkaloid', 'id': 738}, {'classification': 'Makaluvamine', 'id': 793}, {'classification': 'Pyrroloiminoquinone', 'id': 820}, {'classification': 'Quinolines and derivatives (Classyfire)', 'id': 948}]

>  <molecular_mass>  (140) 
305.33

$$$$
SANC00241_minRM1.pdb
     RDKit          3D

 36 38  0  0  0  0  0  0  0  0999 V2000
    7.0680    0.7510   -0.7300 C   0  0  0  0  0  0  0  0  0  0  0  0
    6.1240    0.8760    0.3060 O   0  0  0  0  0  0  0  0  0  0  0  0
    4.9080    0.2910    0.1180 C   0  0  0  0  0  0  0  0  0  0  0  0
    4.5000   -0.3760   -1.0360 C   0  0  0  0  0  0  0  0  0  0  0  0
    3.2190   -0.9090   -1.0820 C   0  0  0  0  0  0  0  0  0  0  0  0
    2.3500   -0.7620   -0.0040 C   0  0  0  0  0  0  0  0  0  0  0  0
    1.0110   -1.3260   -0.0910 C   0  0  0  0  0  0  0  0  0  0  0  0
   -0.1070   -0.6370    0.1610 C   0  0  0  0  0  0  0  0  0  0  0  0
   -0.1370    0.7980    0.5690 C   0  0  0  0  0  0  0  0  0  0  0  0
   -1.1640    1.5490   -0.0420 O   0  0  0  0  0  0  0  0  0  0  0  0
   -2.3940    0.9810   -0.0940 C   0  0  0  0  0  0  0  0  0  0  0  0
   -3.4630    1.8520   -0.2650 C   0  0  0  0  0  0  0  0  0  0  0  0
   -4.7440    1.2880   -0.3460 C   0  0  0  0  0  0  0  0  0  0  0  0
   -5.8550    2.0530   -0.4680 O   0  0  0  0  0  0  0  0  0  0  0  0
   -4.9790   -0.0830   -0.2670 C   0  0  0  0  0  0  0  0  0  0  0  0
   -3.8710   -0.9260   -0.1280 C   0  0  0  0  0  0  0  0  0  0  0  0
   -4.1280   -2.2370   -0.1110 O   0  0  0  0  0  0  0  0  0  0  0  0
   -2.5660   -0.4070   -0.0320 C   0  0  0  0  0  0  0  0  0  0  0  0
   -1.4220   -1.2850    0.0640 C   0  0  0  0  0  0  0  0  0  0  0  0
   -1.5690   -2.5080    0.0490 O   0  0  0  0  0  0  0  0  0  0  0  0
    2.7740   -0.0990    1.1480 C   0  0  0  0  0  0  0  0  0  0  0  0
    4.0490    0.4340    1.2170 C   0  0  0  0  0  0  0  0  0  0  0  0
    7.9460    1.2900   -0.3370 H   0  0  0  0  0  0  0  0  0  0  0  0
    7.3540   -0.2960   -0.9320 H   0  0  0  0  0  0  0  0  0  0  0  0
    6.7550    1.2310   -1.6710 H   0  0  0  0  0  0  0  0  0  0  0  0
    5.1520   -0.4980   -1.9050 H   0  0  0  0  0  0  0  0  0  0  0  0
    2.8830   -1.4280   -1.9900 H   0  0  0  0  0  0  0  0  0  0  0  0
    0.9660   -2.3820   -0.3930 H   0  0  0  0  0  0  0  0  0  0  0  0
   -0.2350    0.8750    1.6780 H   0  0  0  0  0  0  0  0  0  0  0  0
    0.7700    1.3640    0.2610 H   0  0  0  0  0  0  0  0  0  0  0  0
   -3.3010    2.9300   -0.3250 H   0  0  0  0  0  0  0  0  0  0  0  0
   -5.6160    2.8640   -0.9390 H   0  0  0  0  0  0  0  0  0  0  0  0
   -5.9930   -0.4900   -0.3120 H   0  0  0  0  0  0  0  0  0  0  0  0
   -3.3020   -2.7660   -0.0580 H   0  0  0  0  0  0  0  0  0  0  0  0
    2.1080   -0.0110    2.0110 H   0  0  0  0  0  0  0  0  0  0  0  0
    4.3890    0.9500    2.1190 H   0  0  0  0  0  0  0  0  0  0  0  0
  1 25  1  0
  1 24  1  0
  1 23  1  0
  1  2  1  0
  2  3  1  0
  3  4  2  0
  3 22  1  0
  4 26  1  0
  4  5  1  0
  5 27  1  0
  5  6  2  0
  6  7  1  0
  6 21  1  0
  7 28  1  0
  7  8  2  0
  8 19  1  0
  8  9  1  0
  9 10  1  0
  9 30  1  0
  9 29  1  0
 10 11  1  0
 11 12  2  0
 11 18  1  0
 12 13  1  0
 12 31  1  0
 13 14  1  0
 13 15  2  0
 14 32  1  0
 15 33  1  0
 15 16  1  0
 16 17  1  0
 16 18  2  0
 17 34  1  0
 18 19  1  0
 19 20  2  0
 21 22  2  0
 21 35  1  0
 22 36  1  0
M  END
>  <id>  (141) 
241

>  <scaffolds>  (141) 
['c1ccccc1', 'O=C1C(=Cc2ccccc2)COc2ccccc21', 'O=C(C=Cc1ccccc1)c1ccccc1', 'C(=Cc1ccccc1)Cc1ccccc1']

>  <name>  (141) 
(E)-Eucomin

>  <formula>  (141) 
C17H14O5

>  <SMILES>  (141) 
COc3ccc(/C=C/2COc1cc(O)cc(O)c1C2=O)cc3

>  <ChEMBL_id>  (141) 
CHEMBL476776

>  <ZINC_id>  (141) 


>  <PubChem_id>  (141) 
 12309803

>  <DrugBank_id>  (141) 


>  <CAS_no>  (141) 
17934-08-6

>  <references>  (141) 
[{'journal': {'name': 'Tetrahedron Letters', 'id': 3}, 'title': 'The homo-isoflavones, a new class of natural product. Isolation and structure of eucomin and eucomol', 'year': 1967, 'start_page': 3479, 'volume': 36, 'issue': None, 'doi': '10.1016/S0040-4039(01)89826-9', 'isbn': '', 'despositor': {'code': 'rah', 'first_name': 'Rowan', 'last_name': 'Hatherley', 'id': 20}, 'refauthors_set': [{'author': {'first_name': 'Christoph', 'initials': 'C', 'last_name': 'Tamm', 'id': 543}, 'first_author': False, 'id': 724}, {'author': {'first_name': '', 'initials': 'P', 'last_name': 'Bohler', 'id': 544}, 'first_author': True, 'id': 725}], 'id': 260}, {'journal': {'name': 'South African Journal of Botany', 'id': 1}, 'title': 'Homoisoflavanones and spirocyclic nortriterpenoids from three Eucomis species: E. comosa, E. schiffii and E. pallidiflora subsp. pole-evansii (Hyacinthaceae)', 'year': 2006, 'start_page': 428, 'volume': 72, 'issue': None, 'doi': '10.1016/j.sajb.2005.12.006', 'isbn': '', 'despositor': {'code': 'rah', 'first_name': 'Rowan', 'last_name': 'Hatherley', 'id': 20}, 'refauthors_set': [{'author': {'first_name': 'Chantal', 'initials': 'C', 'last_name': 'Koorbanally', 'id': 523}, 'first_author': True, 'id': 1034}, {'author': {'first_name': 'Neil', 'initials': 'NR', 'last_name': 'Crouch', 'id': 524}, 'first_author': None, 'id': 1035}, {'author': {'first_name': 'Angela', 'initials': 'A', 'last_name': 'Langlois', 'id': 712}, 'first_author': None, 'id': 1036}, {'author': {'first_name': 'Karen', 'initials': 'K', 'last_name': 'Du Toit', 'id': 713}, 'first_author': None, 'id': 1037}, {'author': {'first_name': 'Dulcie', 'initials': 'DA', 'last_name': 'Mulholland', 'id': 525}, 'first_author': None, 'id': 1038}, {'author': {'first_name': 'Siegfried', 'initials': 'SE', 'last_name': 'Drewes', 'id': 613}, 'first_author': None, 'id': 1039}], 'id': 344}]

>  <classifications>  (141) 
[{'classification': 'Flavonoids', 'id': 776}, {'classification': 'Homoisoflavonoid', 'id': 783}, {'classification': 'Homoisoflavonoids (Classyfire)', 'id': 964}]

>  <molecular_mass>  (141) 
298.29

$$$$
SANC00242_minRM1.pdb
     RDKit          3D

 39 41  0  0  1  0  0  0  0  0999 V2000
    6.2670   -1.1680   -1.4330 C   0  0  0  0  0  0  0  0  0  0  0  0
    5.5370   -1.3550   -0.2480 O   0  0  0  0  0  0  0  0  0  0  0  0
    4.4620   -0.5410   -0.0370 C   0  0  0  0  0  0  0  0  0  0  0  0
    4.0590    0.4970   -0.8690 C   0  0  0  0  0  0  0  0  0  0  0  0
    2.9370    1.2430   -0.5160 C   0  0  0  0  0  0  0  0  0  0  0  0
    2.2250    0.9510    0.6400 C   0  0  0  0  0  0  0  0  0  0  0  0
    1.0360    1.7720    1.0110 C   0  0  0  0  0  0  0  0  0  0  0  0
   -0.2100    1.4210    0.1780 C   0  0  2  0  0  0  0  0  0  0  0  0
    0.1320    1.6200   -1.1540 O   0  0  0  0  0  0  0  0  0  0  0  0
   -1.3810    2.3490    0.5880 C   0  0  0  0  0  0  0  0  0  0  0  0
   -2.5340    2.1050   -0.1860 O   0  0  0  0  0  0  0  0  0  0  0  0
   -2.9570    0.8120   -0.2130 C   0  0  0  0  0  0  0  0  0  0  0  0
   -4.2800    0.6130   -0.5710 C   0  0  0  0  0  0  0  0  0  0  0  0
   -4.7310   -0.7140   -0.6460 C   0  0  0  0  0  0  0  0  0  0  0  0
   -6.0240   -0.8480   -1.0060 O   0  0  0  0  0  0  0  0  0  0  0  0
   -3.9180   -1.8090   -0.3620 C   0  0  0  0  0  0  0  0  0  0  0  0
   -2.5900   -1.5600    0.0040 C   0  0  0  0  0  0  0  0  0  0  0  0
   -1.8460   -2.6370    0.2760 O   0  0  0  0  0  0  0  0  0  0  0  0
   -2.0820   -0.2500    0.0610 C   0  0  0  0  0  0  0  0  0  0  0  0
   -0.6890   -0.0140    0.3830 C   0  0  0  0  0  0  0  0  0  0  0  0
    0.0270   -0.9300    0.7630 O   0  0  0  0  0  0  0  0  0  0  0  0
    2.6490   -0.0880    1.4690 C   0  0  0  0  0  0  0  0  0  0  0  0
    3.7660   -0.8380    1.1430 C   0  0  0  0  0  0  0  0  0  0  0  0
    5.6700   -1.3280   -2.3460 H   0  0  0  0  0  0  0  0  0  0  0  0
    6.7570   -0.1830   -1.4900 H   0  0  0  0  0  0  0  0  0  0  0  0
    7.0450   -1.9450   -1.3790 H   0  0  0  0  0  0  0  0  0  0  0  0
    4.5850    0.7500   -1.7900 H   0  0  0  0  0  0  0  0  0  0  0  0
    2.6230    2.0670   -1.1650 H   0  0  0  0  0  0  0  0  0  0  0  0
    0.7900    1.6610    2.0890 H   0  0  0  0  0  0  0  0  0  0  0  0
    1.2710    2.8520    0.8830 H   0  0  0  0  0  0  0  0  0  0  0  0
   -0.6370    1.4220   -1.7020 H   0  0  0  0  0  0  0  0  0  0  0  0
   -1.6070    2.2590    1.6730 H   0  0  0  0  0  0  0  0  0  0  0  0
   -1.1610    3.4170    0.3760 H   0  0  0  0  0  0  0  0  0  0  0  0
   -4.9480    1.4500   -0.7900 H   0  0  0  0  0  0  0  0  0  0  0  0
   -6.2550   -1.7860   -1.0410 H   0  0  0  0  0  0  0  0  0  0  0  0
   -4.2820   -2.8370   -0.4140 H   0  0  0  0  0  0  0  0  0  0  0  0
   -0.9380   -2.3760    0.5600 H   0  0  0  0  0  0  0  0  0  0  0  0
    2.0940   -0.3290    2.3810 H   0  0  0  0  0  0  0  0  0  0  0  0
    4.0980   -1.6530    1.7910 H   0  0  0  0  0  0  0  0  0  0  0  0
  1 24  1  0
  1 25  1  0
  1 26  1  0
  1  2  1  0
  2  3  1  0
  3  4  2  0
  3 23  1  0
  4 27  1  0
  4  5  1  0
  5 28  1  0
  5  6  2  0
  6  7  1  0
  6 22  1  0
  7  8  1  0
  7 30  1  0
  7 29  1  0
  8  9  1  6
  8 20  1  0
  8 10  1  0
  9 31  1  0
 10 11  1  0
 10 33  1  0
 10 32  1  0
 11 12  1  0
 12 13  2  0
 12 19  1  0
 13 34  1  0
 13 14  1  0
 14 15  1  0
 14 16  2  0
 15 35  1  0
 16 36  1  0
 16 17  1  0
 17 19  2  0
 17 18  1  0
 18 37  1  0
 19 20  1  0
 20 21  2  0
 22 23  2  0
 22 38  1  0
 23 39  1  0
M  END
>  <id>  (142) 
242

>  <scaffolds>  (142) 
['c1ccccc1', 'O=C1c2ccccc2OCC1Cc1ccccc1', 'O=C(CCc1ccccc1)c1ccccc1']

>  <name>  (142) 
Eucomol

>  <formula>  (142) 
C17H16O6

>  <SMILES>  (142) 
COc3ccc(C[C@]2(O)COc1cc(O)cc(O)c1C2=O)cc3

>  <ChEMBL_id>  (142) 


>  <ZINC_id>  (142) 


>  <PubChem_id>  (142) 


>  <DrugBank_id>  (142) 


>  <CAS_no>  (142) 
17934-12-2

>  <references>  (142) 
[{'journal': {'name': 'Phytochemistry: Advances in Research (Book)', 'id': 13}, 'title': 'Chapter 3: The phytochemistry and ethnobotany of the southern African genus Eucomis (Hyacinthaceae: Hyacinthoideae)', 'year': 2006, 'start_page': 69, 'volume': None, 'issue': None, 'doi': '', 'isbn': '81-308-0034-9', 'despositor': {'code': 'rah', 'first_name': 'Rowan', 'last_name': 'Hatherley', 'id': 20}, 'refauthors_set': [{'author': {'first_name': 'Chantal', 'initials': 'C', 'last_name': 'Koorbanally', 'id': 523}, 'first_author': True, 'id': 851}, {'author': {'first_name': 'Neil', 'initials': 'NR', 'last_name': 'Crouch', 'id': 524}, 'first_author': False, 'id': 852}, {'author': {'first_name': 'Dulcie', 'initials': 'DA', 'last_name': 'Mulholland', 'id': 525}, 'first_author': False, 'id': 853}], 'id': 259}, {'journal': {'name': 'Tetrahedron Letters', 'id': 3}, 'title': 'The homo-isoflavones, a new class of natural product. Isolation and structure of eucomin and eucomol', 'year': 1967, 'start_page': 3479, 'volume': 36, 'issue': None, 'doi': '10.1016/S0040-4039(01)89826-9', 'isbn': '', 'despositor': {'code': 'rah', 'first_name': 'Rowan', 'last_name': 'Hatherley', 'id': 20}, 'refauthors_set': [{'author': {'first_name': 'Christoph', 'initials': 'C', 'last_name': 'Tamm', 'id': 543}, 'first_author': False, 'id': 724}, {'author': {'first_name': '', 'initials': 'P', 'last_name': 'Bohler', 'id': 544}, 'first_author': True, 'id': 725}], 'id': 260}, {'journal': {'name': 'Biochemical Systematics and Ecology', 'id': 24}, 'title': 'Coincident isolation of a novel homoisoflavonoid from Resnova humifusa and Eucomis montana (Hyacinthoideae: Hyacinthaceae)', 'year': 2006, 'start_page': 114, 'volume': 34, 'issue': None, 'doi': '10.1016/j.bse.2005.08.003', 'isbn': '', 'despositor': {'code': 'rah', 'first_name': 'Rowan', 'last_name': 'Hatherley', 'id': 20}, 'refauthors_set': [{'author': {'first_name': 'Chantal', 'initials': 'C', 'last_name': 'Koorbanally', 'id': 523}, 'first_author': True, 'id': 854}, {'author': {'first_name': 'Neil', 'initials': 'NR', 'last_name': 'Crouch', 'id': 524}, 'first_author': False, 'id': 855}, {'author': {'first_name': 'Avinash', 'initials': 'A', 'last_name': 'Harilal', 'id': 624}, 'first_author': False, 'id': 856}, {'author': {'first_name': 'Bavani', 'initials': 'B', 'last_name': 'Pillay', 'id': 625}, 'first_author': False, 'id': 857}, {'author': {'first_name': 'Dulcie', 'initials': 'DA', 'last_name': 'Mulholland', 'id': 525}, 'first_author': False, 'id': 858}], 'id': 286}]

>  <classifications>  (142) 
[{'classification': 'Flavonoids', 'id': 776}, {'classification': 'Homoisoflavonoid', 'id': 783}, {'classification': 'Homoisoflavonoids (Classyfire)', 'id': 964}]

>  <molecular_mass>  (142) 
316.3

$$$$
SANC00243_minRM1.pdb
     RDKit          3D

 40 42  0  0  0  0  0  0  0  0999 V2000
    7.2760    1.0700   -0.6330 C   0  0  0  0  0  0  0  0  0  0  0  0
    6.3280    1.0120    0.4030 O   0  0  0  0  0  0  0  0  0  0  0  0
    5.1570    0.3660    0.1500 C   0  0  0  0  0  0  0  0  0  0  0  0
    4.7950   -0.2000   -1.0700 C   0  0  0  0  0  0  0  0  0  0  0  0
    3.5550   -0.8190   -1.1800 C   0  0  0  0  0  0  0  0  0  0  0  0
    2.6910   -0.8680   -0.0910 C   0  0  0  0  0  0  0  0  0  0  0  0
    1.4040   -1.5370   -0.2240 C   0  0  0  0  0  0  0  0  0  0  0  0
    0.2390   -0.9650    0.1000 C   0  0  0  0  0  0  0  0  0  0  0  0
    0.1110    0.4200    0.6390 C   0  0  0  0  0  0  0  0  0  0  0  0
   -0.9770    1.1450    0.1010 O   0  0  0  0  0  0  0  0  0  0  0  0
   -2.1600    0.4910    0.0320 C   0  0  0  0  0  0  0  0  0  0  0  0
   -3.3110    1.2700   -0.0230 C   0  0  0  0  0  0  0  0  0  0  0  0
   -3.2670    2.6240    0.1690 O   0  0  0  0  0  0  0  0  0  0  0  0
   -2.8550    3.3230   -0.9850 C   0  0  0  0  0  0  0  0  0  0  0  0
   -4.5640    0.6370   -0.1440 C   0  0  0  0  0  0  0  0  0  0  0  0
   -5.7280    1.3120   -0.1740 O   0  0  0  0  0  0  0  0  0  0  0  0
   -4.6730   -0.7500   -0.2190 C   0  0  0  0  0  0  0  0  0  0  0  0
   -3.4990   -1.5100   -0.1820 C   0  0  0  0  0  0  0  0  0  0  0  0
   -3.6520   -2.8330   -0.2910 O   0  0  0  0  0  0  0  0  0  0  0  0
   -2.2340   -0.9040   -0.0510 C   0  0  0  0  0  0  0  0  0  0  0  0
   -1.0260   -1.7000   -0.0390 C   0  0  0  0  0  0  0  0  0  0  0  0
   -1.0830   -2.9260   -0.1480 O   0  0  0  0  0  0  0  0  0  0  0  0
    3.0710   -0.3090    1.1310 C   0  0  0  0  0  0  0  0  0  0  0  0
    4.2990    0.3150    1.2590 C   0  0  0  0  0  0  0  0  0  0  0  0
    8.1200    1.6110   -0.1780 H   0  0  0  0  0  0  0  0  0  0  0  0
    7.6280    0.0780   -0.9580 H   0  0  0  0  0  0  0  0  0  0  0  0
    6.9260    1.6370   -1.5110 H   0  0  0  0  0  0  0  0  0  0  0  0
    5.4500   -0.1790   -1.9440 H   0  0  0  0  0  0  0  0  0  0  0  0
    3.2580   -1.2670   -2.1360 H   0  0  0  0  0  0  0  0  0  0  0  0
    1.4390   -2.5610   -0.6210 H   0  0  0  0  0  0  0  0  0  0  0  0
    0.0250    0.3900    1.7510 H   0  0  0  0  0  0  0  0  0  0  0  0
    0.9670    1.0820    0.3830 H   0  0  0  0  0  0  0  0  0  0  0  0
   -2.8360    4.3760   -0.6670 H   0  0  0  0  0  0  0  0  0  0  0  0
   -1.8500    3.0420   -1.3380 H   0  0  0  0  0  0  0  0  0  0  0  0
   -3.5600    3.2110   -1.8260 H   0  0  0  0  0  0  0  0  0  0  0  0
   -5.5590    2.2650   -0.1540 H   0  0  0  0  0  0  0  0  0  0  0  0
   -5.6500   -1.2350   -0.3040 H   0  0  0  0  0  0  0  0  0  0  0  0
   -2.7830   -3.2880   -0.2070 H   0  0  0  0  0  0  0  0  0  0  0  0
    2.4040   -0.3770    1.9970 H   0  0  0  0  0  0  0  0  0  0  0  0
    4.6000    0.7640    2.2080 H   0  0  0  0  0  0  0  0  0  0  0  0
  1 27  1  0
  1 26  1  0
  1 25  1  0
  1  2  1  0
  2  3  1  0
  3  4  2  0
  3 24  1  0
  4 28  1  0
  4  5  1  0
  5 29  1  0
  5  6  2  0
  6  7  1  0
  6 23  1  0
  7 30  1  0
  7  8  2  0
  8 21  1  0
  8  9  1  0
  9 10  1  0
  9 32  1  0
  9 31  1  0
 10 11  1  0
 11 20  2  0
 11 12  1  0
 12 15  2  0
 12 13  1  0
 13 14  1  0
 14 35  1  0
 14 34  1  0
 14 33  1  0
 15 17  1  0
 15 16  1  0
 16 36  1  0
 17 37  1  0
 17 18  2  0
 18 19  1  0
 18 20  1  0
 19 38  1  0
 20 21  1  0
 21 22  2  0
 23 24  2  0
 23 39  1  0
 24 40  1  0
M  END
>  <id>  (143) 
243

>  <scaffolds>  (143) 
['c1ccccc1', 'O=C1C(=Cc2ccccc2)COc2ccccc21', 'O=C(C=Cc1ccccc1)c1ccccc1', 'C(=Cc1ccccc1)Cc1ccccc1']

>  <name>  (143) 
4'-O-methyl-punctatin

>  <formula>  (143) 
C18H16O6

>  <SMILES>  (143) 
COc3ccc(/C=C/2COc1c(OC)c(O)cc(O)c1C2=O)cc3

>  <ChEMBL_id>  (143) 


>  <ZINC_id>  (143) 


>  <PubChem_id>  (143) 


>  <DrugBank_id>  (143) 


>  <CAS_no>  (143) 
27434-98-6

>  <references>  (143) 
[{'journal': {'name': 'Phytochemistry: Advances in Research (Book)', 'id': 13}, 'title': 'Chapter 3: The phytochemistry and ethnobotany of the southern African genus Eucomis (Hyacinthaceae: Hyacinthoideae)', 'year': 2006, 'start_page': 69, 'volume': None, 'issue': None, 'doi': '', 'isbn': '81-308-0034-9', 'despositor': {'code': 'rah', 'first_name': 'Rowan', 'last_name': 'Hatherley', 'id': 20}, 'refauthors_set': [{'author': {'first_name': 'Chantal', 'initials': 'C', 'last_name': 'Koorbanally', 'id': 523}, 'first_author': True, 'id': 851}, {'author': {'first_name': 'Neil', 'initials': 'NR', 'last_name': 'Crouch', 'id': 524}, 'first_author': False, 'id': 852}, {'author': {'first_name': 'Dulcie', 'initials': 'DA', 'last_name': 'Mulholland', 'id': 525}, 'first_author': False, 'id': 853}], 'id': 259}, {'journal': {'name': 'Tetrahedron Letters', 'id': 3}, 'title': "The homo-isoflavones II1). Isolation and structure of 4'-o-methyl-punctatin, autumnalin and 3,9-dihydro-autumnalin", 'year': 1970, 'start_page': 475, 'volume': 11, 'issue': 7, 'doi': '10.1016/0040-4039(70)89003-7', 'isbn': '', 'despositor': {'code': 'rah', 'first_name': 'Rowan', 'last_name': 'Hatherley', 'id': 20}, 'refauthors_set': [{'author': {'first_name': 'Christoph', 'initials': 'C', 'last_name': 'Tamm', 'id': 543}, 'first_author': False, 'id': 726}, {'author': {'first_name': '', 'initials': 'WTL', 'last_name': 'Sidwell', 'id': 541}, 'first_author': True, 'id': 727}], 'id': 261}]

>  <classifications>  (143) 
[{'classification': 'Flavonoids', 'id': 776}, {'classification': 'Homoisoflavonoid', 'id': 783}, {'classification': 'Homoisoflavonoids (Classyfire)', 'id': 964}]

>  <molecular_mass>  (143) 
328.32

$$$$
SANC00244_minRM1.pdb
     RDKit          3D

 37 39  0  0  0  0  0  0  0  0999 V2000
    5.8760   -0.6120   -0.9360 C   0  0  0  0  0  0  0  0  0  0  0  0
    5.2790   -0.2420    0.2850 O   0  0  0  0  0  0  0  0  0  0  0  0
    3.9940    0.2050    0.1330 C   0  0  0  0  0  0  0  0  0  0  0  0
    3.7320    1.5730    0.2860 C   0  0  0  0  0  0  0  0  0  0  0  0
    4.6940    2.4920    0.4810 O   0  0  0  0  0  0  0  0  0  0  0  0
    2.4240    2.0730    0.2480 C   0  0  0  0  0  0  0  0  0  0  0  0
    1.3900    1.1650    0.0680 C   0  0  0  0  0  0  0  0  0  0  0  0
    0.1320    1.6760    0.1070 O   0  0  0  0  0  0  0  0  0  0  0  0
   -0.8760    0.9200   -0.5310 C   0  0  0  0  0  0  0  0  0  0  0  0
   -0.8420   -0.5310   -0.1830 C   0  0  0  0  0  0  0  0  0  0  0  0
   -1.9330   -1.2640    0.0690 C   0  0  0  0  0  0  0  0  0  0  0  0
   -3.2830   -0.7160    0.0430 C   0  0  0  0  0  0  0  0  0  0  0  0
   -3.7700   -0.0970   -1.1040 C   0  0  0  0  0  0  0  0  0  0  0  0
   -5.0670    0.4000   -1.1320 C   0  0  0  0  0  0  0  0  0  0  0  0
   -5.8600    0.2720    0.0100 C   0  0  0  0  0  0  0  0  0  0  0  0
   -7.1160    0.7670    0.0840 O   0  0  0  0  0  0  0  0  0  0  0  0
   -5.3810   -0.3470    1.1710 C   0  0  0  0  0  0  0  0  0  0  0  0
   -4.0900   -0.8460    1.1760 C   0  0  0  0  0  0  0  0  0  0  0  0
    0.4970   -1.1340   -0.1490 C   0  0  0  0  0  0  0  0  0  0  0  0
    0.6880   -2.3550   -0.1690 O   0  0  0  0  0  0  0  0  0  0  0  0
    1.6120   -0.2120   -0.0670 C   0  0  0  0  0  0  0  0  0  0  0  0
    2.9320   -0.6920   -0.0390 C   0  0  0  0  0  0  0  0  0  0  0  0
    3.2410   -1.9830   -0.1840 O   0  0  0  0  0  0  0  0  0  0  0  0
    6.8710   -0.9810   -0.6440 H   0  0  0  0  0  0  0  0  0  0  0  0
    5.3440   -1.4190   -1.4660 H   0  0  0  0  0  0  0  0  0  0  0  0
    5.9920    0.2370   -1.6310 H   0  0  0  0  0  0  0  0  0  0  0  0
    5.5630    2.0700    0.4840 H   0  0  0  0  0  0  0  0  0  0  0  0
    2.2250    3.1410    0.3850 H   0  0  0  0  0  0  0  0  0  0  0  0
   -1.8000    1.4380   -0.1940 H   0  0  0  0  0  0  0  0  0  0  0  0
   -0.8010    1.0480   -1.6360 H   0  0  0  0  0  0  0  0  0  0  0  0
   -1.8560   -2.3330    0.3170 H   0  0  0  0  0  0  0  0  0  0  0  0
   -3.1360   -0.0050   -1.9910 H   0  0  0  0  0  0  0  0  0  0  0  0
   -5.4390    0.8940   -2.0290 H   0  0  0  0  0  0  0  0  0  0  0  0
   -7.4500    0.9430   -0.8080 H   0  0  0  0  0  0  0  0  0  0  0  0
   -6.0240   -0.4340    2.0520 H   0  0  0  0  0  0  0  0  0  0  0  0
   -3.6960   -1.3320    2.0790 H   0  0  0  0  0  0  0  0  0  0  0  0
    2.4280   -2.5400   -0.1010 H   0  0  0  0  0  0  0  0  0  0  0  0
  1 26  1  0
  1 25  1  0
  1 24  1  0
  1  2  1  0
  2  3  1  0
  3 22  2  0
  3  4  1  0
  4  6  2  0
  4  5  1  0
  5 27  1  0
  6  7  1  0
  6 28  1  0
  7 21  2  0
  7  8  1  0
  8  9  1  0
  9 30  1  0
  9 29  1  0
  9 10  1  0
 10 19  1  0
 10 11  2  0
 11 12  1  0
 11 31  1  0
 12 13  2  0
 12 18  1  0
 13 32  1  0
 13 14  1  0
 14 33  1  0
 14 15  2  0
 15 16  1  0
 15 17  1  0
 16 34  1  0
 17 18  2  0
 17 35  1  0
 18 36  1  0
 19 20  2  0
 19 21  1  0
 21 22  1  0
 22 23  1  0
 23 37  1  0
M  END
>  <id>  (144) 
244

>  <scaffolds>  (144) 
['c1ccccc1', 'O=C1C(=Cc2ccccc2)COc2ccccc21', 'O=C(C=Cc1ccccc1)c1ccccc1', 'C(=Cc1ccccc1)Cc1ccccc1']

>  <name>  (144) 
Eucomnalin

>  <formula>  (144) 
C17H14O6

>  <SMILES>  (144) 
COc3c(O)cc2OC\C(=C/c1ccc(O)cc1)C(=O)c2c3O

>  <ChEMBL_id>  (144) 


>  <ZINC_id>  (144) 


>  <PubChem_id>  (144) 


>  <DrugBank_id>  (144) 


>  <CAS_no>  (144) 
27435-01-4

>  <references>  (144) 
[{'journal': {'name': 'Phytochemistry: Advances in Research (Book)', 'id': 13}, 'title': 'Chapter 3: The phytochemistry and ethnobotany of the southern African genus Eucomis (Hyacinthaceae: Hyacinthoideae)', 'year': 2006, 'start_page': 69, 'volume': None, 'issue': None, 'doi': '', 'isbn': '81-308-0034-9', 'despositor': {'code': 'rah', 'first_name': 'Rowan', 'last_name': 'Hatherley', 'id': 20}, 'refauthors_set': [{'author': {'first_name': 'Chantal', 'initials': 'C', 'last_name': 'Koorbanally', 'id': 523}, 'first_author': True, 'id': 851}, {'author': {'first_name': 'Neil', 'initials': 'NR', 'last_name': 'Crouch', 'id': 524}, 'first_author': False, 'id': 852}, {'author': {'first_name': 'Dulcie', 'initials': 'DA', 'last_name': 'Mulholland', 'id': 525}, 'first_author': False, 'id': 853}], 'id': 259}, {'journal': {'name': 'Tetrahedron Letters', 'id': 3}, 'title': "The homo-isoflavones II1). Isolation and structure of 4'-o-methyl-punctatin, autumnalin and 3,9-dihydro-autumnalin", 'year': 1970, 'start_page': 475, 'volume': 11, 'issue': 7, 'doi': '10.1016/0040-4039(70)89003-7', 'isbn': '', 'despositor': {'code': 'rah', 'first_name': 'Rowan', 'last_name': 'Hatherley', 'id': 20}, 'refauthors_set': [{'author': {'first_name': 'Christoph', 'initials': 'C', 'last_name': 'Tamm', 'id': 543}, 'first_author': False, 'id': 726}, {'author': {'first_name': '', 'initials': 'WTL', 'last_name': 'Sidwell', 'id': 541}, 'first_author': True, 'id': 727}], 'id': 261}, {'journal': {'name': 'Tetrahedron Letters', 'id': 3}, 'title': "Errata: The homo-isoflavones II1). Isolation and structure of 4'-o-methyl-punctatin, autumnalin and 3,9-dihydro-autumnalin", 'year': 1970, 'start_page': 1578, 'volume': 11, 'issue': 19, 'doi': '10.1016/S0040-4039(01)98026-8', 'isbn': '', 'despositor': {'code': 'rah', 'first_name': 'Rowan', 'last_name': 'Hatherley', 'id': 20}, 'refauthors_set': [{'author': {'first_name': 'Christoph', 'initials': 'C', 'last_name': 'Tamm', 'id': 543}, 'first_author': False, 'id': 728}, {'author': {'first_name': '', 'initials': 'WTL', 'last_name': 'Sidwell', 'id': 541}, 'first_author': True, 'id': 729}], 'id': 262}]

>  <classifications>  (144) 
[{'classification': 'Flavonoids', 'id': 776}, {'classification': 'Homoisoflavonoid', 'id': 783}, {'classification': 'Homoisoflavonoids (Classyfire)', 'id': 964}]

>  <molecular_mass>  (144) 
314.29

$$$$
SANC00245_minRM1.pdb
     RDKit          3D

 39 41  0  0  1  0  0  0  0  0999 V2000
   -3.4480   -3.0650    0.7080 C   0  0  0  0  0  0  0  0  0  0  0  0
   -3.8780   -2.0110   -0.1300 O   0  0  0  0  0  0  0  0  0  0  0  0
   -3.1280   -0.8780    0.0370 C   0  0  0  0  0  0  0  0  0  0  0  0
   -3.7000    0.2070    0.7160 C   0  0  0  0  0  0  0  0  0  0  0  0
   -4.8940    0.1420    1.3330 O   0  0  0  0  0  0  0  0  0  0  0  0
   -3.0470    1.4460    0.7950 C   0  0  0  0  0  0  0  0  0  0  0  0
   -1.7930    1.5500    0.2120 C   0  0  0  0  0  0  0  0  0  0  0  0
   -1.1710    2.7470    0.3610 O   0  0  0  0  0  0  0  0  0  0  0  0
   -0.1450    3.0140   -0.5710 C   0  0  0  0  0  0  0  0  0  0  0  0
    0.8830    1.8820   -0.6420 C   0  0  1  0  0  0  0  0  0  0  0  0
    1.6540    2.1300   -1.4150 H   0  0  0  0  0  0  0  0  0  0  0  0
    1.5590    1.6700    0.7180 C   0  0  0  0  0  0  0  0  0  0  0  0
    2.6440    0.6540    0.5820 C   0  0  0  0  0  0  0  0  0  0  0  0
    2.3550   -0.6990    0.7430 C   0  0  0  0  0  0  0  0  0  0  0  0
    3.3580   -1.6490    0.6220 C   0  0  0  0  0  0  0  0  0  0  0  0
    4.6550   -1.2260    0.3260 C   0  0  0  0  0  0  0  0  0  0  0  0
    5.6830   -2.1140    0.2460 O   0  0  0  0  0  0  0  0  0  0  0  0
    4.9650    0.1270    0.1820 C   0  0  0  0  0  0  0  0  0  0  0  0
    3.9460    1.0610    0.3000 C   0  0  0  0  0  0  0  0  0  0  0  0
    0.1560    0.6140   -1.0010 C   0  0  0  0  0  0  0  0  0  0  0  0
    0.6520   -0.2860   -1.6740 O   0  0  0  0  0  0  0  0  0  0  0  0
   -1.1790    0.4800   -0.4560 C   0  0  0  0  0  0  0  0  0  0  0  0
   -1.8750   -0.7350   -0.5730 C   0  0  0  0  0  0  0  0  0  0  0  0
   -1.3870   -1.7970   -1.2200 O   0  0  0  0  0  0  0  0  0  0  0  0
   -3.5080   -2.8160    1.7890 H   0  0  0  0  0  0  0  0  0  0  0  0
   -4.1430   -3.8860    0.4740 H   0  0  0  0  0  0  0  0  0  0  0  0
   -2.4150   -3.4020    0.4950 H   0  0  0  0  0  0  0  0  0  0  0  0
   -5.3040   -0.7140    1.1610 H   0  0  0  0  0  0  0  0  0  0  0  0
   -3.5200    2.2960    1.2940 H   0  0  0  0  0  0  0  0  0  0  0  0
   -0.5770    3.2260   -1.5760 H   0  0  0  0  0  0  0  0  0  0  0  0
    0.2910    3.9660   -0.2030 H   0  0  0  0  0  0  0  0  0  0  0  0
    1.9650    2.6360    1.0910 H   0  0  0  0  0  0  0  0  0  0  0  0
    0.8140    1.3700    1.4860 H   0  0  0  0  0  0  0  0  0  0  0  0
    1.3360   -1.0240    0.9810 H   0  0  0  0  0  0  0  0  0  0  0  0
    3.1340   -2.7100    0.7600 H   0  0  0  0  0  0  0  0  0  0  0  0
    5.4270   -2.7950   -0.3670 H   0  0  0  0  0  0  0  0  0  0  0  0
    5.9960    0.4370   -0.0080 H   0  0  0  0  0  0  0  0  0  0  0  0
    4.1740    2.1240    0.1630 H   0  0  0  0  0  0  0  0  0  0  0  0
   -0.5100   -1.5750   -1.6290 H   0  0  0  0  0  0  0  0  0  0  0  0
  1  2  1  0
  1 26  1  0
  1 27  1  0
  1 25  1  0
  2  3  1  0
  3 23  2  0
  3  4  1  0
  4  6  2  0
  4  5  1  0
  5 28  1  0
  6  7  1  0
  6 29  1  0
  7 22  2  0
  7  8  1  0
  8  9  1  0
  9 30  1  0
  9 10  1  0
  9 31  1  0
 10 11  1  6
 10 20  1  0
 10 12  1  0
 12 13  1  0
 12 32  1  0
 12 33  1  0
 13 19  2  0
 13 14  1  0
 14 15  2  0
 14 34  1  0
 15 16  1  0
 15 35  1  0
 16 18  2  0
 16 17  1  0
 17 36  1  0
 18 37  1  0
 18 19  1  0
 19 38  1  0
 20 21  2  0
 20 22  1  0
 22 23  1  0
 23 24  1  0
 24 39  1  0
M  END
>  <id>  (145) 
245

>  <scaffolds>  (145) 
['c1ccccc1', 'O=C1c2ccccc2OCC1Cc1ccccc1', 'O=C(CCc1ccccc1)c1ccccc1']

>  <name>  (145) 
3,9-Dihydro-autumnalin

>  <formula>  (145) 
C17H16O6

>  <SMILES>  (145) 
COc3c(O)cc2OC[C@@H](Cc1ccc(O)cc1)C(=O)c2c3O

>  <ChEMBL_id>  (145) 


>  <ZINC_id>  (145) 


>  <PubChem_id>  (145) 


>  <DrugBank_id>  (145) 


>  <CAS_no>  (145) 
27435-03-6

>  <references>  (145) 
[{'journal': {'name': 'Phytochemistry: Advances in Research (Book)', 'id': 13}, 'title': 'Chapter 3: The phytochemistry and ethnobotany of the southern African genus Eucomis (Hyacinthaceae: Hyacinthoideae)', 'year': 2006, 'start_page': 69, 'volume': None, 'issue': None, 'doi': '', 'isbn': '81-308-0034-9', 'despositor': {'code': 'rah', 'first_name': 'Rowan', 'last_name': 'Hatherley', 'id': 20}, 'refauthors_set': [{'author': {'first_name': 'Chantal', 'initials': 'C', 'last_name': 'Koorbanally', 'id': 523}, 'first_author': True, 'id': 851}, {'author': {'first_name': 'Neil', 'initials': 'NR', 'last_name': 'Crouch', 'id': 524}, 'first_author': False, 'id': 852}, {'author': {'first_name': 'Dulcie', 'initials': 'DA', 'last_name': 'Mulholland', 'id': 525}, 'first_author': False, 'id': 853}], 'id': 259}, {'journal': {'name': 'Tetrahedron Letters', 'id': 3}, 'title': "The homo-isoflavones II1). Isolation and structure of 4'-o-methyl-punctatin, autumnalin and 3,9-dihydro-autumnalin", 'year': 1970, 'start_page': 475, 'volume': 11, 'issue': 7, 'doi': '10.1016/0040-4039(70)89003-7', 'isbn': '', 'despositor': {'code': 'rah', 'first_name': 'Rowan', 'last_name': 'Hatherley', 'id': 20}, 'refauthors_set': [{'author': {'first_name': 'Christoph', 'initials': 'C', 'last_name': 'Tamm', 'id': 543}, 'first_author': False, 'id': 726}, {'author': {'first_name': '', 'initials': 'WTL', 'last_name': 'Sidwell', 'id': 541}, 'first_author': True, 'id': 727}], 'id': 261}, {'journal': {'name': 'Bioorganic & Medicinal Chemistry', 'id': 34}, 'title': 'Anti-inflammatory activity and QSAR studies of compounds isolated from Hyacinthaceae species and Tachiadenus longiflorus Griseb. (Gentianaceae)', 'year': 2005, 'start_page': 2561, 'volume': 13, 'issue': 7, 'doi': '10.1016/j.bmc.2005.01.036', 'isbn': '', 'despositor': {'code': 'rah', 'first_name': 'Rowan', 'last_name': 'Hatherley', 'id': 20}, 'refauthors_set': [{'author': {'first_name': 'Karen', 'initials': 'K', 'last_name': 'Du Toit', 'id': 713}, 'first_author': True, 'id': 1075}, {'author': {'first_name': 'Esameldin', 'initials': 'EE', 'last_name': 'Elgorashi', 'id': 594}, 'first_author': None, 'id': 1076}, {'author': {'first_name': 'Sarel', 'initials': 'SF', 'last_name': 'Malan', 'id': 759}, 'first_author': None, 'id': 1077}, {'author': {'first_name': 'Siegfried', 'initials': 'SE', 'last_name': 'Drewes', 'id': 613}, 'first_author': None, 'id': 1078}, {'author': {'first_name': 'Johannes', 'initials': 'J', 'last_name': 'Van Staden', 'id': 489}, 'first_author': None, 'id': 1079}, {'author': {'first_name': 'Neil', 'initials': 'NR', 'last_name': 'Crouch', 'id': 524}, 'first_author': None, 'id': 1080}, {'author': {'first_name': 'Dulcie', 'initials': 'DA', 'last_name': 'Mulholland', 'id': 525}, 'first_author': None, 'id': 1081}], 'id': 362}]

>  <classifications>  (145) 
[{'classification': 'Flavonoids', 'id': 776}, {'classification': 'Homoisoflavonoid', 'id': 783}, {'classification': 'Homoisoflavonoids (Classyfire)', 'id': 964}]

>  <molecular_mass>  (145) 
316.3

$$$$
SANC00246_minRM1.pdb
     RDKit          3D

106108  0  0  1  0  0  0  0  0999 V2000
    8.1800    2.4220    0.1340 H   0  0  0  0  0  0  0  0  0  0  0  0
    8.2150    1.3270    0.1270 C   0  0  0  0  0  0  0  0  0  0  0  0
    9.3590    0.7090    0.1660 C   0  0  0  0  0  0  0  0  0  0  0  0
   10.4940    0.0800    0.1970 C   0  0  0  0  0  0  0  0  0  0  0  0
   11.1250   -0.3460    1.4930 C   0  0  1  0  0  0  0  0  0  0  0  0
   10.4820    0.3990    2.6690 C   0  0  0  0  0  0  0  0  0  0  0  0
   10.9040   -1.8470    1.6900 C   0  0  0  0  0  0  0  0  0  0  0  0
   12.6230   -0.0220    1.4780 C   0  0  0  0  0  0  0  0  0  0  0  0
   13.2740   -0.6200    0.2270 C   0  0  2  0  0  0  0  0  0  0  0  0
   13.1480   -1.7380    0.2110 H   0  0  0  0  0  0  0  0  0  0  0  0
   14.6410   -0.2540    0.3300 O   0  0  0  0  0  0  0  0  0  0  0  0
   15.5410   -0.8830   -0.4640 C   0  0  0  0  0  0  0  0  0  0  0  0
   16.9280   -0.3760   -0.2270 C   0  0  0  0  0  0  0  0  0  0  0  0
   15.1940   -1.7430   -1.2530 O   0  0  0  0  0  0  0  0  0  0  0  0
   12.6770    0.0190   -1.0260 C   0  0  0  0  0  0  0  0  0  0  0  0
   11.1750   -0.3000   -1.0980 C   0  0  2  0  0  0  0  0  0  0  0  0
   10.5620    0.4320   -2.3020 C   0  0  0  0  0  0  0  0  0  0  0  0
   10.9490   -1.6750   -1.2230 O   0  0  0  0  0  0  0  0  0  0  0  0
    6.9570    0.5890    0.0590 C   0  0  0  0  0  0  0  0  0  0  0  0
    7.0610   -0.8940    0.0760 C   0  0  0  0  0  0  0  0  0  0  0  0
    5.7870    1.2480   -0.0060 C   0  0  0  0  0  0  0  0  0  0  0  0
    4.5130    0.5610   -0.0910 C   0  0  0  0  0  0  0  0  0  0  0  0
    3.3450    1.1980    0.0710 C   0  0  0  0  0  0  0  0  0  0  0  0
    2.0590    0.5180   -0.0070 C   0  0  0  0  0  0  0  0  0  0  0  0
    2.0570   -0.9680    0.0440 C   0  0  0  0  0  0  0  0  0  0  0  0
    0.9250    1.2380   -0.0900 C   0  0  0  0  0  0  0  0  0  0  0  0
   -0.3900    0.6350   -0.1610 C   0  0  0  0  0  0  0  0  0  0  0  0
   -1.5060    1.3610    0.0000 C   0  0  0  0  0  0  0  0  0  0  0  0
   -2.8220    0.7580   -0.0670 C   0  0  0  0  0  0  0  0  0  0  0  0
   -3.9560    1.4790   -0.1350 C   0  0  0  0  0  0  0  0  0  0  0  0
   -3.9550    2.9640   -0.1890 C   0  0  0  0  0  0  0  0  0  0  0  0
   -5.2400    0.7940   -0.1850 C   0  0  0  0  0  0  0  0  0  0  0  0
   -6.4200    1.4220   -0.0920 C   0  0  0  0  0  0  0  0  0  0  0  0
   -7.6660    0.6800   -0.1400 C   0  0  0  0  0  0  0  0  0  0  0  0
   -8.8770    1.2620   -0.1970 C   0  0  0  0  0  0  0  0  0  0  0  0
   -9.0630    2.7330   -0.2510 C   0  0  0  0  0  0  0  0  0  0  0  0
  -10.0820    0.4030   -0.2320 C   0  0  0  0  0  0  0  0  0  0  0  0
   -9.9810   -0.8140   -0.2250 O   0  0  0  0  0  0  0  0  0  0  0  0
  -11.4320    1.0720   -0.2960 C   0  0  0  0  0  0  0  0  0  0  0  0
  -12.5410    0.0500   -0.1610 C   0  0  1  0  0  0  0  0  0  0  0  0
  -13.5900    0.2020   -1.1080 O   0  0  0  0  0  0  0  0  0  0  0  0
  -12.7500   -0.9230   -1.2980 C   0  0  1  0  0  0  0  0  0  0  0  0
  -11.9040   -0.8860   -2.5440 C   0  0  0  0  0  0  0  0  0  0  0  0
  -13.3710   -2.2740   -1.0550 C   0  0  0  0  0  0  0  0  0  0  0  0
  -14.1160   -2.3160    0.2870 C   0  0  1  0  0  0  0  0  0  0  0  0
  -15.0560   -1.6960    0.2300 H   0  0  0  0  0  0  0  0  0  0  0  0
  -14.4120   -3.6390    0.6370 O   0  0  0  0  0  0  0  0  0  0  0  0
  -13.1980   -1.7940    1.3970 C   0  0  0  0  0  0  0  0  0  0  0  0
  -13.0010   -0.2800    1.2580 C   0  0  1  0  0  0  0  0  0  0  0  0
  -11.9760    0.1550    2.3090 C   0  0  0  0  0  0  0  0  0  0  0  0
  -14.3150    0.4500    1.5490 C   0  0  0  0  0  0  0  0  0  0  0  0
    9.4220    0.1330    2.7920 H   0  0  0  0  0  0  0  0  0  0  0  0
   10.9750    0.1680    3.6240 H   0  0  0  0  0  0  0  0  0  0  0  0
   10.5240    1.4900    2.5470 H   0  0  0  0  0  0  0  0  0  0  0  0
   11.5480   -2.4640    1.0460 H   0  0  0  0  0  0  0  0  0  0  0  0
   11.1120   -2.1620    2.7230 H   0  0  0  0  0  0  0  0  0  0  0  0
    9.8670   -2.1370    1.4680 H   0  0  0  0  0  0  0  0  0  0  0  0
   12.7880    1.0760    1.5190 H   0  0  0  0  0  0  0  0  0  0  0  0
   13.1130   -0.4130    2.3950 H   0  0  0  0  0  0  0  0  0  0  0  0
   17.1760   -0.3340    0.8440 H   0  0  0  0  0  0  0  0  0  0  0  0
   17.6730   -1.0160   -0.7220 H   0  0  0  0  0  0  0  0  0  0  0  0
   17.0450    0.6420   -0.6280 H   0  0  0  0  0  0  0  0  0  0  0  0
   12.8330    1.1180   -1.0200 H   0  0  0  0  0  0  0  0  0  0  0  0
   13.1960   -0.3310   -1.9420 H   0  0  0  0  0  0  0  0  0  0  0  0
   11.0840    0.1990   -3.2410 H   0  0  0  0  0  0  0  0  0  0  0  0
    9.5070    0.1590   -2.4510 H   0  0  0  0  0  0  0  0  0  0  0  0
   10.5970    1.5230   -2.1800 H   0  0  0  0  0  0  0  0  0  0  0  0
   11.3990   -1.9800   -2.0170 H   0  0  0  0  0  0  0  0  0  0  0  0
    7.3330   -1.2520    1.0820 H   0  0  0  0  0  0  0  0  0  0  0  0
    6.1230   -1.4010   -0.2040 H   0  0  0  0  0  0  0  0  0  0  0  0
    7.8360   -1.2650   -0.6140 H   0  0  0  0  0  0  0  0  0  0  0  0
    5.7590    2.3430   -0.0040 H   0  0  0  0  0  0  0  0  0  0  0  0
    4.5500   -0.5210   -0.2980 H   0  0  0  0  0  0  0  0  0  0  0  0
    3.3160    2.2770    0.2670 H   0  0  0  0  0  0  0  0  0  0  0  0
    2.1560   -1.3190    1.0840 H   0  0  0  0  0  0  0  0  0  0  0  0
    1.1340   -1.4160   -0.3580 H   0  0  0  0  0  0  0  0  0  0  0  0
    2.8900   -1.4130   -0.5240 H   0  0  0  0  0  0  0  0  0  0  0  0
    0.9620    2.3340   -0.1040 H   0  0  0  0  0  0  0  0  0  0  0  0
   -0.4320   -0.4460   -0.3620 H   0  0  0  0  0  0  0  0  0  0  0  0
   -1.4650    2.4410    0.1930 H   0  0  0  0  0  0  0  0  0  0  0  0
   -2.8580   -0.3390   -0.0520 H   0  0  0  0  0  0  0  0  0  0  0  0
   -4.0790    3.3180   -1.2250 H   0  0  0  0  0  0  0  0  0  0  0  0
   -4.7690    3.4100    0.4050 H   0  0  0  0  0  0  0  0  0  0  0  0
   -3.0180    3.4090    0.1890 H   0  0  0  0  0  0  0  0  0  0  0  0
   -5.2000   -0.2970   -0.3040 H   0  0  0  0  0  0  0  0  0  0  0  0
   -6.4930    2.5120    0.0330 H   0  0  0  0  0  0  0  0  0  0  0  0
   -7.5770   -0.4160   -0.1210 H   0  0  0  0  0  0  0  0  0  0  0  0
   -9.4240    3.0540   -1.2440 H   0  0  0  0  0  0  0  0  0  0  0  0
   -9.7870    3.0970    0.4920 H   0  0  0  0  0  0  0  0  0  0  0  0
   -8.1280    3.2930   -0.0620 H   0  0  0  0  0  0  0  0  0  0  0  0
  -11.5300    1.8510    0.4930 H   0  0  0  0  0  0  0  0  0  0  0  0
  -11.5150    1.6500   -1.2430 H   0  0  0  0  0  0  0  0  0  0  0  0
  -11.5490    0.1190   -2.8090 H   0  0  0  0  0  0  0  0  0  0  0  0
  -11.0190   -1.5300   -2.4430 H   0  0  0  0  0  0  0  0  0  0  0  0
  -12.4700   -1.2430   -3.4180 H   0  0  0  0  0  0  0  0  0  0  0  0
  -14.0550   -2.5320   -1.8910 H   0  0  0  0  0  0  0  0  0  0  0  0
  -12.5730   -3.0470   -1.0790 H   0  0  0  0  0  0  0  0  0  0  0  0
  -14.9850   -3.9990   -0.0450 H   0  0  0  0  0  0  0  0  0  0  0  0
  -13.6190   -2.0390    2.3960 H   0  0  0  0  0  0  0  0  0  0  0  0
  -12.2200   -2.3220    1.3670 H   0  0  0  0  0  0  0  0  0  0  0  0
  -10.9890   -0.3060    2.1610 H   0  0  0  0  0  0  0  0  0  0  0  0
  -11.8250    1.2460    2.3220 H   0  0  0  0  0  0  0  0  0  0  0  0
  -12.2930   -0.1210    3.3260 H   0  0  0  0  0  0  0  0  0  0  0  0
  -14.6360    0.3240    2.5940 H   0  0  0  0  0  0  0  0  0  0  0  0
  -14.2340    1.5310    1.3650 H   0  0  0  0  0  0  0  0  0  0  0  0
  -15.1460    0.0840    0.9250 H   0  0  0  0  0  0  0  0  0  0  0  0
  1  2  1  0
  2 19  1  0
  2  3  2  0
  3  4  2  0
  4 16  1  0
  4  5  1  0
  5  8  1  0
  5  7  1  1
  5  6  1  0
  6 54  1  0
  6 52  1  0
  6 53  1  0
  7 55  1  0
  7 57  1  0
  7 56  1  0
  8  9  1  0
  8 58  1  0
  8 59  1  0
  9 15  1  0
  9 10  1  6
  9 11  1  0
 11 12  1  0
 12 14  2  0
 12 13  1  0
 13 61  1  0
 13 62  1  0
 13 60  1  0
 15 64  1  0
 15 16  1  0
 15 63  1  0
 16 17  1  0
 16 18  1  6
 17 65  1  0
 17 66  1  0
 17 67  1  0
 18 68  1  0
 19 21  2  0
 19 20  1  0
 20 71  1  0
 20 70  1  0
 20 69  1  0
 21 22  1  0
 21 72  1  0
 22 73  1  0
 22 23  2  0
 23 24  1  0
 23 74  1  0
 24 26  2  0
 24 25  1  0
 25 77  1  0
 25 76  1  0
 25 75  1  0
 26 27  1  0
 26 78  1  0
 27 79  1  0
 27 28  2  0
 28 29  1  0
 28 80  1  0
 29 30  2  0
 29 81  1  0
 30 31  1  0
 30 32  1  0
 31 82  1  0
 31 84  1  0
 31 83  1  0
 32 85  1  0
 32 33  2  0
 33 34  1  0
 33 86  1  0
 34 35  2  0
 34 87  1  0
 35 36  1  0
 35 37  1  0
 36 88  1  0
 36 90  1  0
 36 89  1  0
 37 39  1  0
 37 38  2  0
 39 92  1  0
 39 91  1  0
 40 39  1  1
 40 42  1  0
 40 41  1  0
 40 49  1  0
 41 42  1  0
 42 43  1  6
 42 44  1  0
 43 95  1  0
 43 93  1  0
 43 94  1  0
 44 96  1  0
 44 97  1  0
 44 45  1  0
 45 46  1  6
 45 47  1  0
 45 48  1  0
 47 98  1  0
 48 49  1  0
 48100  1  0
 48 99  1  0
 49 51  1  1
 49 50  1  0
 50101  1  0
 50102  1  0
 50103  1  0
 51106  1  0
 51105  1  0
 51104  1  0
M  END
>  <id>  (146) 
246

>  <scaffolds>  (146) 
['C1CCCCC1', 'O=C(C=CC=CC=CC=CC=CC=CC=CC=C=C1CCCCC1)CC12CCCCC1O2']

>  <name>  (146) 
Fucoxanthin

>  <formula>  (146) 
C42H58O6

>  <SMILES>  (146) 
[H]C(=[C@]=C1C(C)(C)C[C@H](OC(C)=O)C[C@@]1(C)O)/C(C)=C/C=C/C(C)=C/C=C/C=C(C)/C=C/C=C(C)/C(=O)C[C@@]23O[C@]2(C)C[C@@H](O)CC3(C)C

>  <ChEMBL_id>  (146) 


>  <ZINC_id>  (146) 


>  <PubChem_id>  (146) 
 5281239

>  <DrugBank_id>  (146) 


>  <CAS_no>  (146) 
3351-86-8

>  <references>  (146) 
[{'journal': {'name': 'Narurforsch', 'id': 16}, 'title': 'Fucoxanthin, Tetraprenylated Toluquinone and Toluhydroquinone Metabolites from Sargassum heterophyllum Inhibit the in vitro Growth of the Malaria Parasite Plasmodium falciparum Anthonia', 'year': 2008, 'start_page': 848, 'volume': 63, 'issue': None, 'doi': '', 'isbn': '', 'despositor': {'code': 'DLP', 'first_name': 'David', 'last_name': 'Penkler', 'id': 23}, 'refauthors_set': [{'author': {'first_name': 'Anthonia ', 'initials': 'AF', 'last_name': 'Afolayan', 'id': 548}, 'first_author': True, 'id': 738}, {'author': {'first_name': 'John', 'initials': 'JJ', 'last_name': 'Bolton', 'id': 500}, 'first_author': False, 'id': 739}, {'author': {'first_name': 'Carmen', 'initials': 'CA', 'last_name': 'Lategan', 'id': 488}, 'first_author': False, 'id': 740}, {'author': {'first_name': 'Peter', 'initials': 'PJ', 'last_name': 'Smith', 'id': 490}, 'first_author': False, 'id': 741}, {'author': {'first_name': 'Denzil', 'initials': 'DR', 'last_name': 'Beukes', 'id': 453}, 'first_author': False, 'id': 742}], 'id': 265}]

>  <classifications>  (146) 
[{'classification': 'Xanthophyll', 'id': 847}, {'classification': 'Phenol lipids (Classyfire)', 'id': 951}]

>  <molecular_mass>  (146) 
658.9

$$$$
SANC00247_minRM1.pdb
     RDKit          3D

 67 67  0  0  0  0  0  0  0  0999 V2000
   -8.7820    1.6040   -1.6620 C   0  0  0  0  0  0  0  0  0  0  0  0
   -9.2910    0.8890   -0.4630 C   0  0  0  0  0  0  0  0  0  0  0  0
  -10.7410    1.0750   -0.1810 C   0  0  0  0  0  0  0  0  0  0  0  0
   -8.5240    0.1280    0.3190 C   0  0  0  0  0  0  0  0  0  0  0  0
   -7.0740   -0.1290    0.0990 C   0  0  0  0  0  0  0  0  0  0  0  0
   -6.3000    0.1330    1.3940 C   0  0  0  0  0  0  0  0  0  0  0  0
   -4.8430   -0.1020    1.1730 C   0  0  0  0  0  0  0  0  0  0  0  0
   -3.9600    0.8690    0.9460 C   0  0  0  0  0  0  0  0  0  0  0  0
   -2.5030    0.6500    0.7340 C   0  0  0  0  0  0  0  0  0  0  0  0
   -2.0920    1.1720   -0.6460 C   0  0  0  0  0  0  0  0  0  0  0  0
   -0.6150    1.0010   -0.8090 C   0  0  0  0  0  0  0  0  0  0  0  0
    0.2370    2.0290   -0.1570 C   0  0  0  0  0  0  0  0  0  0  0  0
   -0.1210   -0.0330   -1.4940 C   0  0  0  0  0  0  0  0  0  0  0  0
    1.3290   -0.3000   -1.7090 C   0  0  0  0  0  0  0  0  0  0  0  0
    1.6950   -1.6530   -1.0920 C   0  0  0  0  0  0  0  0  0  0  0  0
    3.1620   -1.8970   -1.2550 C   0  0  0  0  0  0  0  0  0  0  0  0
    3.6140   -2.2800   -2.6180 C   0  0  0  0  0  0  0  0  0  0  0  0
    3.9940   -1.7580   -0.2200 C   0  0  0  0  0  0  0  0  0  0  0  0
    5.4650   -1.9990   -0.2770 C   0  0  0  0  0  0  0  0  0  0  0  0
    6.1600   -0.7870    0.2550 C   0  0  0  0  0  0  0  0  0  0  0  0
    6.5290   -0.6880    1.5340 C   0  0  0  0  0  0  0  0  0  0  0  0
    7.1850    0.5270    2.0530 C   0  0  0  0  0  0  0  0  0  0  0  0
    7.6630    0.5610    3.1740 O   0  0  0  0  0  0  0  0  0  0  0  0
    7.2250    1.7040    1.1640 C   0  0  0  0  0  0  0  0  0  0  0  0
    6.8580    1.6150   -0.1160 C   0  0  0  0  0  0  0  0  0  0  0  0
    6.8850    2.7750   -1.0410 C   0  0  0  0  0  0  0  0  0  0  0  0
    6.4130    0.3220   -0.6960 C   0  0  0  0  0  0  0  0  0  0  0  0
    6.2790    0.1820   -1.8990 O   0  0  0  0  0  0  0  0  0  0  0  0
   -4.4570   -1.5220    1.2030 C   0  0  0  0  0  0  0  0  0  0  0  0
   -4.6890   -2.3860    0.3740 O   0  0  0  0  0  0  0  0  0  0  0  0
   -3.7830   -1.8500    2.3280 O   0  0  0  0  0  0  0  0  0  0  0  0
   -9.5660    2.1550   -2.2010 H   0  0  0  0  0  0  0  0  0  0  0  0
   -8.0120    2.3440   -1.4010 H   0  0  0  0  0  0  0  0  0  0  0  0
   -8.3350    0.9130   -2.3940 H   0  0  0  0  0  0  0  0  0  0  0  0
  -11.3600    0.7150   -1.0180 H   0  0  0  0  0  0  0  0  0  0  0  0
  -11.0930    0.5480    0.7190 H   0  0  0  0  0  0  0  0  0  0  0  0
  -10.9860    2.1370   -0.0360 H   0  0  0  0  0  0  0  0  0  0  0  0
   -8.9520   -0.3840    1.1880 H   0  0  0  0  0  0  0  0  0  0  0  0
   -6.9390   -1.1810   -0.2360 H   0  0  0  0  0  0  0  0  0  0  0  0
   -6.6390    0.4770   -0.7210 H   0  0  0  0  0  0  0  0  0  0  0  0
   -6.4840    1.1700    1.7500 H   0  0  0  0  0  0  0  0  0  0  0  0
   -6.6710   -0.5090    2.2210 H   0  0  0  0  0  0  0  0  0  0  0  0
   -4.2890    1.9150    0.9030 H   0  0  0  0  0  0  0  0  0  0  0  0
   -1.9400    1.1720    1.5390 H   0  0  0  0  0  0  0  0  0  0  0  0
   -2.2000   -0.4130    0.8370 H   0  0  0  0  0  0  0  0  0  0  0  0
   -2.6610    0.6430   -1.4400 H   0  0  0  0  0  0  0  0  0  0  0  0
   -2.3800    2.2370   -0.7750 H   0  0  0  0  0  0  0  0  0  0  0  0
   -0.3370    2.7770    0.4120 H   0  0  0  0  0  0  0  0  0  0  0  0
    0.9460    1.5830    0.5590 H   0  0  0  0  0  0  0  0  0  0  0  0
    0.8290    2.5950   -0.8930 H   0  0  0  0  0  0  0  0  0  0  0  0
   -0.7900   -0.7690   -1.9550 H   0  0  0  0  0  0  0  0  0  0  0  0
    1.5430   -0.2910   -2.8000 H   0  0  0  0  0  0  0  0  0  0  0  0
    1.9900    0.4910   -1.2990 H   0  0  0  0  0  0  0  0  0  0  0  0
    1.3860   -1.6800   -0.0250 H   0  0  0  0  0  0  0  0  0  0  0  0
    1.1110   -2.4750   -1.5600 H   0  0  0  0  0  0  0  0  0  0  0  0
    2.7930   -2.3690   -3.3440 H   0  0  0  0  0  0  0  0  0  0  0  0
    4.3140   -1.5380   -3.0360 H   0  0  0  0  0  0  0  0  0  0  0  0
    4.1290   -3.2530   -2.6220 H   0  0  0  0  0  0  0  0  0  0  0  0
    3.6220   -1.4680    0.7690 H   0  0  0  0  0  0  0  0  0  0  0  0
    5.7110   -2.9030    0.3240 H   0  0  0  0  0  0  0  0  0  0  0  0
    5.8420   -2.2460   -1.2920 H   0  0  0  0  0  0  0  0  0  0  0  0
    6.3660   -1.4980    2.2550 H   0  0  0  0  0  0  0  0  0  0  0  0
    7.5760    2.6400    1.6120 H   0  0  0  0  0  0  0  0  0  0  0  0
    7.2310    3.7060   -0.5660 H   0  0  0  0  0  0  0  0  0  0  0  0
    7.5500    2.5820   -1.8990 H   0  0  0  0  0  0  0  0  0  0  0  0
    5.8850    2.9780   -1.4560 H   0  0  0  0  0  0  0  0  0  0  0  0
   -3.5580   -2.7910    2.3440 H   0  0  0  0  0  0  0  0  0  0  0  0
  1 34  1  0
  1 32  1  0
  1 33  1  0
  1  2  1  0
  2  3  1  0
  2  4  2  0
  3 35  1  0
  3 37  1  0
  3 36  1  0
  4  5  1  0
  4 38  1  0
  5 40  1  0
  5 39  1  0
  5  6  1  0
  6  7  1  0
  6 41  1  0
  6 42  1  0
  7  8  2  0
  7 29  1  0
  8  9  1  0
  8 43  1  0
  9 10  1  0
  9 45  1  0
  9 44  1  0
 10 46  1  0
 10 11  1  0
 10 47  1  0
 11 13  2  0
 11 12  1  0
 12 50  1  0
 12 48  1  0
 12 49  1  0
 13 51  1  0
 13 14  1  0
 14 52  1  0
 14 53  1  0
 14 15  1  0
 15 55  1  0
 15 16  1  0
 15 54  1  0
 16 17  1  0
 16 18  2  0
 17 56  1  0
 17 57  1  0
 17 58  1  0
 18 19  1  0
 18 59  1  0
 19 61  1  0
 19 20  1  0
 19 60  1  0
 20 27  1  0
 20 21  2  0
 21 22  1  0
 21 62  1  0
 22 24  1  0
 22 23  2  0
 24 25  2  0
 24 63  1  0
 25 26  1  0
 25 27  1  0
 26 65  1  0
 26 66  1  0
 26 64  1  0
 27 28  2  0
 29 30  2  0
 29 31  1  0
 31 67  1  0
M  END
>  <id>  (147) 
247

>  <scaffolds>  (147) 
[]

>  <name>  (147) 
Sargaquinoic acid

>  <formula>  (147) 
C27H36O4

>  <SMILES>  (147) 
C/C(C)=C\CC/C(=C/CC/C(C)=C/CC/C(C)=C/Cc1cc(=O)cc(C)c1=O)C(=O)O

>  <ChEMBL_id>  (147) 


>  <ZINC_id>  (147) 


>  <PubChem_id>  (147) 
 9802458

>  <DrugBank_id>  (147) 


>  <CAS_no>  (147) 
70363-87-0

>  <references>  (147) 
[{'journal': {'name': 'Narurforsch', 'id': 16}, 'title': 'Fucoxanthin, Tetraprenylated Toluquinone and Toluhydroquinone Metabolites from Sargassum heterophyllum Inhibit the in vitro Growth of the Malaria Parasite Plasmodium falciparum Anthonia', 'year': 2008, 'start_page': 848, 'volume': 63, 'issue': None, 'doi': '', 'isbn': '', 'despositor': {'code': 'DLP', 'first_name': 'David', 'last_name': 'Penkler', 'id': 23}, 'refauthors_set': [{'author': {'first_name': 'Anthonia ', 'initials': 'AF', 'last_name': 'Afolayan', 'id': 548}, 'first_author': True, 'id': 738}, {'author': {'first_name': 'John', 'initials': 'JJ', 'last_name': 'Bolton', 'id': 500}, 'first_author': False, 'id': 739}, {'author': {'first_name': 'Carmen', 'initials': 'CA', 'last_name': 'Lategan', 'id': 488}, 'first_author': False, 'id': 740}, {'author': {'first_name': 'Peter', 'initials': 'PJ', 'last_name': 'Smith', 'id': 490}, 'first_author': False, 'id': 741}, {'author': {'first_name': 'Denzil', 'initials': 'DR', 'last_name': 'Beukes', 'id': 453}, 'first_author': False, 'id': 742}], 'id': 265}]

>  <classifications>  (147) 
[{'classification': 'Tetraprenyltoluquinol', 'id': 840}, {'classification': 'Phenol lipids (Classyfire)', 'id': 951}]

>  <molecular_mass>  (147) 
424.57

$$$$
SANC00248_minRM1.pdb
     RDKit          3D

 66 66  0  0  0  0  0  0  0  0999 V2000
   10.7350    0.9700    0.4160 C   0  0  0  0  0  0  0  0  0  0  0  0
    9.2520    0.8620    0.5400 C   0  0  0  0  0  0  0  0  0  0  0  0
    8.5830    1.9740    1.2620 C   0  0  0  0  0  0  0  0  0  0  0  0
    8.6020   -0.1810    0.0200 C   0  0  0  0  0  0  0  0  0  0  0  0
    7.1280   -0.3800    0.0850 C   0  0  0  0  0  0  0  0  0  0  0  0
    6.5240   -0.2720   -1.3180 C   0  0  0  0  0  0  0  0  0  0  0  0
    5.0460   -0.4740   -1.2250 C   0  0  0  0  0  0  0  0  0  0  0  0
    4.5630   -1.8700   -1.1900 C   0  0  0  0  0  0  0  0  0  0  0  0
    5.2770   -2.8170   -1.4550 O   0  0  0  0  0  0  0  0  0  0  0  0
    4.2090    0.5640   -1.1340 C   0  0  0  0  0  0  0  0  0  0  0  0
    2.7280    0.4510   -1.0140 C   0  0  0  0  0  0  0  0  0  0  0  0
    2.2460    1.2350    0.2090 C   0  0  0  0  0  0  0  0  0  0  0  0
    0.7670    1.0620    0.3580 C   0  0  0  0  0  0  0  0  0  0  0  0
   -0.0790    1.8470   -0.5770 C   0  0  0  0  0  0  0  0  0  0  0  0
    0.2670    0.2380    1.2810 C   0  0  0  0  0  0  0  0  0  0  0  0
   -1.1850   -0.0030    1.5110 C   0  0  0  0  0  0  0  0  0  0  0  0
   -1.5250   -1.4530    1.1540 C   0  0  0  0  0  0  0  0  0  0  0  0
   -2.9770   -1.7020    1.4120 C   0  0  0  0  0  0  0  0  0  0  0  0
   -3.3690   -1.8550    2.8380 C   0  0  0  0  0  0  0  0  0  0  0  0
   -3.8480   -1.7600    0.4030 C   0  0  0  0  0  0  0  0  0  0  0  0
   -5.3090   -2.0160    0.5570 C   0  0  0  0  0  0  0  0  0  0  0  0
   -6.0520   -0.8920   -0.0910 C   0  0  0  0  0  0  0  0  0  0  0  0
   -6.4430   -0.9440   -1.3640 C   0  0  0  0  0  0  0  0  0  0  0  0
   -7.1390    0.1920   -2.0000 C   0  0  0  0  0  0  0  0  0  0  0  0
   -7.6650    0.0840   -3.0920 O   0  0  0  0  0  0  0  0  0  0  0  0
   -7.1430    1.4730   -1.2640 C   0  0  0  0  0  0  0  0  0  0  0  0
   -6.7530    1.5340    0.0100 C   0  0  0  0  0  0  0  0  0  0  0  0
   -6.7310    2.8000    0.7860 C   0  0  0  0  0  0  0  0  0  0  0  0
   -6.3300    0.3080    0.7350 C   0  0  0  0  0  0  0  0  0  0  0  0
   -6.2310    0.2910    1.9490 O   0  0  0  0  0  0  0  0  0  0  0  0
   11.1750    1.6170    1.1890 H   0  0  0  0  0  0  0  0  0  0  0  0
   11.2460   -0.0040    0.5060 H   0  0  0  0  0  0  0  0  0  0  0  0
   11.0230    1.3940   -0.5620 H   0  0  0  0  0  0  0  0  0  0  0  0
    9.0790    2.9410    1.0920 H   0  0  0  0  0  0  0  0  0  0  0  0
    7.5300    2.1190    0.9690 H   0  0  0  0  0  0  0  0  0  0  0  0
    8.5910    1.7970    2.3480 H   0  0  0  0  0  0  0  0  0  0  0  0
    9.1480   -0.9770   -0.5010 H   0  0  0  0  0  0  0  0  0  0  0  0
    6.9100   -1.3770    0.5260 H   0  0  0  0  0  0  0  0  0  0  0  0
    6.6290    0.3360    0.7750 H   0  0  0  0  0  0  0  0  0  0  0  0
    6.7730    0.7120   -1.7710 H   0  0  0  0  0  0  0  0  0  0  0  0
    6.9830   -1.0140   -2.0050 H   0  0  0  0  0  0  0  0  0  0  0  0
    3.4990   -2.0120   -0.9030 H   0  0  0  0  0  0  0  0  0  0  0  0
    4.5960    1.5930   -1.1440 H   0  0  0  0  0  0  0  0  0  0  0  0
    2.2550    0.8310   -1.9440 H   0  0  0  0  0  0  0  0  0  0  0  0
    2.3880   -0.6060   -0.9390 H   0  0  0  0  0  0  0  0  0  0  0  0
    2.7940    0.9040    1.1160 H   0  0  0  0  0  0  0  0  0  0  0  0
    2.5020    2.3120    0.1190 H   0  0  0  0  0  0  0  0  0  0  0  0
    0.5010    2.4410   -1.3010 H   0  0  0  0  0  0  0  0  0  0  0  0
   -0.7390    1.2010   -1.1740 H   0  0  0  0  0  0  0  0  0  0  0  0
   -0.7210    2.5640   -0.0430 H   0  0  0  0  0  0  0  0  0  0  0  0
    0.9300   -0.3280    1.9450 H   0  0  0  0  0  0  0  0  0  0  0  0
   -1.4250    0.2090    2.5760 H   0  0  0  0  0  0  0  0  0  0  0  0
   -1.8430    0.6880    0.9470 H   0  0  0  0  0  0  0  0  0  0  0  0
   -1.2490   -1.6580    0.0980 H   0  0  0  0  0  0  0  0  0  0  0  0
   -0.9020   -2.1630    1.7370 H   0  0  0  0  0  0  0  0  0  0  0  0
   -2.5230   -1.7760    3.5360 H   0  0  0  0  0  0  0  0  0  0  0  0
   -4.0920   -1.0850    3.1470 H   0  0  0  0  0  0  0  0  0  0  0  0
   -3.8310   -2.8340    3.0330 H   0  0  0  0  0  0  0  0  0  0  0  0
   -3.5200   -1.6280   -0.6350 H   0  0  0  0  0  0  0  0  0  0  0  0
   -5.5620   -2.9930    0.0850 H   0  0  0  0  0  0  0  0  0  0  0  0
   -5.6380   -2.1450    1.6100 H   0  0  0  0  0  0  0  0  0  0  0  0
   -6.2740   -1.8240   -1.9920 H   0  0  0  0  0  0  0  0  0  0  0  0
   -7.4800    2.3570   -1.8210 H   0  0  0  0  0  0  0  0  0  0  0  0
   -7.0770    3.6710    0.2130 H   0  0  0  0  0  0  0  0  0  0  0  0
   -7.3780    2.7330    1.6770 H   0  0  0  0  0  0  0  0  0  0  0  0
   -5.7150    3.0250    1.1490 H   0  0  0  0  0  0  0  0  0  0  0  0
  1 33  1  0
  1 32  1  0
  1  2  1  0
  1 31  1  0
  2  4  2  0
  2  3  1  0
  3 35  1  0
  3 34  1  0
  3 36  1  0
  4 37  1  0
  4  5  1  0
  5  6  1  0
  5 38  1  0
  5 39  1  0
  6 41  1  0
  6 40  1  0
  6  7  1  0
  7  8  1  0
  7 10  2  0
  8  9  2  0
  8 42  1  0
 10 43  1  0
 10 11  1  0
 11 44  1  0
 11 45  1  0
 11 12  1  0
 12 47  1  0
 12 13  1  0
 12 46  1  0
 13 14  1  0
 13 15  2  0
 14 48  1  0
 14 49  1  0
 14 50  1  0
 15 16  1  0
 15 51  1  0
 16 53  1  0
 16 17  1  0
 16 52  1  0
 17 54  1  0
 17 18  1  0
 17 55  1  0
 18 20  2  0
 18 19  1  0
 19 58  1  0
 19 57  1  0
 19 56  1  0
 20 59  1  0
 20 21  1  0
 21 22  1  0
 21 60  1  0
 21 61  1  0
 22 23  2  0
 22 29  1  0
 23 24  1  0
 23 62  1  0
 24 25  2  0
 24 26  1  0
 26 63  1  0
 26 27  2  0
 27 29  1  0
 27 28  1  0
 28 64  1  0
 28 66  1  0
 28 65  1  0
 29 30  2  0
M  END
>  <id>  (148) 
248

>  <scaffolds>  (148) 
[]

>  <name>  (148) 
Sargaquinal

>  <formula>  (148) 
C27H36O3

>  <SMILES>  (148) 
C/C(C)=C/CC/C(C=O)=C/CC/C(C)=C/CC/C(C)=C/Cc1cc(=O)cc(C)c1=O

>  <ChEMBL_id>  (148) 


>  <ZINC_id>  (148) 


>  <PubChem_id>  (148) 


>  <DrugBank_id>  (148) 


>  <CAS_no>  (148) 
70363-88-1

>  <references>  (148) 
[{'journal': {'name': 'Narurforsch', 'id': 16}, 'title': 'Fucoxanthin, Tetraprenylated Toluquinone and Toluhydroquinone Metabolites from Sargassum heterophyllum Inhibit the in vitro Growth of the Malaria Parasite Plasmodium falciparum Anthonia', 'year': 2008, 'start_page': 848, 'volume': 63, 'issue': None, 'doi': '', 'isbn': '', 'despositor': {'code': 'DLP', 'first_name': 'David', 'last_name': 'Penkler', 'id': 23}, 'refauthors_set': [{'author': {'first_name': 'Anthonia ', 'initials': 'AF', 'last_name': 'Afolayan', 'id': 548}, 'first_author': True, 'id': 738}, {'author': {'first_name': 'John', 'initials': 'JJ', 'last_name': 'Bolton', 'id': 500}, 'first_author': False, 'id': 739}, {'author': {'first_name': 'Carmen', 'initials': 'CA', 'last_name': 'Lategan', 'id': 488}, 'first_author': False, 'id': 740}, {'author': {'first_name': 'Peter', 'initials': 'PJ', 'last_name': 'Smith', 'id': 490}, 'first_author': False, 'id': 741}, {'author': {'first_name': 'Denzil', 'initials': 'DR', 'last_name': 'Beukes', 'id': 453}, 'first_author': False, 'id': 742}], 'id': 265}]

>  <classifications>  (148) 
[{'classification': 'Tetraprenyltoluquinol', 'id': 840}, {'classification': 'Phenol lipids (Classyfire)', 'id': 951}]

>  <molecular_mass>  (148) 
408.57

$$$$
SANC00249_minRM1.pdb
     RDKit          3D

 39 42  0  0  1  0  0  0  0  0999 V2000
   -1.0020    3.6330    0.6650 O   0  0  0  0  0  0  0  0  0  0  0  0
   -1.3840    2.5300    0.3120 C   0  0  0  0  0  0  0  0  0  0  0  0
   -2.7430    2.0610    0.5080 C   0  0  0  0  0  0  0  0  0  0  0  0
   -3.0610    0.7540    0.3000 C   0  0  0  0  0  0  0  0  0  0  0  0
   -4.2970    0.1760    0.4910 N   0  0  0  0  0  0  0  0  0  0  0  0
   -4.5910   -1.1520   -0.0650 C   0  0  0  0  0  0  0  0  0  0  0  0
   -3.4460   -2.1760    0.1030 C   0  0  0  0  0  0  0  0  0  0  0  0
   -2.1600   -1.5480   -0.2320 C   0  0  0  0  0  0  0  0  0  0  0  0
   -0.9170   -2.0390   -0.6150 C   0  0  0  0  0  0  0  0  0  0  0  0
   -0.0310   -0.9530   -0.7170 N   0  0  0  0  0  0  0  0  0  0  0  0
    1.3900   -1.1050   -1.0870 C   0  0  1  0  0  0  0  0  0  0  0  0
    2.0360    0.1260   -0.9580 O   0  0  0  0  0  0  0  0  0  0  0  0
    2.7920    0.1630    0.2360 C   0  0  2  0  0  0  0  0  0  0  0  0
    2.1330    0.4570    1.0970 H   0  0  0  0  0  0  0  0  0  0  0  0
    3.9200    1.1950    0.0140 C   0  0  0  0  0  0  0  0  0  0  0  0
    3.5310    2.4490    0.4630 O   0  0  0  0  0  0  0  0  0  0  0  0
    3.3350   -1.2770    0.3930 C   0  0  1  0  0  0  0  0  0  0  0  0
    4.2870   -1.4230   -0.1830 H   0  0  0  0  0  0  0  0  0  0  0  0
    3.5340   -1.6860    1.7050 O   0  0  0  0  0  0  0  0  0  0  0  0
    2.1880   -2.1420   -0.2110 C   0  0  1  0  0  0  0  0  0  0  0  0
    2.5980   -2.9540   -0.8670 H   0  0  0  0  0  0  0  0  0  0  0  0
    1.3460   -2.6630    0.7590 O   0  0  0  0  0  0  0  0  0  0  0  0
   -0.7160    0.2150   -0.3990 C   0  0  0  0  0  0  0  0  0  0  0  0
   -0.3600    1.6300   -0.3870 C   0  0  0  0  0  0  0  0  0  0  0  0
    0.6260    2.1020   -0.9120 O   0  0  0  0  0  0  0  0  0  0  0  0
   -2.0240   -0.1520   -0.1070 C   0  0  0  0  0  0  0  0  0  0  0  0
   -3.4720    2.7990    0.8450 H   0  0  0  0  0  0  0  0  0  0  0  0
   -5.0720    0.7480    0.8060 H   0  0  0  0  0  0  0  0  0  0  0  0
   -5.5160   -1.5390    0.4200 H   0  0  0  0  0  0  0  0  0  0  0  0
   -4.8430   -1.0610   -1.1500 H   0  0  0  0  0  0  0  0  0  0  0  0
   -3.4080   -2.5550    1.1470 H   0  0  0  0  0  0  0  0  0  0  0  0
   -3.6500   -3.0700   -0.5220 H   0  0  0  0  0  0  0  0  0  0  0  0
   -0.6100   -3.0630   -0.8040 H   0  0  0  0  0  0  0  0  0  0  0  0
    1.4310   -1.3650   -2.1810 H   0  0  0  0  0  0  0  0  0  0  0  0
    4.8050    0.9430    0.6410 H   0  0  0  0  0  0  0  0  0  0  0  0
    4.2730    1.1960   -1.0430 H   0  0  0  0  0  0  0  0  0  0  0  0
    2.8510    2.7900   -0.1320 H   0  0  0  0  0  0  0  0  0  0  0  0
    3.7720   -0.9170    2.2340 H   0  0  0  0  0  0  0  0  0  0  0  0
    1.8730   -3.2060    1.3580 H   0  0  0  0  0  0  0  0  0  0  0  0
  1  2  2  0
  2 24  1  0
  2  3  1  0
  3  4  2  0
  3 27  1  0
  4 26  1  0
  4  5  1  0
  5  6  1  0
  5 28  1  0
  6 30  1  0
  6  7  1  0
  6 29  1  0
  7 32  1  0
  7  8  1  0
  7 31  1  0
  8  9  2  0
  8 26  1  0
  9 33  1  0
  9 10  1  0
 10 11  1  0
 10 23  1  0
 11 34  1  6
 11 12  1  0
 11 20  1  0
 12 13  1  0
 13 15  1  0
 13 17  1  0
 13 14  1  1
 15 36  1  0
 15 16  1  0
 15 35  1  0
 16 37  1  0
 17 20  1  0
 17 18  1  6
 17 19  1  0
 19 38  1  0
 20 21  1  6
 20 22  1  0
 22 39  1  0
 23 24  1  0
 23 26  2  0
 24 25  2  0
M  END
>  <id>  (149) 
249

>  <scaffolds>  (149) 
[]

>  <name>  (149) 
N-1-[beta]-D-ribofuranosyldamirone C

>  <formula>  (149) 
C15H16N2O6

>  <SMILES>  (149) 
O=c2cc4NCCc3cn(C1O[C@H](CO)[C@@H](O)[C@H]1O)c(c2=O)c34

>  <ChEMBL_id>  (149) 


>  <ZINC_id>  (149) 


>  <PubChem_id>  (149) 


>  <DrugBank_id>  (149) 


>  <CAS_no>  (149) 
823802-85-3

>  <references>  (149) 
[{'journal': {'name': 'Tetrahedron Letters', 'id': 3}, 'title': 'Novel pyrroloquinoline ribosides from the South African latrunculid sponge Strongylodesma aliwaliensis', 'year': 2004, 'start_page': 9415, 'volume': 45, 'issue': 51, 'doi': '10.1016/j.tetlet.2004.10.106', 'isbn': '', 'despositor': {'code': 'TMM', 'first_name': 'Thommas', 'last_name': 'Musyoka', 'id': 22}, 'refauthors_set': [{'author': {'first_name': '', 'initials': 'RA', 'last_name': 'Keyzers', 'id': 546}, 'first_author': True, 'id': 750}, {'author': {'first_name': 'Toufiek', 'initials': 'T', 'last_name': 'Samaai', 'id': 517}, 'first_author': False, 'id': 751}, {'author': {'first_name': 'Michael', 'initials': 'MT', 'last_name': 'Davies-Coleman', 'id': 449}, 'first_author': False, 'id': 752}], 'id': 268}]

>  <classifications>  (149) 
[{'classification': 'Pyrroloquinoline', 'id': 821}, {'classification': 'Riboside', 'id': 824}, {'classification': 'Quinolines and derivatives (Classyfire)', 'id': 948}]

>  <molecular_mass>  (149) 
320.3

$$$$
SANC00250_minRM1.pdb
     RDKit          3D

 69 69  0  0  0  0  0  0  0  0999 V2000
   10.7470    1.0460   -0.0180 C   0  0  0  0  0  0  0  0  0  0  0  0
    9.2830    0.9950    0.2490 C   0  0  0  0  0  0  0  0  0  0  0  0
    8.7270    2.1470    1.0050 C   0  0  0  0  0  0  0  0  0  0  0  0
    8.5410   -0.0300   -0.1740 C   0  0  0  0  0  0  0  0  0  0  0  0
    7.0740   -0.1380    0.0600 C   0  0  0  0  0  0  0  0  0  0  0  0
    6.3410   -0.2260   -1.2810 C   0  0  0  0  0  0  0  0  0  0  0  0
    4.8750   -0.3770   -1.0410 C   0  0  0  0  0  0  0  0  0  0  0  0
    4.0260    0.6480   -1.0110 C   0  0  0  0  0  0  0  0  0  0  0  0
    2.5620    0.5220   -0.7640 C   0  0  0  0  0  0  0  0  0  0  0  0
    2.1900    1.2640    0.5220 C   0  0  0  0  0  0  0  0  0  0  0  0
    0.7170    1.1390    0.7520 C   0  0  0  0  0  0  0  0  0  0  0  0
   -0.1460    2.0160   -0.0850 C   0  0  0  0  0  0  0  0  0  0  0  0
    0.2360    0.2530    1.6260 C   0  0  0  0  0  0  0  0  0  0  0  0
   -1.2100    0.0190    1.8960 C   0  0  0  0  0  0  0  0  0  0  0  0
   -1.5830   -1.3980    1.4460 C   0  0  0  0  0  0  0  0  0  0  0  0
   -3.0580   -1.5950    1.6050 C   0  0  0  0  0  0  0  0  0  0  0  0
   -3.5360   -1.8380    2.9910 C   0  0  0  0  0  0  0  0  0  0  0  0
   -3.8650   -1.5460    0.5440 C   0  0  0  0  0  0  0  0  0  0  0  0
   -5.3420   -1.7400    0.5800 C   0  0  0  0  0  0  0  0  0  0  0  0
   -6.0080   -0.5220    0.0230 C   0  0  0  0  0  0  0  0  0  0  0  0
   -6.2900    0.5330    0.8850 C   0  0  0  0  0  0  0  0  0  0  0  0
   -6.9250    1.6680    0.3880 C   0  0  0  0  0  0  0  0  0  0  0  0
   -7.2790    2.7070    1.1920 O   0  0  0  0  0  0  0  0  0  0  0  0
   -7.2950    1.7760   -0.9550 C   0  0  0  0  0  0  0  0  0  0  0  0
   -6.9920    0.7390   -1.8230 C   0  0  0  0  0  0  0  0  0  0  0  0
   -7.3410    0.8250   -3.2640 C   0  0  0  0  0  0  0  0  0  0  0  0
   -6.3360   -0.4000   -1.3280 C   0  0  0  0  0  0  0  0  0  0  0  0
   -6.1070   -1.3870   -2.2370 O   0  0  0  0  0  0  0  0  0  0  0  0
    4.4490   -1.7640   -0.7930 C   0  0  0  0  0  0  0  0  0  0  0  0
    4.6550   -2.4490    0.1950 O   0  0  0  0  0  0  0  0  0  0  0  0
    3.7670   -2.2920   -1.8330 O   0  0  0  0  0  0  0  0  0  0  0  0
   11.2860    1.7060    0.6770 H   0  0  0  0  0  0  0  0  0  0  0  0
   11.2250    0.0590    0.0570 H   0  0  0  0  0  0  0  0  0  0  0  0
   10.9480    1.4230   -1.0310 H   0  0  0  0  0  0  0  0  0  0  0  0
    9.0360    3.1100    0.5730 H   0  0  0  0  0  0  0  0  0  0  0  0
    7.6220    2.1470    1.0410 H   0  0  0  0  0  0  0  0  0  0  0  0
    9.0780    2.1390    2.0520 H   0  0  0  0  0  0  0  0  0  0  0  0
    8.9920   -0.8670   -0.7160 H   0  0  0  0  0  0  0  0  0  0  0  0
    6.8600   -1.0290    0.6890 H   0  0  0  0  0  0  0  0  0  0  0  0
    6.6830    0.7260    0.6480 H   0  0  0  0  0  0  0  0  0  0  0  0
    6.5500    0.6730   -1.9000 H   0  0  0  0  0  0  0  0  0  0  0  0
    6.7260   -1.0710   -1.8930 H   0  0  0  0  0  0  0  0  0  0  0  0
    4.3900    1.6720   -1.1660 H   0  0  0  0  0  0  0  0  0  0  0  0
    2.0110    0.9370   -1.6370 H   0  0  0  0  0  0  0  0  0  0  0  0
    2.2180   -0.5320   -0.7070 H   0  0  0  0  0  0  0  0  0  0  0  0
    2.7760    0.8610    1.3770 H   0  0  0  0  0  0  0  0  0  0  0  0
    2.4880    2.3330    0.4700 H   0  0  0  0  0  0  0  0  0  0  0  0
    0.4200    2.6550   -0.7810 H   0  0  0  0  0  0  0  0  0  0  0  0
   -0.8500    1.4360   -0.7030 H   0  0  0  0  0  0  0  0  0  0  0  0
   -0.7460    2.7030    0.5340 H   0  0  0  0  0  0  0  0  0  0  0  0
    0.9150   -0.3930    2.1970 H   0  0  0  0  0  0  0  0  0  0  0  0
   -1.4090    0.1540    2.9810 H   0  0  0  0  0  0  0  0  0  0  0  0
   -1.8770    0.7550    1.4040 H   0  0  0  0  0  0  0  0  0  0  0  0
   -1.2550   -1.5660    0.3970 H   0  0  0  0  0  0  0  0  0  0  0  0
   -1.0190   -2.1620    2.0230 H   0  0  0  0  0  0  0  0  0  0  0  0
   -2.7310   -1.8130    3.7420 H   0  0  0  0  0  0  0  0  0  0  0  0
   -4.2720   -1.0830    3.3070 H   0  0  0  0  0  0  0  0  0  0  0  0
   -4.0120   -2.8250    3.0940 H   0  0  0  0  0  0  0  0  0  0  0  0
   -3.4540   -1.3600   -0.4540 H   0  0  0  0  0  0  0  0  0  0  0  0
   -5.6180   -2.6620    0.0200 H   0  0  0  0  0  0  0  0  0  0  0  0
   -5.7390   -1.9490    1.5970 H   0  0  0  0  0  0  0  0  0  0  0  0
   -6.0210    0.4630    1.9420 H   0  0  0  0  0  0  0  0  0  0  0  0
   -6.6080    2.7990    1.8690 H   0  0  0  0  0  0  0  0  0  0  0  0
   -7.8200    2.6700   -1.3040 H   0  0  0  0  0  0  0  0  0  0  0  0
   -6.4380    0.7980   -3.8960 H   0  0  0  0  0  0  0  0  0  0  0  0
   -7.9750   -0.0260   -3.5730 H   0  0  0  0  0  0  0  0  0  0  0  0
   -7.8910    1.7400   -3.5270 H   0  0  0  0  0  0  0  0  0  0  0  0
   -5.2640   -1.7940   -2.0190 H   0  0  0  0  0  0  0  0  0  0  0  0
    3.5030   -3.2030   -1.6570 H   0  0  0  0  0  0  0  0  0  0  0  0
  1 34  1  0
  1 33  1  0
  1  2  1  0
  1 32  1  0
  2  4  2  0
  2  3  1  0
  3 35  1  0
  3 36  1  0
  3 37  1  0
  4 38  1  0
  4  5  1  0
  5  6  1  0
  5 40  1  0
  5 39  1  0
  6 41  1  0
  6 42  1  0
  6  7  1  0
  7  8  2  0
  7 29  1  0
  8 43  1  0
  8  9  1  0
  9 44  1  0
  9 45  1  0
  9 10  1  0
 10 47  1  0
 10 11  1  0
 10 46  1  0
 11 12  1  0
 11 13  2  0
 12 48  1  0
 12 49  1  0
 12 50  1  0
 13 14  1  0
 13 51  1  0
 14 53  1  0
 14 15  1  0
 14 52  1  0
 15 54  1  0
 15 16  1  0
 15 55  1  0
 16 18  2  0
 16 17  1  0
 17 58  1  0
 17 57  1  0
 17 56  1  0
 18 59  1  0
 18 19  1  0
 19 60  1  0
 19 20  1  0
 19 61  1  0
 20 27  2  0
 20 21  1  0
 21 22  2  0
 21 62  1  0
 22 24  1  0
 22 23  1  0
 23 63  1  0
 24 25  2  0
 24 64  1  0
 25 26  1  0
 25 27  1  0
 26 65  1  0
 26 66  1  0
 26 67  1  0
 27 28  1  0
 28 68  1  0
 29 31  1  0
 29 30  2  0
 31 69  1  0
M  END
>  <id>  (150) 
250

>  <scaffolds>  (150) 
['c1ccccc1']

>  <name>  (150) 
Sargahydroquinoic acid

>  <formula>  (150) 
C27H38O4

>  <SMILES>  (150) 
C/C(C)=C/CC/C(=C/CC/C(C)=C/CC/C(C)=C/Cc1cc(O)cc(C)c1O)C(=O)O

>  <ChEMBL_id>  (150) 


>  <ZINC_id>  (150) 


>  <PubChem_id>  (150) 


>  <DrugBank_id>  (150) 


>  <CAS_no>  (150) 
110360-00-4

>  <references>  (150) 
[{'journal': {'name': 'Narurforsch', 'id': 16}, 'title': 'Fucoxanthin, Tetraprenylated Toluquinone and Toluhydroquinone Metabolites from Sargassum heterophyllum Inhibit the in vitro Growth of the Malaria Parasite Plasmodium falciparum Anthonia', 'year': 2008, 'start_page': 848, 'volume': 63, 'issue': None, 'doi': '', 'isbn': '', 'despositor': {'code': 'DLP', 'first_name': 'David', 'last_name': 'Penkler', 'id': 23}, 'refauthors_set': [{'author': {'first_name': 'Anthonia ', 'initials': 'AF', 'last_name': 'Afolayan', 'id': 548}, 'first_author': True, 'id': 738}, {'author': {'first_name': 'John', 'initials': 'JJ', 'last_name': 'Bolton', 'id': 500}, 'first_author': False, 'id': 739}, {'author': {'first_name': 'Carmen', 'initials': 'CA', 'last_name': 'Lategan', 'id': 488}, 'first_author': False, 'id': 740}, {'author': {'first_name': 'Peter', 'initials': 'PJ', 'last_name': 'Smith', 'id': 490}, 'first_author': False, 'id': 741}, {'author': {'first_name': 'Denzil', 'initials': 'DR', 'last_name': 'Beukes', 'id': 453}, 'first_author': False, 'id': 742}], 'id': 265}]

>  <classifications>  (150) 
[{'classification': 'Tetraprenyltoluquinol', 'id': 840}, {'classification': 'Phenol lipids (Classyfire)', 'id': 951}]

>  <molecular_mass>  (150) 
426.59

$$$$
SANC00251_minRM1.pdb
     RDKit          3D

 40 43  0  0  1  0  0  0  0  0999 V2000
   -3.6950   -2.8090   -0.3250 N   0  0  0  0  0  0  0  0  0  0  0  0
   -3.1250   -1.5570   -0.2320 C   0  0  0  0  0  0  0  0  0  0  0  0
   -3.8840   -0.4620    0.0480 C   0  0  0  0  0  0  0  0  0  0  0  0
   -3.3030    0.8720    0.1290 C   0  0  0  0  0  0  0  0  0  0  0  0
   -3.9830    1.9610    0.3210 N   0  0  0  0  0  0  0  0  0  0  0  0
   -3.2680    3.2440    0.2920 C   0  0  0  0  0  0  0  0  0  0  0  0
   -1.7290    3.3100    0.4750 C   0  0  0  0  0  0  0  0  0  0  0  0
   -1.0830    2.0490    0.0850 C   0  0  0  0  0  0  0  0  0  0  0  0
    0.2370    1.6540   -0.1520 C   0  0  0  0  0  0  0  0  0  0  0  0
    0.2330    0.2860   -0.4380 N   0  0  0  0  0  0  0  0  0  0  0  0
    1.3800   -0.6020   -0.6750 C   0  0  1  0  0  0  0  0  0  0  0  0
    2.5000    0.1830   -0.9840 O   0  0  0  0  0  0  0  0  0  0  0  0
    3.4650    0.1070    0.0430 C   0  0  2  0  0  0  0  0  0  0  0  0
    3.2910    0.9240    0.7920 H   0  0  0  0  0  0  0  0  0  0  0  0
    4.8390    0.2540   -0.6370 C   0  0  0  0  0  0  0  0  0  0  0  0
    5.0450    1.6150   -0.8500 O   0  0  0  0  0  0  0  0  0  0  0  0
    3.2770   -1.2920    0.6790 C   0  0  1  0  0  0  0  0  0  0  0  0
    3.8340   -2.0820    0.1110 H   0  0  0  0  0  0  0  0  0  0  0  0
    3.5900   -1.3410    2.0320 O   0  0  0  0  0  0  0  0  0  0  0  0
    1.7410   -1.4990    0.5600 C   0  0  1  0  0  0  0  0  0  0  0  0
    1.4730   -2.5690    0.3640 H   0  0  0  0  0  0  0  0  0  0  0  0
    1.0870   -0.9820    1.6650 O   0  0  0  0  0  0  0  0  0  0  0  0
   -1.0740   -0.1890   -0.3370 C   0  0  0  0  0  0  0  0  0  0  0  0
   -1.6340   -1.5140   -0.4540 C   0  0  0  0  0  0  0  0  0  0  0  0
   -0.9690   -2.5110   -0.6960 O   0  0  0  0  0  0  0  0  0  0  0  0
   -1.8750    0.8990   -0.0400 C   0  0  0  0  0  0  0  0  0  0  0  0
   -3.1470   -3.6200   -0.5340 H   0  0  0  0  0  0  0  0  0  0  0  0
   -4.6780   -2.9320   -0.1850 H   0  0  0  0  0  0  0  0  0  0  0  0
   -4.9640   -0.5340    0.2110 H   0  0  0  0  0  0  0  0  0  0  0  0
   -3.5510    3.7170   -0.6790 H   0  0  0  0  0  0  0  0  0  0  0  0
   -3.7580    3.8680    1.0720 H   0  0  0  0  0  0  0  0  0  0  0  0
   -1.3190    4.1670   -0.1000 H   0  0  0  0  0  0  0  0  0  0  0  0
   -1.4730    3.5350    1.5330 H   0  0  0  0  0  0  0  0  0  0  0  0
    1.1470    2.2500   -0.1540 H   0  0  0  0  0  0  0  0  0  0  0  0
    1.1550   -1.2250   -1.5860 H   0  0  0  0  0  0  0  0  0  0  0  0
    5.6410   -0.1130    0.0450 H   0  0  0  0  0  0  0  0  0  0  0  0
    4.9080   -0.3700   -1.5540 H   0  0  0  0  0  0  0  0  0  0  0  0
    5.2590    1.7410   -1.7850 H   0  0  0  0  0  0  0  0  0  0  0  0
    4.4730   -0.9670    2.1360 H   0  0  0  0  0  0  0  0  0  0  0  0
    1.2210   -1.5890    2.4010 H   0  0  0  0  0  0  0  0  0  0  0  0
  1 27  1  0
  1  2  1  0
  1 28  1  0
  2 24  1  0
  2  3  2  0
  3  4  1  0
  3 29  1  0
  4 26  1  0
  4  5  2  0
  5  6  1  0
  6 30  1  0
  6  7  1  0
  6 31  1  0
  7 32  1  0
  7  8  1  0
  7 33  1  0
  8  9  2  0
  8 26  1  0
  9 10  1  0
  9 34  1  0
 10 11  1  0
 10 23  1  0
 11 35  1  6
 11 12  1  0
 11 20  1  0
 12 13  1  0
 13 15  1  0
 13 17  1  0
 13 14  1  1
 15 37  1  0
 15 16  1  0
 15 36  1  0
 16 38  1  0
 17 18  1  6
 17 20  1  0
 17 19  1  0
 19 39  1  0
 20 21  1  6
 20 22  1  0
 22 40  1  0
 23 24  1  0
 23 26  2  0
 24 25  2  0
M  END
>  <id>  (151) 
251

>  <scaffolds>  (151) 
[]

>  <name>  (151) 
N-1-[beta]-D-ribofuranosyl makaluvamine I

>  <formula>  (151) 
C15H17N3O5

>  <SMILES>  (151) 
Nc2cc4=NCCc3cn(C1O[C@H](CO)[C@@H](O)[C@H]1O)c(c2=O)c34

>  <ChEMBL_id>  (151) 


>  <ZINC_id>  (151) 


>  <PubChem_id>  (151) 


>  <DrugBank_id>  (151) 


>  <CAS_no>  (151) 
823802-86-4

>  <references>  (151) 
[{'journal': {'name': 'Tetrahedron Letters', 'id': 3}, 'title': 'Novel pyrroloquinoline ribosides from the South African latrunculid sponge Strongylodesma aliwaliensis', 'year': 2004, 'start_page': 9415, 'volume': 45, 'issue': 51, 'doi': '10.1016/j.tetlet.2004.10.106', 'isbn': '', 'despositor': {'code': 'TMM', 'first_name': 'Thommas', 'last_name': 'Musyoka', 'id': 22}, 'refauthors_set': [{'author': {'first_name': '', 'initials': 'RA', 'last_name': 'Keyzers', 'id': 546}, 'first_author': True, 'id': 750}, {'author': {'first_name': 'Toufiek', 'initials': 'T', 'last_name': 'Samaai', 'id': 517}, 'first_author': False, 'id': 751}, {'author': {'first_name': 'Michael', 'initials': 'MT', 'last_name': 'Davies-Coleman', 'id': 449}, 'first_author': False, 'id': 752}], 'id': 268}]

>  <classifications>  (151) 
[{'classification': 'Pyrroloquinoline', 'id': 821}, {'classification': 'Riboside', 'id': 824}, {'classification': 'Quinolines and derivatives (Classyfire)', 'id': 948}]

>  <molecular_mass>  (151) 
319.31

$$$$
SANC00252_minRM1.pdb
     RDKit          3D

 26 25  0  0  1  0  0  0  0  0999 V2000
   -4.7500   -1.0230   -0.1210 C   0  0  0  0  0  0  0  0  0  0  0  0
   -3.8950   -0.0260    0.0590 C   0  0  0  0  0  0  0  0  0  0  0  0
   -2.4460   -0.1510   -0.2260 C   0  0  2  0  0  0  0  0  0  0  0  0
   -2.1240    0.0410   -1.6850 C   0  0  0  0  0  0  0  0  0  0  0  0
   -1.9240   -1.9100    0.1850 Cl  0  0  0  0  0  0  0  0  0  0  0  0
   -1.5880    0.6620    0.7220 C   0  0  2  0  0  0  0  0  0  0  0  0
   -1.8860    0.5380    1.7880 H   0  0  0  0  0  0  0  0  0  0  0  0
   -2.0390    2.4350    0.3230 Cl  0  0  0  0  0  0  0  0  0  0  0  0
   -0.1390    0.4460    0.5270 C   0  0  0  0  0  0  0  0  0  0  0  0
    0.6660    1.2900   -0.1150 C   0  0  0  0  0  0  0  0  0  0  0  0
    2.0960    1.0160   -0.2520 C   0  0  0  0  0  0  0  0  0  0  0  0
    3.0070    1.9630   -0.0360 C   0  0  0  0  0  0  0  0  0  0  0  0
    2.4550   -0.3670   -0.6090 C   0  0  1  0  0  0  0  0  0  0  0  0
    4.0040   -0.4040   -1.5570 Cl  0  0  0  0  0  0  0  0  0  0  0  0
    2.8020   -1.2710    0.9370 Cl  0  0  0  0  0  0  0  0  0  0  0  0
   -4.4640   -2.0180   -0.4560 H   0  0  0  0  0  0  0  0  0  0  0  0
   -5.8150   -0.9270    0.0710 H   0  0  0  0  0  0  0  0  0  0  0  0
   -4.2170    0.9650    0.4030 H   0  0  0  0  0  0  0  0  0  0  0  0
   -2.3370    1.0740   -2.0060 H   0  0  0  0  0  0  0  0  0  0  0  0
   -1.0660   -0.1600   -1.9130 H   0  0  0  0  0  0  0  0  0  0  0  0
   -2.7200   -0.6300   -2.3220 H   0  0  0  0  0  0  0  0  0  0  0  0
    0.2300   -0.4940    0.9690 H   0  0  0  0  0  0  0  0  0  0  0  0
    0.3170    2.2350   -0.5490 H   0  0  0  0  0  0  0  0  0  0  0  0
    4.0790    1.7960   -0.1150 H   0  0  0  0  0  0  0  0  0  0  0  0
    2.7440    2.9830    0.2390 H   0  0  0  0  0  0  0  0  0  0  0  0
    1.6990   -0.9450   -1.1770 H   0  0  0  0  0  0  0  0  0  0  0  0
  1 16  1  0
  1  2  2  0
  1 17  1  0
  2  3  1  0
  2 18  1  0
  3  4  1  0
  3  5  1  1
  3  6  1  0
  4 21  1  0
  4 19  1  0
  4 20  1  0
  6  8  1  0
  6  9  1  0
  6  7  1  1
  9 10  2  0
  9 22  1  0
 10 23  1  0
 10 11  1  0
 11 13  1  0
 11 12  2  0
 12 24  1  0
 12 25  1  0
 13 14  1  0
 13 26  1  6
 13 15  1  0
M  END
>  <id>  (152) 
252

>  <scaffolds>  (152) 
[]

>  <name>  (152) 
1,3,7-Octatriene, 5,6-dichloro-2-(dichloromethyl)-6-methyl-, [R*,S*-(E)]-(-)- (9CI)

>  <formula>  (152) 
C10H12Cl4

>  <SMILES>  (152) 
C=C[C@](C)(Cl)[C@H](Cl)/C=C/C(=C)C(Cl)Cl

>  <ChEMBL_id>  (152) 


>  <ZINC_id>  (152) 


>  <PubChem_id>  (152) 


>  <DrugBank_id>  (152) 


>  <CAS_no>  (152) 
57804-28-1

>  <references>  (152) 
[{'journal': {'name': 'Phytochemistry', 'id': 10}, 'title': 'Antiplasmodial halogenated monoterpenes from the marine red alga Plocamium cornutum', 'year': 2009, 'start_page': 597, 'volume': 70, 'issue': None, 'doi': '10.1016/j.phytochem.2009.02.010', 'isbn': '', 'despositor': {'code': 'DLP', 'first_name': 'David', 'last_name': 'Penkler', 'id': 23}, 'refauthors_set': [{'author': {'first_name': 'Anthonia ', 'initials': 'AF', 'last_name': 'Afolayan', 'id': 548}, 'first_author': True, 'id': 744}, {'author': {'first_name': 'Maryssa ', 'initials': 'MGA', 'last_name': 'Manna', 'id': 550}, 'first_author': False, 'id': 745}, {'author': {'first_name': 'Carmen', 'initials': 'CA', 'last_name': 'Lategan', 'id': 488}, 'first_author': False, 'id': 746}, {'author': {'first_name': 'Peter', 'initials': 'PJ', 'last_name': 'Smith', 'id': 490}, 'first_author': False, 'id': 747}, {'author': {'first_name': 'John', 'initials': 'JJ', 'last_name': 'Bolton', 'id': 500}, 'first_author': False, 'id': 748}, {'author': {'first_name': 'Denzil', 'initials': 'DR', 'last_name': 'Beukes', 'id': 453}, 'first_author': False, 'id': 749}], 'id': 267}]

>  <classifications>  (152) 
[{'classification': 'Monoterpene', 'id': 795}, {'classification': 'Terpenoid', 'id': 839}, {'classification': 'Organochlorides (Classyfire)', 'id': 959}]

>  <molecular_mass>  (152) 
274.01

$$$$
SANC00253_minRM1.pdb
     RDKit          3D

 37 39  0  0  0  0  0  0  0  0999 V2000
    4.2380   -1.5100   -1.8340 C   0  0  0  0  0  0  0  0  0  0  0  0
    4.3740   -0.9610   -0.5400 O   0  0  0  0  0  0  0  0  0  0  0  0
    3.3830   -0.0630   -0.2480 C   0  0  0  0  0  0  0  0  0  0  0  0
    3.7030    1.3070   -0.1870 C   0  0  0  0  0  0  0  0  0  0  0  0
    4.9040    1.8030   -0.5470 O   0  0  0  0  0  0  0  0  0  0  0  0
    2.7840    2.2490    0.2820 C   0  0  0  0  0  0  0  0  0  0  0  0
    1.5170    1.8010    0.6670 C   0  0  0  0  0  0  0  0  0  0  0  0
    0.6670    2.7400    1.0910 O   0  0  0  0  0  0  0  0  0  0  0  0
    1.1580    0.4430    0.5870 C   0  0  0  0  0  0  0  0  0  0  0  0
   -0.1910    0.0030    0.8950 C   0  0  0  0  0  0  0  0  0  0  0  0
   -1.0120    0.7780    1.3820 O   0  0  0  0  0  0  0  0  0  0  0  0
   -0.4650   -1.4010    0.5630 C   0  0  0  0  0  0  0  0  0  0  0  0
   -1.6300   -1.8650    0.1070 C   0  0  0  0  0  0  0  0  0  0  0  0
   -2.7830   -1.0190   -0.1640 C   0  0  0  0  0  0  0  0  0  0  0  0
   -4.0380   -1.3960    0.3090 C   0  0  0  0  0  0  0  0  0  0  0  0
   -5.1480   -0.6050    0.0600 C   0  0  0  0  0  0  0  0  0  0  0  0
   -4.9780    0.5750   -0.6640 C   0  0  0  0  0  0  0  0  0  0  0  0
   -6.1070    1.2970   -0.8990 O   0  0  0  0  0  0  0  0  0  0  0  0
   -3.7350    0.9480   -1.1780 C   0  0  0  0  0  0  0  0  0  0  0  0
   -2.6370    0.1390   -0.9250 C   0  0  0  0  0  0  0  0  0  0  0  0
    0.7280   -2.2780    0.7690 C   0  0  0  0  0  0  0  0  0  0  0  0
    1.8620   -1.8090    0.0660 O   0  0  0  0  0  0  0  0  0  0  0  0
    2.1170   -0.4810    0.1550 C   0  0  0  0  0  0  0  0  0  0  0  0
    3.2870   -2.0430   -1.9980 H   0  0  0  0  0  0  0  0  0  0  0  0
    4.3550   -0.7540   -2.6270 H   0  0  0  0  0  0  0  0  0  0  0  0
    5.0640   -2.2350   -1.8970 H   0  0  0  0  0  0  0  0  0  0  0  0
    5.4800    1.0780   -0.8160 H   0  0  0  0  0  0  0  0  0  0  0  0
    3.0470    3.3080    0.3460 H   0  0  0  0  0  0  0  0  0  0  0  0
   -0.1700    2.3310    1.4110 H   0  0  0  0  0  0  0  0  0  0  0  0
   -1.7720   -2.9340   -0.1000 H   0  0  0  0  0  0  0  0  0  0  0  0
   -4.1490   -2.3130    0.8990 H   0  0  0  0  0  0  0  0  0  0  0  0
   -6.1370   -0.8930    0.4160 H   0  0  0  0  0  0  0  0  0  0  0  0
   -5.8800    2.2290   -0.7650 H   0  0  0  0  0  0  0  0  0  0  0  0
   -3.6250    1.8610   -1.7720 H   0  0  0  0  0  0  0  0  0  0  0  0
   -1.6590    0.4150   -1.3320 H   0  0  0  0  0  0  0  0  0  0  0  0
    0.9680   -2.3590    1.8550 H   0  0  0  0  0  0  0  0  0  0  0  0
    0.6080   -3.3110    0.3810 H   0  0  0  0  0  0  0  0  0  0  0  0
  1 25  1  0
  1 24  1  0
  1 26  1  0
  1  2  1  0
  2  3  1  0
  3  4  2  0
  3 23  1  0
  4  5  1  0
  4  6  1  0
  5 27  1  0
  6 28  1  0
  6  7  2  0
  7  9  1  0
  7  8  1  0
  8 29  1  0
  9 23  2  0
  9 10  1  0
 10 12  1  0
 10 11  2  0
 12 13  2  0
 12 21  1  0
 13 14  1  0
 13 30  1  0
 14 20  2  0
 14 15  1  0
 15 16  2  0
 15 31  1  0
 16 17  1  0
 16 32  1  0
 17 19  2  0
 17 18  1  0
 18 33  1  0
 19 34  1  0
 19 20  1  0
 20 35  1  0
 21 22  1  0
 21 37  1  0
 21 36  1  0
 22 23  1  0
M  END
>  <id>  (153) 
253

>  <scaffolds>  (153) 
['c1ccccc1', 'O=C1C(=Cc2ccccc2)COc2ccccc21', 'O=C(C=Cc1ccccc1)c1ccccc1', 'C(=Cc1ccccc1)Cc1ccccc1']

>  <name>  (153) 
5,7-dihydroxy-8-methoxy-3-(4'-hydroxybenzylidene)-4-chromanone

>  <formula>  (153) 
C17H14O6

>  <SMILES>  (153) 
COc2c(O)cc(O)c3C(=O)C(=Cc1ccc(O)cc1)COc23

>  <ChEMBL_id>  (153) 


>  <ZINC_id>  (153) 


>  <PubChem_id>  (153) 


>  <DrugBank_id>  (153) 


>  <CAS_no>  (153) 
27181-63-1

>  <references>  (153) 
[{'journal': {'name': 'Phytochemistry: Advances in Research (Book)', 'id': 13}, 'title': 'Chapter 3: The phytochemistry and ethnobotany of the southern African genus Eucomis (Hyacinthaceae: Hyacinthoideae)', 'year': 2006, 'start_page': 69, 'volume': None, 'issue': None, 'doi': '', 'isbn': '81-308-0034-9', 'despositor': {'code': 'rah', 'first_name': 'Rowan', 'last_name': 'Hatherley', 'id': 20}, 'refauthors_set': [{'author': {'first_name': 'Chantal', 'initials': 'C', 'last_name': 'Koorbanally', 'id': 523}, 'first_author': True, 'id': 851}, {'author': {'first_name': 'Neil', 'initials': 'NR', 'last_name': 'Crouch', 'id': 524}, 'first_author': False, 'id': 852}, {'author': {'first_name': 'Dulcie', 'initials': 'DA', 'last_name': 'Mulholland', 'id': 525}, 'first_author': False, 'id': 853}], 'id': 259}, {'journal': {'name': 'Experientia', 'id': 14}, 'title': "The homo-isoflavones III. isolation and structure of punctatin, 3,9-dihydro-punctatin, 4'-O-methyl-3,9-dihydro-punctatin, 4'-demethyl-eucomin and 4'-demethyl-5-O-methyl-3,9-dihydro-eucomin", 'year': 1970, 'start_page': 472, 'volume': 26, 'issue': 5, 'doi': '10.1007/BF01898447', 'isbn': '1420-9071', 'despositor': {'code': 'rah', 'first_name': 'Rowan', 'last_name': 'Hatherley', 'id': 20}, 'refauthors_set': [{'author': {'first_name': 'Christoph', 'initials': 'C', 'last_name': 'Tamm', 'id': 543}, 'first_author': False, 'id': 730}, {'author': {'first_name': '', 'initials': 'RE', 'last_name': 'Finckh', 'id': 545}, 'first_author': True, 'id': 731}], 'id': 263}]

>  <classifications>  (153) 
[{'classification': 'Flavonoids', 'id': 776}, {'classification': 'Homoisoflavonoid', 'id': 783}, {'classification': 'Homoisoflavonoids (Classyfire)', 'id': 964}]

>  <molecular_mass>  (153) 
314.29

$$$$
SANC00254_minRM1.pdb
     RDKit          3D

 26 25  0  0  1  0  0  0  0  0999 V2000
    5.2500   -0.3610   -0.0830 C   0  0  0  0  0  0  0  0  0  0  0  0
    4.1670    0.4030   -0.1620 C   0  0  0  0  0  0  0  0  0  0  0  0
    2.8140   -0.0930    0.1910 C   0  0  2  0  0  0  0  0  0  0  0  0
    2.5690   -0.1010    1.6750 C   0  0  0  0  0  0  0  0  0  0  0  0
    2.7130   -1.8890   -0.3710 Cl  0  0  0  0  0  0  0  0  0  0  0  0
    1.7170    0.5530   -0.6290 C   0  0  2  0  0  0  0  0  0  0  0  0
    1.9490    0.5640   -1.7190 H   0  0  0  0  0  0  0  0  0  0  0  0
    1.7700    2.3500   -0.1090 Cl  0  0  0  0  0  0  0  0  0  0  0  0
    0.3570    0.0400   -0.3580 C   0  0  0  0  0  0  0  0  0  0  0  0
   -0.7260    0.7960   -0.5460 C   0  0  0  0  0  0  0  0  0  0  0  0
   -2.0680    0.2760   -0.3110 C   0  0  0  0  0  0  0  0  0  0  0  0
   -3.0130    1.0040    0.2900 C   0  0  0  0  0  0  0  0  0  0  0  0
   -2.6540    2.5970    0.8130 Cl  0  0  0  0  0  0  0  0  0  0  0  0
   -2.3310   -1.1020   -0.7610 C   0  0  1  0  0  0  0  0  0  0  0  0
   -2.0410   -2.2110    0.6510 Cl  0  0  0  0  0  0  0  0  0  0  0  0
   -4.0820   -1.3030   -1.2000 Cl  0  0  0  0  0  0  0  0  0  0  0  0
    6.2450    0.0050   -0.3240 H   0  0  0  0  0  0  0  0  0  0  0  0
    5.2410   -1.4100    0.2110 H   0  0  0  0  0  0  0  0  0  0  0  0
    4.2150    1.4590   -0.4650 H   0  0  0  0  0  0  0  0  0  0  0  0
    2.5660    0.9240    2.0790 H   0  0  0  0  0  0  0  0  0  0  0  0
    1.6070   -0.5590    1.9500 H   0  0  0  0  0  0  0  0  0  0  0  0
    3.3490   -0.6630    2.2120 H   0  0  0  0  0  0  0  0  0  0  0  0
    0.2980   -1.0040   -0.0130 H   0  0  0  0  0  0  0  0  0  0  0  0
   -0.6690    1.8490   -0.8590 H   0  0  0  0  0  0  0  0  0  0  0  0
   -4.0380    0.6800    0.4930 H   0  0  0  0  0  0  0  0  0  0  0  0
   -1.7260   -1.4640   -1.6160 H   0  0  0  0  0  0  0  0  0  0  0  0
  1 17  1  0
  1  2  2  0
  1 18  1  0
  2 19  1  0
  2  3  1  0
  3  6  1  0
  3  5  1  6
  3  4  1  0
  4 21  1  0
  4 20  1  0
  4 22  1  0
  6  7  1  6
  6  9  1  0
  6  8  1  0
  9 10  2  0
  9 23  1  0
 10 24  1  0
 10 11  1  0
 11 14  1  0
 11 12  2  0
 12 25  1  0
 12 13  1  0
 14 26  1  6
 14 16  1  0
 14 15  1  0
M  END
>  <id>  (154) 
254

>  <scaffolds>  (154) 
[]

>  <name>  (154) 
1,3,7-Octatriene, 1,5,6-trichloro-2-(dichloromethyl)-6-methyl-, (1Z,3E,5S,6R)-

>  <formula>  (154) 
C10H11Cl5

>  <SMILES>  (154) 
C=C[C@](C)(Cl)[C@H](Cl)/C=C/C(=C\Cl)C(Cl)Cl

>  <ChEMBL_id>  (154) 


>  <ZINC_id>  (154) 


>  <PubChem_id>  (154) 


>  <DrugBank_id>  (154) 


>  <CAS_no>  (154) 
380416-15-9

>  <references>  (154) 
[{'journal': {'name': 'Phytochemistry', 'id': 10}, 'title': 'Antiplasmodial halogenated monoterpenes from the marine red alga Plocamium cornutum', 'year': 2009, 'start_page': 597, 'volume': 70, 'issue': None, 'doi': '10.1016/j.phytochem.2009.02.010', 'isbn': '', 'despositor': {'code': 'DLP', 'first_name': 'David', 'last_name': 'Penkler', 'id': 23}, 'refauthors_set': [{'author': {'first_name': 'Anthonia ', 'initials': 'AF', 'last_name': 'Afolayan', 'id': 548}, 'first_author': True, 'id': 744}, {'author': {'first_name': 'Maryssa ', 'initials': 'MGA', 'last_name': 'Manna', 'id': 550}, 'first_author': False, 'id': 745}, {'author': {'first_name': 'Carmen', 'initials': 'CA', 'last_name': 'Lategan', 'id': 488}, 'first_author': False, 'id': 746}, {'author': {'first_name': 'Peter', 'initials': 'PJ', 'last_name': 'Smith', 'id': 490}, 'first_author': False, 'id': 747}, {'author': {'first_name': 'John', 'initials': 'JJ', 'last_name': 'Bolton', 'id': 500}, 'first_author': False, 'id': 748}, {'author': {'first_name': 'Denzil', 'initials': 'DR', 'last_name': 'Beukes', 'id': 453}, 'first_author': False, 'id': 749}], 'id': 267}]

>  <classifications>  (154) 
[{'classification': 'Monoterpene', 'id': 795}, {'classification': 'Terpenoid', 'id': 839}, {'classification': 'Vinyl halides (Classyfire)', 'id': 960}]

>  <molecular_mass>  (154) 
308.46

$$$$
SANC00255_minRM1.pdb
     RDKit          3D

 25 24  0  0  1  0  0  0  0  0999 V2000
    4.5680   -0.6550    0.1030 C   0  0  0  0  0  0  0  0  0  0  0  0
    3.3200   -1.0970    0.0200 C   0  0  0  0  0  0  0  0  0  0  0  0
    2.1430   -0.2090   -0.1410 C   0  0  2  0  0  0  0  0  0  0  0  0
    1.7950    0.0520   -1.5840 C   0  0  0  0  0  0  0  0  0  0  0  0
    2.5760    1.4650    0.6120 Cl  0  0  0  0  0  0  0  0  0  0  0  0
    0.9520   -0.6330    0.7030 C   0  0  2  0  0  0  0  0  0  0  0  0
    1.2140   -0.8100    1.7710 H   0  0  0  0  0  0  0  0  0  0  0  0
    0.5100   -2.3340    0.0500 Cl  0  0  0  0  0  0  0  0  0  0  0  0
   -0.2030    0.2810    0.5630 C   0  0  0  0  0  0  0  0  0  0  0  0
   -1.3920   -0.0690    0.0750 C   0  0  0  0  0  0  0  0  0  0  0  0
   -2.4770    0.8970   -0.0250 C   0  0  0  0  0  0  0  0  0  0  0  0
   -2.1380    2.2930   -0.4080 C   0  0  0  0  0  0  0  0  0  0  0  0
   -1.2170    2.5270   -1.1700 O   0  0  0  0  0  0  0  0  0  0  0  0
   -3.7510    0.5620    0.1700 C   0  0  0  0  0  0  0  0  0  0  0  0
   -4.1700   -1.0620    0.5700 Cl  0  0  0  0  0  0  0  0  0  0  0  0
    4.8530    0.3970    0.0910 H   0  0  0  0  0  0  0  0  0  0  0  0
    5.4200   -1.3230    0.2010 H   0  0  0  0  0  0  0  0  0  0  0  0
    3.0850   -2.1720    0.0330 H   0  0  0  0  0  0  0  0  0  0  0  0
    1.4060   -0.8630   -2.0610 H   0  0  0  0  0  0  0  0  0  0  0  0
    1.0260    0.8340   -1.6970 H   0  0  0  0  0  0  0  0  0  0  0  0
    2.6690    0.3800   -2.1660 H   0  0  0  0  0  0  0  0  0  0  0  0
    0.0130    1.3000    0.9120 H   0  0  0  0  0  0  0  0  0  0  0  0
   -1.6260   -1.0850   -0.2720 H   0  0  0  0  0  0  0  0  0  0  0  0
   -2.7780    3.0900    0.0220 H   0  0  0  0  0  0  0  0  0  0  0  0
   -4.6100    1.2300    0.0950 H   0  0  0  0  0  0  0  0  0  0  0  0
  1  2  2  0
  1 16  1  0
  1 17  1  0
  2  3  1  0
  2 18  1  0
  3  4  1  0
  3  5  1  1
  3  6  1  0
  4 21  1  0
  4 19  1  0
  4 20  1  0
  6  8  1  0
  6  9  1  0
  6  7  1  1
  9 10  2  0
  9 22  1  0
 10 23  1  0
 10 11  1  0
 11 12  1  0
 11 14  2  0
 12 13  2  0
 12 24  1  0
 14 25  1  0
 14 15  1  0
M  END
>  <id>  (155) 
255

>  <scaffolds>  (155) 
[]

>  <name>  (155) 
3,7-Octadienal, 5,6-dichloro-2-(chloromethylene)-6-methyl-, (2E,3E,5S,6R)-

>  <formula>  (155) 
C10H11Cl3O

>  <SMILES>  (155) 
C=C[C@](C)(Cl)[C@H](Cl)/C=C/C(C=O)=C\Cl

>  <ChEMBL_id>  (155) 


>  <ZINC_id>  (155) 


>  <PubChem_id>  (155) 


>  <DrugBank_id>  (155) 


>  <CAS_no>  (155) 
380416-19-3

>  <references>  (155) 
[{'journal': {'name': 'Phytochemistry', 'id': 10}, 'title': 'Antiplasmodial halogenated monoterpenes from the marine red alga Plocamium cornutum', 'year': 2009, 'start_page': 597, 'volume': 70, 'issue': None, 'doi': '10.1016/j.phytochem.2009.02.010', 'isbn': '', 'despositor': {'code': 'DLP', 'first_name': 'David', 'last_name': 'Penkler', 'id': 23}, 'refauthors_set': [{'author': {'first_name': 'Anthonia ', 'initials': 'AF', 'last_name': 'Afolayan', 'id': 548}, 'first_author': True, 'id': 744}, {'author': {'first_name': 'Maryssa ', 'initials': 'MGA', 'last_name': 'Manna', 'id': 550}, 'first_author': False, 'id': 745}, {'author': {'first_name': 'Carmen', 'initials': 'CA', 'last_name': 'Lategan', 'id': 488}, 'first_author': False, 'id': 746}, {'author': {'first_name': 'Peter', 'initials': 'PJ', 'last_name': 'Smith', 'id': 490}, 'first_author': False, 'id': 747}, {'author': {'first_name': 'John', 'initials': 'JJ', 'last_name': 'Bolton', 'id': 500}, 'first_author': False, 'id': 748}, {'author': {'first_name': 'Denzil', 'initials': 'DR', 'last_name': 'Beukes', 'id': 453}, 'first_author': False, 'id': 749}], 'id': 267}]

>  <classifications>  (155) 
[{'classification': 'Monoterpene', 'id': 795}, {'classification': 'Terpenoid', 'id': 839}, {'classification': 'Organooxygen compounds (Classyfire)', 'id': 954}]

>  <molecular_mass>  (155) 
253.55

$$$$
SANC00256_minRM1.pdb
     RDKit          3D

 21 22  0  0  0  0  0  0  0  0999 V2000
    2.5990   -1.0690    0.2000 C   0  0  0  0  0  0  0  0  0  0  0  0
    2.9970    0.2330   -0.5220 C   0  0  0  0  0  0  0  0  0  0  0  0
    2.2320    1.3800   -0.0370 N   0  0  0  0  0  0  0  0  0  0  0  0
    0.8670    1.2960    0.2320 C   0  0  0  0  0  0  0  0  0  0  0  0
    0.2500    2.2880    0.6010 O   0  0  0  0  0  0  0  0  0  0  0  0
    0.3030   -0.0460    0.1080 C   0  0  0  0  0  0  0  0  0  0  0  0
   -1.0140   -0.4800    0.0030 C   0  0  0  0  0  0  0  0  0  0  0  0
   -1.0000   -1.8730    0.0080 N   0  0  0  0  0  0  0  0  0  0  0  0
    0.3140   -2.3160    0.0930 C   0  0  0  0  0  0  0  0  0  0  0  0
    1.1340   -1.1950    0.1430 C   0  0  0  0  0  0  0  0  0  0  0  0
   -2.2260    0.3100   -0.1610 C   0  0  0  0  0  0  0  0  0  0  0  0
   -2.3200    1.4950   -0.4120 O   0  0  0  0  0  0  0  0  0  0  0  0
   -3.3550   -0.4360   -0.0420 O   0  0  0  0  0  0  0  0  0  0  0  0
    3.1070   -1.9380   -0.2660 H   0  0  0  0  0  0  0  0  0  0  0  0
    2.9430   -1.0640    1.2570 H   0  0  0  0  0  0  0  0  0  0  0  0
    4.0870    0.4270   -0.3920 H   0  0  0  0  0  0  0  0  0  0  0  0
    2.8530    0.1070   -1.6240 H   0  0  0  0  0  0  0  0  0  0  0  0
    2.7010    2.2750    0.0500 H   0  0  0  0  0  0  0  0  0  0  0  0
   -1.8220   -2.4590   -0.0390 H   0  0  0  0  0  0  0  0  0  0  0  0
    0.5790   -3.3700    0.1100 H   0  0  0  0  0  0  0  0  0  0  0  0
   -4.1450    0.1080   -0.1630 H   0  0  0  0  0  0  0  0  0  0  0  0
  1  2  1  0
  1 14  1  0
  1 10  1  0
  1 15  1  0
  2 17  1  0
  2 16  1  0
  2  3  1  0
  3 18  1  0
  3  4  1  0
  4  6  1  0
  4  5  2  0
  6  7  2  0
  6 10  1  0
  7 11  1  0
  7  8  1  0
  8 19  1  0
  8  9  1  0
  9 20  1  0
  9 10  2  0
 11 12  2  0
 11 13  1  0
 13 21  1  0
M  END
>  <id>  (156) 
256

>  <scaffolds>  (156) 
[]

>  <name>  (156) 
Makaluvic acid C

>  <formula>  (156) 
C8H8N2O3

>  <SMILES>  (156) 
C1CNC(=O)C2=C(NC=C21)C(=O)O

>  <ChEMBL_id>  (156) 
CHEMBL507654

>  <ZINC_id>  (156) 


>  <PubChem_id>  (156) 
 11401113

>  <DrugBank_id>  (156) 


>  <CAS_no>  (156) 
6578-13-8

>  <references>  (156) 
[{'journal': {'name': 'Journal of Natural Products', 'id': 5}, 'title': 'Makaluvic Acids from the South African Latrunculid Sponge Strongylodesma aliwaliensis', 'year': 2005, 'start_page': 506, 'volume': 68, 'issue': 4, 'doi': '10.1021/np049589w', 'isbn': '', 'despositor': {'code': 'TMM', 'first_name': 'Thommas', 'last_name': 'Musyoka', 'id': 22}, 'refauthors_set': [{'author': {'first_name': '', 'initials': 'RA', 'last_name': 'Keyzers', 'id': 546}, 'first_author': True, 'id': 753}, {'author': {'first_name': 'Catherine', 'initials': 'CE', 'last_name': 'Arendse', 'id': 505}, 'first_author': False, 'id': 754}, {'author': {'first_name': '', 'initials': 'TH', 'last_name': 'Denver', 'id': 539}, 'first_author': False, 'id': 755}, {'author': {'first_name': 'Toufiek', 'initials': 'T', 'last_name': 'Samaai', 'id': 517}, 'first_author': False, 'id': 756}, {'author': {'first_name': 'Michael', 'initials': 'MT', 'last_name': 'Davies-Coleman', 'id': 449}, 'first_author': False, 'id': 757}], 'id': 269}]

>  <classifications>  (156) 
[{'classification': 'Pyrroloquinoline', 'id': 821}, {'classification': 'Riboside', 'id': 824}, {'classification': 'Pyrrolopyridines (Classyfire)', 'id': 949}]

>  <molecular_mass>  (156) 
180.16

$$$$
SANC00257_minRM1.pdb
     RDKit          3D

 68 72  0  0  1  0  0  0  0  0999 V2000
    2.9230    0.7840   -1.8800 H   0  0  0  0  0  0  0  0  0  0  0  0
    2.9160    0.2770   -0.8740 C   0  0  2  0  0  0  0  0  0  0  0  0
    3.6790   -1.0310   -1.0950 C   0  0  0  0  0  0  0  0  0  0  0  0
    4.3490   -1.6860    0.1260 C   0  0  1  0  0  0  0  0  0  0  0  0
    3.7870   -3.1040    0.3320 C   0  0  0  0  0  0  0  0  0  0  0  0
    5.7140   -1.7550   -0.1850 O   0  0  0  0  0  0  0  0  0  0  0  0
    4.2280   -0.8980    1.4340 C   0  0  0  0  0  0  0  0  0  0  0  0
    4.4450   -1.4770    2.4870 O   0  0  0  0  0  0  0  0  0  0  0  0
    3.9060    0.5640    1.4530 C   0  0  0  0  0  0  0  0  0  0  0  0
    3.6710    1.1970    0.0870 C   0  0  1  0  0  0  0  0  0  0  0  0
    5.0380    1.5550   -0.5170 C   0  0  0  0  0  0  0  0  0  0  0  0
    2.8930    2.5080    0.2730 C   0  0  0  0  0  0  0  0  0  0  0  0
    1.4280    2.2850    0.6250 C   0  0  0  0  0  0  0  0  0  0  0  0
    0.7160    1.4510   -0.4520 C   0  0  2  0  0  0  0  0  0  0  0  0
    0.7890    2.2500   -1.7590 C   0  0  0  0  0  0  0  0  0  0  0  0
   -0.7490    1.2270   -0.1560 C   0  0  0  0  0  0  0  0  0  0  0  0
   -1.3720    1.9020    0.8230 C   0  0  0  0  0  0  0  0  0  0  0  0
   -2.7520    1.6770    1.1600 C   0  0  0  0  0  0  0  0  0  0  0  0
   -3.4730    0.6970    0.5780 C   0  0  0  0  0  0  0  0  0  0  0  0
   -4.8470    0.4300    0.9700 C   0  0  0  0  0  0  0  0  0  0  0  0
   -5.5470    1.3340    1.9190 C   0  0  0  0  0  0  0  0  0  0  0  0
   -5.4900   -0.6480    0.4680 C   0  0  0  0  0  0  0  0  0  0  0  0
   -6.7760   -0.8510    0.8500 O   0  0  0  0  0  0  0  0  0  0  0  0
   -4.8470   -1.5700   -0.4880 C   0  0  0  0  0  0  0  0  0  0  0  0
   -5.4130   -2.5890   -0.8640 O   0  0  0  0  0  0  0  0  0  0  0  0
   -3.5190   -1.1860   -0.9580 C   0  0  0  0  0  0  0  0  0  0  0  0
   -2.8660   -0.1240   -0.4550 C   0  0  0  0  0  0  0  0  0  0  0  0
   -1.5260    0.2830   -1.0350 C   0  0  1  0  0  0  0  0  0  0  0  0
   -1.8970    0.9970   -2.3460 C   0  0  0  0  0  0  0  0  0  0  0  0
   -0.7170   -0.9910   -1.3270 C   0  0  0  0  0  0  0  0  0  0  0  0
    0.7460   -0.7280   -1.6440 C   0  0  0  0  0  0  0  0  0  0  0  0
    1.4230    0.0780   -0.5260 C   0  0  1  0  0  0  0  0  0  0  0  0
    1.2400   -0.6830    0.7850 C   0  0  0  0  0  0  0  0  0  0  0  0
    3.0030   -1.7680   -1.5890 H   0  0  0  0  0  0  0  0  0  0  0  0
    4.4490   -0.8520   -1.8830 H   0  0  0  0  0  0  0  0  0  0  0  0
    3.9230   -3.7330   -0.5590 H   0  0  0  0  0  0  0  0  0  0  0  0
    4.2650   -3.6410    1.1640 H   0  0  0  0  0  0  0  0  0  0  0  0
    2.7090   -3.0700    0.5580 H   0  0  0  0  0  0  0  0  0  0  0  0
    6.1560   -2.2630    0.5050 H   0  0  0  0  0  0  0  0  0  0  0  0
    3.0210    0.7040    2.1200 H   0  0  0  0  0  0  0  0  0  0  0  0
    4.7190    1.0980    1.9950 H   0  0  0  0  0  0  0  0  0  0  0  0
    5.7480    0.7180   -0.4930 H   0  0  0  0  0  0  0  0  0  0  0  0
    4.9700    1.8780   -1.5650 H   0  0  0  0  0  0  0  0  0  0  0  0
    5.5250    2.3800    0.0240 H   0  0  0  0  0  0  0  0  0  0  0  0
    3.3740    3.1330    1.0560 H   0  0  0  0  0  0  0  0  0  0  0  0
    2.9680    3.1250   -0.6510 H   0  0  0  0  0  0  0  0  0  0  0  0
    1.3350    1.8070    1.6250 H   0  0  0  0  0  0  0  0  0  0  0  0
    0.9300    3.2730    0.7430 H   0  0  0  0  0  0  0  0  0  0  0  0
    1.7730    2.7130   -1.9360 H   0  0  0  0  0  0  0  0  0  0  0  0
    0.5750    1.6400   -2.6520 H   0  0  0  0  0  0  0  0  0  0  0  0
    0.0690    3.0830   -1.7580 H   0  0  0  0  0  0  0  0  0  0  0  0
   -0.8700    2.6580    1.4360 H   0  0  0  0  0  0  0  0  0  0  0  0
   -3.1920    2.3210    1.9340 H   0  0  0  0  0  0  0  0  0  0  0  0
   -6.4370    1.7870    1.4500 H   0  0  0  0  0  0  0  0  0  0  0  0
   -5.9030    0.7820    2.8050 H   0  0  0  0  0  0  0  0  0  0  0  0
   -4.9250    2.1620    2.2940 H   0  0  0  0  0  0  0  0  0  0  0  0
   -7.0640   -1.7120    0.5210 H   0  0  0  0  0  0  0  0  0  0  0  0
   -3.1020   -1.8200   -1.7490 H   0  0  0  0  0  0  0  0  0  0  0  0
   -2.3220    1.9940   -2.1600 H   0  0  0  0  0  0  0  0  0  0  0  0
   -1.0390    1.1310   -3.0210 H   0  0  0  0  0  0  0  0  0  0  0  0
   -2.6450    0.4370   -2.9290 H   0  0  0  0  0  0  0  0  0  0  0  0
   -0.7960   -1.6810   -0.4560 H   0  0  0  0  0  0  0  0  0  0  0  0
   -1.1810   -1.5540   -2.1670 H   0  0  0  0  0  0  0  0  0  0  0  0
    1.2720   -1.7000   -1.7940 H   0  0  0  0  0  0  0  0  0  0  0  0
    0.8490   -0.2150   -2.6250 H   0  0  0  0  0  0  0  0  0  0  0  0
    1.7630   -1.6520    0.7810 H   0  0  0  0  0  0  0  0  0  0  0  0
    1.5850   -0.1280    1.6720 H   0  0  0  0  0  0  0  0  0  0  0  0
    0.1870   -0.9220    1.0020 H   0  0  0  0  0  0  0  0  0  0  0  0
  2  1  1  6
  2  3  1  0
  2 32  1  0
  2 10  1  0
  3 35  1  0
  3 34  1  0
  3  4  1  0
  4  6  1  6
  4  5  1  0
  4  7  1  0
  5 36  1  0
  5 38  1  0
  5 37  1  0
  6 39  1  0
  7  9  1  0
  7  8  2  0
  9 10  1  0
  9 41  1  0
  9 40  1  0
 10 11  1  6
 10 12  1  0
 11 43  1  0
 11 42  1  0
 11 44  1  0
 12 46  1  0
 12 13  1  0
 12 45  1  0
 13 14  1  0
 13 48  1  0
 13 47  1  0
 14 15  1  6
 14 32  1  0
 14 16  1  0
 15 50  1  0
 15 49  1  0
 15 51  1  0
 16 28  1  0
 16 17  2  0
 17 18  1  0
 17 52  1  0
 18 19  2  0
 18 53  1  0
 19 27  1  0
 19 20  1  0
 20 22  2  0
 20 21  1  0
 21 54  1  0
 21 56  1  0
 21 55  1  0
 22 24  1  0
 22 23  1  0
 23 57  1  0
 24 26  1  0
 24 25  2  0
 26 58  1  0
 26 27  2  0
 27 28  1  0
 28 29  1  6
 28 30  1  0
 29 60  1  0
 29 61  1  0
 29 59  1  0
 30 63  1  0
 30 31  1  0
 30 62  1  0
 31 65  1  0
 31 64  1  0
 31 32  1  0
 32 33  1  1
 33 66  1  0
 33 68  1  0
 33 67  1  0
M  END
>  <id>  (157) 
257

>  <scaffolds>  (157) 
['C1CCCCC1', 'C=C1CCCC2CCCCC12', 'C1CCC2CCCCC2C1']

>  <name>  (157) 
20-hydroxy-20-epi-tingenone

>  <formula>  (157) 
C28H36O4

>  <SMILES>  (157) 
[H][C@@]15C[C@@](C)(O)C(=O)C[C@]1(C)CC[C@]4(C)C3=CC=c2c(C)c(O)c(=O)cc2[C@]3(C)CCC45C

>  <ChEMBL_id>  (157) 


>  <ZINC_id>  (157) 


>  <PubChem_id>  (157) 


>  <DrugBank_id>  (157) 


>  <CAS_no>  (157) 
154346-86-8

>  <references>  (157) 
[{'journal': {'name': 'Natural Product Research', 'id': 18}, 'title': 'Isolation and identification of poisonous triterpenoids from Elaeodendron croceum', 'year': 2010, 'start_page': 1418, 'volume': 24, 'issue': 15, 'doi': '10.1080/14786410903052399', 'isbn': '', 'despositor': {'code': 'NFA', 'first_name': 'Ngonidzashe', 'last_name': 'Faya', 'id': 21}, 'refauthors_set': [{'author': {'first_name': 'Thembela', 'initials': 'T', 'last_name': 'Yelani', 'id': 549}, 'first_author': True, 'id': 743}, {'author': {'first_name': 'Ahmed', 'initials': 'AA', 'last_name': 'Hussein', 'id': 440}, 'first_author': None, 'id': 1265}, {'author': {'first_name': 'Jacobus', 'initials': 'JM', 'last_name': 'Meyer', 'id': 716}, 'first_author': None, 'id': 1266}], 'id': 266}]

>  <classifications>  (157) 
[{'classification': 'Terpenoid', 'id': 839}, {'classification': 'Triterpene', 'id': 842}, {'classification': 'Organooxygen compounds (Classyfire)', 'id': 954}]

>  <molecular_mass>  (157) 
436.58

$$$$
SANC00258_minRM1.pdb
     RDKit          3D

 33 35  0  0  0  0  0  0  0  0999 V2000
   -0.4050    0.5240    1.3400 O   0  0  0  0  0  0  0  0  0  0  0  0
    0.2920   -0.2830    0.7310 C   0  0  0  0  0  0  0  0  0  0  0  0
   -0.1530   -1.6160    0.3020 C   0  0  0  0  0  0  0  0  0  0  0  0
   -1.3810   -1.9080   -0.1300 C   0  0  0  0  0  0  0  0  0  0  0  0
   -2.4520   -0.9280   -0.2470 C   0  0  0  0  0  0  0  0  0  0  0  0
   -3.7140   -1.2480    0.2520 C   0  0  0  0  0  0  0  0  0  0  0  0
   -4.7470   -0.3240    0.1910 C   0  0  0  0  0  0  0  0  0  0  0  0
   -4.4930    0.9240   -0.3790 C   0  0  0  0  0  0  0  0  0  0  0  0
   -5.5510    1.7780   -0.4800 O   0  0  0  0  0  0  0  0  0  0  0  0
   -3.2470    1.2440   -0.9200 C   0  0  0  0  0  0  0  0  0  0  0  0
   -2.2260    0.3070   -0.8520 C   0  0  0  0  0  0  0  0  0  0  0  0
    0.9410   -2.6300    0.3900 C   0  0  0  0  0  0  0  0  0  0  0  0
    2.1030   -2.2400   -0.3120 O   0  0  0  0  0  0  0  0  0  0  0  0
    2.4980   -0.9490   -0.1750 C   0  0  0  0  0  0  0  0  0  0  0  0
    3.7800   -0.6640   -0.6300 C   0  0  0  0  0  0  0  0  0  0  0  0
    4.2020    0.6700   -0.5600 C   0  0  0  0  0  0  0  0  0  0  0  0
    5.4520    0.8950   -1.0100 O   0  0  0  0  0  0  0  0  0  0  0  0
    3.4140    1.6910   -0.0240 C   0  0  0  0  0  0  0  0  0  0  0  0
    2.1440    1.3530    0.4540 C   0  0  0  0  0  0  0  0  0  0  0  0
    1.4220    2.3480    0.9790 O   0  0  0  0  0  0  0  0  0  0  0  0
    1.6550    0.0380    0.3540 C   0  0  0  0  0  0  0  0  0  0  0  0
   -1.6460   -2.9350   -0.4170 H   0  0  0  0  0  0  0  0  0  0  0  0
   -3.8930   -2.2260    0.7110 H   0  0  0  0  0  0  0  0  0  0  0  0
   -5.7440   -0.5710    0.5630 H   0  0  0  0  0  0  0  0  0  0  0  0
   -5.2620    2.6190   -0.0940 H   0  0  0  0  0  0  0  0  0  0  0  0
   -3.0790    2.2160   -1.3900 H   0  0  0  0  0  0  0  0  0  0  0  0
   -1.2450    0.5430   -1.2740 H   0  0  0  0  0  0  0  0  0  0  0  0
    1.1950   -2.8270    1.4590 H   0  0  0  0  0  0  0  0  0  0  0  0
    0.6890   -3.6100   -0.0710 H   0  0  0  0  0  0  0  0  0  0  0  0
    4.4360   -1.4430   -1.0230 H   0  0  0  0  0  0  0  0  0  0  0  0
    5.6200    1.8500   -1.0770 H   0  0  0  0  0  0  0  0  0  0  0  0
    3.7660    2.7210    0.0510 H   0  0  0  0  0  0  0  0  0  0  0  0
    0.5810    2.0050    1.3570 H   0  0  0  0  0  0  0  0  0  0  0  0
  1  2  2  0
  2  3  1  0
  2 21  1  0
  3  4  2  0
  3 12  1  0
  4 22  1  0
  4  5  1  0
  5 11  2  0
  5  6  1  0
  6  7  2  0
  6 23  1  0
  7  8  1  0
  7 24  1  0
  8 10  2  0
  8  9  1  0
  9 25  1  0
 10 26  1  0
 10 11  1  0
 11 27  1  0
 12 13  1  0
 12 29  1  0
 12 28  1  0
 13 14  1  0
 14 15  2  0
 14 21  1  0
 15 30  1  0
 15 16  1  0
 16 17  1  0
 16 18  2  0
 17 31  1  0
 18 32  1  0
 18 19  1  0
 19 21  2  0
 19 20  1  0
 20 33  1  0
M  END
>  <id>  (158) 
258

>  <scaffolds>  (158) 
['c1ccccc1', 'O=C1C(=Cc2ccccc2)COc2ccccc21', 'O=C(C=Cc1ccccc1)c1ccccc1', 'C(=Cc1ccccc1)Cc1ccccc1']

>  <name>  (158) 
4'-Demethyl-eucomin

>  <formula>  (158) 
C16H12O5

>  <SMILES>  (158) 
O=C2C(=Cc1ccc(O)cc1)COc3cc(O)cc(O)c23

>  <ChEMBL_id>  (158) 


>  <ZINC_id>  (158) 


>  <PubChem_id>  (158) 


>  <DrugBank_id>  (158) 


>  <CAS_no>  (158) 
27181-64-2

>  <references>  (158) 
[{'journal': {'name': 'Phytochemistry: Advances in Research (Book)', 'id': 13}, 'title': 'Chapter 3: The phytochemistry and ethnobotany of the southern African genus Eucomis (Hyacinthaceae: Hyacinthoideae)', 'year': 2006, 'start_page': 69, 'volume': None, 'issue': None, 'doi': '', 'isbn': '81-308-0034-9', 'despositor': {'code': 'rah', 'first_name': 'Rowan', 'last_name': 'Hatherley', 'id': 20}, 'refauthors_set': [{'author': {'first_name': 'Chantal', 'initials': 'C', 'last_name': 'Koorbanally', 'id': 523}, 'first_author': True, 'id': 851}, {'author': {'first_name': 'Neil', 'initials': 'NR', 'last_name': 'Crouch', 'id': 524}, 'first_author': False, 'id': 852}, {'author': {'first_name': 'Dulcie', 'initials': 'DA', 'last_name': 'Mulholland', 'id': 525}, 'first_author': False, 'id': 853}], 'id': 259}, {'journal': {'name': 'Experientia', 'id': 14}, 'title': "The homo-isoflavones III. isolation and structure of punctatin, 3,9-dihydro-punctatin, 4'-O-methyl-3,9-dihydro-punctatin, 4'-demethyl-eucomin and 4'-demethyl-5-O-methyl-3,9-dihydro-eucomin", 'year': 1970, 'start_page': 472, 'volume': 26, 'issue': 5, 'doi': '10.1007/BF01898447', 'isbn': '1420-9071', 'despositor': {'code': 'rah', 'first_name': 'Rowan', 'last_name': 'Hatherley', 'id': 20}, 'refauthors_set': [{'author': {'first_name': 'Christoph', 'initials': 'C', 'last_name': 'Tamm', 'id': 543}, 'first_author': False, 'id': 730}, {'author': {'first_name': '', 'initials': 'RE', 'last_name': 'Finckh', 'id': 545}, 'first_author': True, 'id': 731}], 'id': 263}]

>  <classifications>  (158) 
[{'classification': 'Flavonoids', 'id': 776}, {'classification': 'Homoisoflavonoid', 'id': 783}, {'classification': 'Homoisoflavonoids (Classyfire)', 'id': 964}]

>  <molecular_mass>  (158) 
284.26

$$$$
SANC00259_minRM1.pdb
     RDKit          3D

 26 25  0  0  1  0  0  0  0  0999 V2000
   -3.9520    1.8390   -0.9320 C   0  0  0  0  0  0  0  0  0  0  0  0
   -3.4290    0.6320   -0.7600 C   0  0  0  0  0  0  0  0  0  0  0  0
   -2.7720    0.1990    0.4950 C   0  0  2  0  0  0  0  0  0  0  0  0
   -3.7470   -0.4250    1.4600 C   0  0  0  0  0  0  0  0  0  0  0  0
   -2.0740    1.7050    1.3690 Cl  0  0  0  0  0  0  0  0  0  0  0  0
   -1.5170   -0.6220    0.2880 C   0  0  1  0  0  0  0  0  0  0  0  0
   -1.1010   -1.0110    1.2430 H   0  0  0  0  0  0  0  0  0  0  0  0
   -2.1030   -2.1550   -0.6320 Cl  0  0  0  0  0  0  0  0  0  0  0  0
   -0.5220    0.0070   -0.6000 C   0  0  0  0  0  0  0  0  0  0  0  0
    0.7620   -0.3590   -0.5590 C   0  0  0  0  0  0  0  0  0  0  0  0
    1.7640    0.2530   -1.4260 C   0  0  0  0  0  0  0  0  0  0  0  0
    1.3750    0.5070   -2.8410 C   0  0  0  0  0  0  0  0  0  0  0  0
    2.9750    0.5760   -0.9920 C   0  0  0  0  0  0  0  0  0  0  0  0
    3.4750    0.2790    0.8630 Br  0  0  0  0  0  0  0  0  0  0  0  0
   -3.9080    2.6380   -0.1930 H   0  0  0  0  0  0  0  0  0  0  0  0
   -4.4600    2.1310   -1.8470 H   0  0  0  0  0  0  0  0  0  0  0  0
   -3.4940   -0.1480   -1.5300 H   0  0  0  0  0  0  0  0  0  0  0  0
   -4.1300   -1.3820    1.0690 H   0  0  0  0  0  0  0  0  0  0  0  0
   -3.2930   -0.6320    2.4410 H   0  0  0  0  0  0  0  0  0  0  0  0
   -4.6120    0.2280    1.6430 H   0  0  0  0  0  0  0  0  0  0  0  0
   -0.8900    0.7840   -1.2820 H   0  0  0  0  0  0  0  0  0  0  0  0
    1.1290   -1.1350    0.1260 H   0  0  0  0  0  0  0  0  0  0  0  0
    0.8510    1.4700   -2.9390 H   0  0  0  0  0  0  0  0  0  0  0  0
    2.2360    0.5430   -3.5240 H   0  0  0  0  0  0  0  0  0  0  0  0
    0.7010   -0.2710   -3.2300 H   0  0  0  0  0  0  0  0  0  0  0  0
    3.7940    1.0230   -1.5420 H   0  0  0  0  0  0  0  0  0  0  0  0
  1 16  1  0
  1  2  2  0
  1 15  1  0
  2 17  1  0
  2  3  1  0
  3  6  1  0
  3  5  1  1
  3  4  1  0
  4 18  1  0
  4 20  1  0
  4 19  1  0
  6  8  1  0
  6  9  1  0
  6  7  1  1
  9 21  1  0
  9 10  2  0
 10 11  1  0
 10 22  1  0
 11 12  1  0
 11 13  2  0
 12 24  1  0
 12 25  1  0
 12 23  1  0
 13 26  1  0
 13 14  1  0
M  END
>  <id>  (159) 
259

>  <scaffolds>  (159) 
[]

>  <name>  (159) 
(1Z,3E,5S*,6S*)-1-bromo-5,6-dichloro-2,6-dimethyl-octa-1,3,7- triene

>  <formula>  (159) 
C10H13BrCl2

>  <SMILES>  (159) 
C=C[C@](C)(Cl)[C@@H](Cl)/C=C/C(C)=C\Br

>  <ChEMBL_id>  (159) 


>  <ZINC_id>  (159) 


>  <PubChem_id>  (159) 


>  <DrugBank_id>  (159) 


>  <CAS_no>  (159) 
1162677-87-3

>  <references>  (159) 
[{'journal': {'name': 'Phytochemistry', 'id': 10}, 'title': 'Antiplasmodial halogenated monoterpenes from the marine red alga Plocamium cornutum', 'year': 2009, 'start_page': 597, 'volume': 70, 'issue': None, 'doi': '10.1016/j.phytochem.2009.02.010', 'isbn': '', 'despositor': {'code': 'DLP', 'first_name': 'David', 'last_name': 'Penkler', 'id': 23}, 'refauthors_set': [{'author': {'first_name': 'Anthonia ', 'initials': 'AF', 'last_name': 'Afolayan', 'id': 548}, 'first_author': True, 'id': 744}, {'author': {'first_name': 'Maryssa ', 'initials': 'MGA', 'last_name': 'Manna', 'id': 550}, 'first_author': False, 'id': 745}, {'author': {'first_name': 'Carmen', 'initials': 'CA', 'last_name': 'Lategan', 'id': 488}, 'first_author': False, 'id': 746}, {'author': {'first_name': 'Peter', 'initials': 'PJ', 'last_name': 'Smith', 'id': 490}, 'first_author': False, 'id': 747}, {'author': {'first_name': 'John', 'initials': 'JJ', 'last_name': 'Bolton', 'id': 500}, 'first_author': False, 'id': 748}, {'author': {'first_name': 'Denzil', 'initials': 'DR', 'last_name': 'Beukes', 'id': 453}, 'first_author': False, 'id': 749}], 'id': 267}]

>  <classifications>  (159) 
[{'classification': 'Monoterpene', 'id': 795}, {'classification': 'Terpenoid', 'id': 839}, {'classification': 'Vinyl halides (Classyfire)', 'id': 960}]

>  <molecular_mass>  (159) 
284.02

$$$$
SANC00260_minRM1.pdb
     RDKit          3D

 39 41  0  0  1  0  0  0  0  0999 V2000
   -4.8480    1.6290    0.1270 C   0  0  0  0  0  0  0  0  0  0  0  0
   -4.0490    0.9110    1.0420 O   0  0  0  0  0  0  0  0  0  0  0  0
   -3.1930    0.0480    0.4140 C   0  0  0  0  0  0  0  0  0  0  0  0
   -3.4840   -1.3320    0.4160 C   0  0  0  0  0  0  0  0  0  0  0  0
   -4.6230   -1.8330    0.9270 O   0  0  0  0  0  0  0  0  0  0  0  0
   -2.6090   -2.2590   -0.1450 C   0  0  0  0  0  0  0  0  0  0  0  0
   -1.4110   -1.7900   -0.6950 C   0  0  0  0  0  0  0  0  0  0  0  0
   -0.6020   -2.7150   -1.2210 O   0  0  0  0  0  0  0  0  0  0  0  0
   -1.0760   -0.4230   -0.6730 C   0  0  0  0  0  0  0  0  0  0  0  0
    0.2080    0.0350   -1.1630 C   0  0  0  0  0  0  0  0  0  0  0  0
    0.9820   -0.7390   -1.7200 O   0  0  0  0  0  0  0  0  0  0  0  0
    0.5290    1.4850   -0.9150 C   0  0  2  0  0  0  0  0  0  0  0  0
    1.2440    1.8670   -1.6880 H   0  0  0  0  0  0  0  0  0  0  0  0
    1.1630    1.6090    0.4760 C   0  0  0  0  0  0  0  0  0  0  0  0
    2.4700    0.8890    0.4840 C   0  0  0  0  0  0  0  0  0  0  0  0
    2.5160   -0.4650    0.8000 C   0  0  0  0  0  0  0  0  0  0  0  0
    3.7220   -1.1500    0.7800 C   0  0  0  0  0  0  0  0  0  0  0  0
    4.8840   -0.4560    0.4400 C   0  0  0  0  0  0  0  0  0  0  0  0
    6.1110   -1.0400    0.4330 O   0  0  0  0  0  0  0  0  0  0  0  0
    4.8580    0.9090    0.1420 C   0  0  0  0  0  0  0  0  0  0  0  0
    3.6410    1.5710    0.1610 C   0  0  0  0  0  0  0  0  0  0  0  0
   -0.7740    2.2830   -0.9990 C   0  0  0  0  0  0  0  0  0  0  0  0
   -1.7510    1.8210   -0.0890 O   0  0  0  0  0  0  0  0  0  0  0  0
   -1.9910    0.4870   -0.1290 C   0  0  0  0  0  0  0  0  0  0  0  0
   -4.2640    2.2490   -0.5730 H   0  0  0  0  0  0  0  0  0  0  0  0
   -5.5140    0.9760   -0.4620 H   0  0  0  0  0  0  0  0  0  0  0  0
   -5.4560    2.2890    0.7630 H   0  0  0  0  0  0  0  0  0  0  0  0
   -5.0910   -1.1480    1.4220 H   0  0  0  0  0  0  0  0  0  0  0  0
   -2.8490   -3.3260   -0.1550 H   0  0  0  0  0  0  0  0  0  0  0  0
    0.2210   -2.3020   -1.5840 H   0  0  0  0  0  0  0  0  0  0  0  0
    1.2920    2.6810    0.7390 H   0  0  0  0  0  0  0  0  0  0  0  0
    0.4780    1.2200    1.2600 H   0  0  0  0  0  0  0  0  0  0  0  0
    1.6000   -1.0020    1.0690 H   0  0  0  0  0  0  0  0  0  0  0  0
    3.7540   -2.2150    1.0250 H   0  0  0  0  0  0  0  0  0  0  0  0
    5.9970   -1.9620    0.1680 H   0  0  0  0  0  0  0  0  0  0  0  0
    5.7840    1.4390   -0.1000 H   0  0  0  0  0  0  0  0  0  0  0  0
    3.6090    2.6360   -0.0870 H   0  0  0  0  0  0  0  0  0  0  0  0
   -0.6450    3.3460   -0.7050 H   0  0  0  0  0  0  0  0  0  0  0  0
   -1.1820    2.2750   -2.0360 H   0  0  0  0  0  0  0  0  0  0  0  0
  1 25  1  0
  1 26  1  0
  1 27  1  0
  1  2  1  0
  2  3  1  0
  3 24  2  0
  3  4  1  0
  4  6  2  0
  4  5  1  0
  5 28  1  0
  6  7  1  0
  6 29  1  0
  7  8  1  0
  7  9  2  0
  8 30  1  0
  9 10  1  0
  9 24  1  0
 10 11  2  0
 10 12  1  0
 12 13  1  6
 12 22  1  0
 12 14  1  0
 14 15  1  0
 14 31  1  0
 14 32  1  0
 15 21  2  0
 15 16  1  0
 16 17  2  0
 16 33  1  0
 17 18  1  0
 17 34  1  0
 18 20  2  0
 18 19  1  0
 19 35  1  0
 20 36  1  0
 20 21  1  0
 21 37  1  0
 22 39  1  0
 22 38  1  0
 22 23  1  0
 23 24  1  0
M  END
>  <id>  (160) 
260

>  <scaffolds>  (160) 
['c1ccccc1', 'O=C1c2ccccc2OCC1Cc1ccccc1', 'O=C(CCc1ccccc1)c1ccccc1']

>  <name>  (160) 
3,9-Dihydropunctatin

>  <formula>  (160) 
C17H16O6

>  <SMILES>  (160) 
COc2c(O)cc(O)c3C(=O)[C@H](Cc1ccc(O)cc1)COc23

>  <ChEMBL_id>  (160) 


>  <ZINC_id>  (160) 


>  <PubChem_id>  (160) 


>  <DrugBank_id>  (160) 


>  <CAS_no>  (160) 
27245-79-0

>  <references>  (160) 
[{'journal': {'name': 'Phytochemistry: Advances in Research (Book)', 'id': 13}, 'title': 'Chapter 3: The phytochemistry and ethnobotany of the southern African genus Eucomis (Hyacinthaceae: Hyacinthoideae)', 'year': 2006, 'start_page': 69, 'volume': None, 'issue': None, 'doi': '', 'isbn': '81-308-0034-9', 'despositor': {'code': 'rah', 'first_name': 'Rowan', 'last_name': 'Hatherley', 'id': 20}, 'refauthors_set': [{'author': {'first_name': 'Chantal', 'initials': 'C', 'last_name': 'Koorbanally', 'id': 523}, 'first_author': True, 'id': 851}, {'author': {'first_name': 'Neil', 'initials': 'NR', 'last_name': 'Crouch', 'id': 524}, 'first_author': False, 'id': 852}, {'author': {'first_name': 'Dulcie', 'initials': 'DA', 'last_name': 'Mulholland', 'id': 525}, 'first_author': False, 'id': 853}], 'id': 259}, {'journal': {'name': 'Experientia', 'id': 14}, 'title': "The homo-isoflavones III. isolation and structure of punctatin, 3,9-dihydro-punctatin, 4'-O-methyl-3,9-dihydro-punctatin, 4'-demethyl-eucomin and 4'-demethyl-5-O-methyl-3,9-dihydro-eucomin", 'year': 1970, 'start_page': 472, 'volume': 26, 'issue': 5, 'doi': '10.1007/BF01898447', 'isbn': '1420-9071', 'despositor': {'code': 'rah', 'first_name': 'Rowan', 'last_name': 'Hatherley', 'id': 20}, 'refauthors_set': [{'author': {'first_name': 'Christoph', 'initials': 'C', 'last_name': 'Tamm', 'id': 543}, 'first_author': False, 'id': 730}, {'author': {'first_name': '', 'initials': 'RE', 'last_name': 'Finckh', 'id': 545}, 'first_author': True, 'id': 731}], 'id': 263}, {'journal': {'name': 'South African Journal of Botany', 'id': 1}, 'title': 'Homoisoflavanones and spirocyclic nortriterpenoids from three Eucomis species: E. comosa, E. schiffii and E. pallidiflora subsp. pole-evansii (Hyacinthaceae)', 'year': 2006, 'start_page': 428, 'volume': 72, 'issue': None, 'doi': '10.1016/j.sajb.2005.12.006', 'isbn': '', 'despositor': {'code': 'rah', 'first_name': 'Rowan', 'last_name': 'Hatherley', 'id': 20}, 'refauthors_set': [{'author': {'first_name': 'Chantal', 'initials': 'C', 'last_name': 'Koorbanally', 'id': 523}, 'first_author': True, 'id': 1034}, {'author': {'first_name': 'Neil', 'initials': 'NR', 'last_name': 'Crouch', 'id': 524}, 'first_author': None, 'id': 1035}, {'author': {'first_name': 'Angela', 'initials': 'A', 'last_name': 'Langlois', 'id': 712}, 'first_author': None, 'id': 1036}, {'author': {'first_name': 'Karen', 'initials': 'K', 'last_name': 'Du Toit', 'id': 713}, 'first_author': None, 'id': 1037}, {'author': {'first_name': 'Dulcie', 'initials': 'DA', 'last_name': 'Mulholland', 'id': 525}, 'first_author': None, 'id': 1038}, {'author': {'first_name': 'Siegfried', 'initials': 'SE', 'last_name': 'Drewes', 'id': 613}, 'first_author': None, 'id': 1039}], 'id': 344}, {'journal': {'name': 'Bioorganic & Medicinal Chemistry', 'id': 34}, 'title': 'Anti-inflammatory activity and QSAR studies of compounds isolated from Hyacinthaceae species and Tachiadenus longiflorus Griseb. (Gentianaceae)', 'year': 2005, 'start_page': 2561, 'volume': 13, 'issue': 7, 'doi': '10.1016/j.bmc.2005.01.036', 'isbn': '', 'despositor': {'code': 'rah', 'first_name': 'Rowan', 'last_name': 'Hatherley', 'id': 20}, 'refauthors_set': [{'author': {'first_name': 'Karen', 'initials': 'K', 'last_name': 'Du Toit', 'id': 713}, 'first_author': True, 'id': 1075}, {'author': {'first_name': 'Esameldin', 'initials': 'EE', 'last_name': 'Elgorashi', 'id': 594}, 'first_author': None, 'id': 1076}, {'author': {'first_name': 'Sarel', 'initials': 'SF', 'last_name': 'Malan', 'id': 759}, 'first_author': None, 'id': 1077}, {'author': {'first_name': 'Siegfried', 'initials': 'SE', 'last_name': 'Drewes', 'id': 613}, 'first_author': None, 'id': 1078}, {'author': {'first_name': 'Johannes', 'initials': 'J', 'last_name': 'Van Staden', 'id': 489}, 'first_author': None, 'id': 1079}, {'author': {'first_name': 'Neil', 'initials': 'NR', 'last_name': 'Crouch', 'id': 524}, 'first_author': None, 'id': 1080}, {'author': {'first_name': 'Dulcie', 'initials': 'DA', 'last_name': 'Mulholland', 'id': 525}, 'first_author': None, 'id': 1081}], 'id': 362}]

>  <classifications>  (160) 
[{'classification': 'Flavonoids', 'id': 776}, {'classification': 'Homoisoflavonoid', 'id': 783}, {'classification': 'Homoisoflavonoids (Classyfire)', 'id': 964}]

>  <molecular_mass>  (160) 
316.3

$$$$
SANC00261_minRM1.pdb
     RDKit          3D

 82 86  0  0  1  0  0  0  0  0999 V2000
   -4.9820   -1.3510    2.2180 C   0  0  0  0  0  0  0  0  0  0  0  0
   -5.2960   -1.2550    0.7250 C   0  0  1  0  0  0  0  0  0  0  0  0
   -6.1680   -2.4530    0.3390 C   0  0  0  0  0  0  0  0  0  0  0  0
   -6.0600    0.0350    0.4150 C   0  0  0  0  0  0  0  0  0  0  0  0
   -5.1940    1.2780    0.5670 C   0  0  0  0  0  0  0  0  0  0  0  0
   -3.8950    1.1970   -0.2560 C   0  0  1  0  0  0  0  0  0  0  0  0
   -4.2570    1.1180   -1.7390 C   0  0  0  0  0  0  0  0  0  0  0  0
   -3.0550    2.4630    0.0050 C   0  0  0  0  0  0  0  0  0  0  0  0
   -1.6190    2.1900    0.4460 C   0  0  0  0  0  0  0  0  0  0  0  0
   -0.9360    1.1120   -0.4030 C   0  0  2  0  0  0  0  0  0  0  0  0
   -0.8560    1.5960   -1.8530 C   0  0  0  0  0  0  0  0  0  0  0  0
   -1.7470   -0.1490   -0.3500 C   0  0  0  0  0  0  0  0  0  0  0  0
   -1.1820   -1.3230   -0.6280 C   0  0  0  0  0  0  0  0  0  0  0  0
    0.2950   -1.5450   -0.7630 C   0  0  1  0  0  0  0  0  0  0  0  0
    0.6020   -2.2040   -1.9630 O   0  0  0  0  0  0  0  0  0  0  0  0
    1.1480   -0.2610   -0.7790 C   0  0  2  0  0  0  0  0  0  0  0  0
    2.6750   -0.5380   -0.5640 C   0  0  2  0  0  0  0  0  0  0  0  0
    3.3100   -0.5310   -1.9610 C   0  0  0  0  0  0  0  0  0  0  0  0
    3.0070   -1.8880    0.0840 C   0  0  0  0  0  0  0  0  0  0  0  0
    4.5110   -2.0490    0.2790 C   0  0  0  0  0  0  0  0  0  0  0  0
    5.0750   -0.9360    1.1710 C   0  0  1  0  0  0  0  0  0  0  0  0
    6.4680   -1.0440    1.2640 O   0  0  0  0  0  0  0  0  0  0  0  0
    4.7840    0.4760    0.6030 C   0  0  1  0  0  0  0  0  0  0  0  0
    5.1350    1.5000    1.6960 C   0  0  0  0  0  0  0  0  0  0  0  0
    5.6580    0.7990   -0.6020 C   0  0  0  0  0  0  0  0  0  0  0  0
    3.2680    0.5540    0.3440 C   0  0  1  0  0  0  0  0  0  0  0  0
    2.8180    1.8990   -0.2030 C   0  0  0  0  0  0  0  0  0  0  0  0
    1.3350    2.1030    0.1020 C   0  0  0  0  0  0  0  0  0  0  0  0
    0.5040    0.8040    0.1350 C   0  0  1  0  0  0  0  0  0  0  0  0
    0.3730    0.3050    1.5750 C   0  0  0  0  0  0  0  0  0  0  0  0
   -3.1410   -0.0600    0.1940 C   0  0  2  0  0  0  0  0  0  0  0  0
   -3.9970   -1.2970   -0.0860 C   0  0  0  0  0  0  0  0  0  0  0  0
   -4.2580   -0.5890    2.5460 H   0  0  0  0  0  0  0  0  0  0  0  0
   -5.8780   -1.2310    2.8420 H   0  0  0  0  0  0  0  0  0  0  0  0
   -4.5410   -2.3230    2.4850 H   0  0  0  0  0  0  0  0  0  0  0  0
   -7.1140   -2.4700    0.9000 H   0  0  0  0  0  0  0  0  0  0  0  0
   -6.4350   -2.4560   -0.7270 H   0  0  0  0  0  0  0  0  0  0  0  0
   -5.6690   -3.4130    0.5360 H   0  0  0  0  0  0  0  0  0  0  0  0
   -6.4950   -0.0090   -0.6060 H   0  0  0  0  0  0  0  0  0  0  0  0
   -6.9530    0.1190    1.0740 H   0  0  0  0  0  0  0  0  0  0  0  0
   -5.7780    2.1750    0.2700 H   0  0  0  0  0  0  0  0  0  0  0  0
   -4.9660    1.4520    1.6410 H   0  0  0  0  0  0  0  0  0  0  0  0
   -4.9190    1.9390   -2.0500 H   0  0  0  0  0  0  0  0  0  0  0  0
   -3.3690    1.1630   -2.3910 H   0  0  0  0  0  0  0  0  0  0  0  0
   -4.7660    0.1810   -2.0130 H   0  0  0  0  0  0  0  0  0  0  0  0
   -3.0530    3.1250   -0.8880 H   0  0  0  0  0  0  0  0  0  0  0  0
   -3.5320    3.1090    0.7750 H   0  0  0  0  0  0  0  0  0  0  0  0
   -1.0570    3.1480    0.4160 H   0  0  0  0  0  0  0  0  0  0  0  0
   -1.5930    1.9060    1.5230 H   0  0  0  0  0  0  0  0  0  0  0  0
   -0.3070    2.5480   -1.9340 H   0  0  0  0  0  0  0  0  0  0  0  0
   -0.3410    0.8760   -2.5100 H   0  0  0  0  0  0  0  0  0  0  0  0
   -1.8410    1.7570   -2.3150 H   0  0  0  0  0  0  0  0  0  0  0  0
   -1.7790   -2.2450   -0.6600 H   0  0  0  0  0  0  0  0  0  0  0  0
    0.5520   -2.1940    0.1240 H   0  0  0  0  0  0  0  0  0  0  0  0
    0.0430   -2.9830   -2.0280 H   0  0  0  0  0  0  0  0  0  0  0  0
    1.0560    0.1710   -1.8190 H   0  0  0  0  0  0  0  0  0  0  0  0
    3.3260    0.4770   -2.4060 H   0  0  0  0  0  0  0  0  0  0  0  0
    4.3540   -0.8870   -1.9640 H   0  0  0  0  0  0  0  0  0  0  0  0
    2.7820   -1.1890   -2.6670 H   0  0  0  0  0  0  0  0  0  0  0  0
    2.4860   -2.0010    1.0580 H   0  0  0  0  0  0  0  0  0  0  0  0
    2.6490   -2.7320   -0.5430 H   0  0  0  0  0  0  0  0  0  0  0  0
    4.7260   -3.0440    0.7260 H   0  0  0  0  0  0  0  0  0  0  0  0
    5.0350   -2.0740   -0.7010 H   0  0  0  0  0  0  0  0  0  0  0  0
    4.6100   -1.0290    2.1940 H   0  0  0  0  0  0  0  0  0  0  0  0
    6.6660   -1.8940    1.6680 H   0  0  0  0  0  0  0  0  0  0  0  0
    6.1930    1.4490    1.9880 H   0  0  0  0  0  0  0  0  0  0  0  0
    4.9460    2.5320    1.3590 H   0  0  0  0  0  0  0  0  0  0  0  0
    4.5560    1.3660    2.6210 H   0  0  0  0  0  0  0  0  0  0  0  0
    5.6770    0.0020   -1.3600 H   0  0  0  0  0  0  0  0  0  0  0  0
    5.3460    1.7200   -1.1150 H   0  0  0  0  0  0  0  0  0  0  0  0
    6.7120    0.9500   -0.3200 H   0  0  0  0  0  0  0  0  0  0  0  0
    2.8090    0.4250    1.3660 H   0  0  0  0  0  0  0  0  0  0  0  0
    3.4120    2.7380    0.2230 H   0  0  0  0  0  0  0  0  0  0  0  0
    3.0060    1.9640   -1.2980 H   0  0  0  0  0  0  0  0  0  0  0  0
    1.2290    2.6450    1.0670 H   0  0  0  0  0  0  0  0  0  0  0  0
    0.9330    2.8180   -0.6520 H   0  0  0  0  0  0  0  0  0  0  0  0
   -0.1110    1.0490    2.2300 H   0  0  0  0  0  0  0  0  0  0  0  0
   -0.2300   -0.6070    1.6790 H   0  0  0  0  0  0  0  0  0  0  0  0
    1.3470    0.0780    2.0360 H   0  0  0  0  0  0  0  0  0  0  0  0
   -2.9900   -0.0020    1.3120 H   0  0  0  0  0  0  0  0  0  0  0  0
   -3.4340   -2.2270    0.1510 H   0  0  0  0  0  0  0  0  0  0  0  0
   -4.2190   -1.3790   -1.1730 H   0  0  0  0  0  0  0  0  0  0  0  0
  2  1  1  1
  1 35  1  0
  1 33  1  0
  1 34  1  0
  2 32  1  0
  2  3  1  0
  2  4  1  0
  3 37  1  0
  3 38  1  0
  3 36  1  0
  4 39  1  0
  4  5  1  0
  4 40  1  0
  5  6  1  0
  5 41  1  0
  5 42  1  0
  6  7  1  6
  6  8  1  0
  6 31  1  0
  7 44  1  0
  7 43  1  0
  7 45  1  0
  8 46  1  0
  8  9  1  0
  8 47  1  0
  9 10  1  0
  9 48  1  0
  9 49  1  0
 10 11  1  6
 10 12  1  0
 10 29  1  0
 11 51  1  0
 11 52  1  0
 11 50  1  0
 12 13  2  0
 12 31  1  0
 13 14  1  0
 13 53  1  0
 14 15  1  0
 14 16  1  0
 14 54  1  1
 15 55  1  0
 16 56  1  6
 16 17  1  0
 16 29  1  0
 17 18  1  6
 17 19  1  0
 17 26  1  0
 18 59  1  0
 18 57  1  0
 18 58  1  0
 19 61  1  0
 19 20  1  0
 19 60  1  0
 20 63  1  0
 20 62  1  0
 20 21  1  0
 21 23  1  0
 21 22  1  0
 21 64  1  1
 22 65  1  0
 23 25  1  6
 23 26  1  0
 23 24  1  0
 24 67  1  0
 24 66  1  0
 24 68  1  0
 25 69  1  0
 25 70  1  0
 25 71  1  0
 26 27  1  0
 26 72  1  1
 27 74  1  0
 27 28  1  0
 27 73  1  0
 28 76  1  0
 28 29  1  0
 28 75  1  0
 29 30  1  1
 30 78  1  0
 30 79  1  0
 30 77  1  0
 31 32  1  0
 31 80  1  1
 32 82  1  0
 32 81  1  0
M  END
>  <id>  (161) 
261

>  <scaffolds>  (161) 
['C1=C2C3CCCCC3CCC2C2CCC3CCCCC3C2C1', 'C1=CCCCC1', 'C1=CCC2CCCCC2C1', 'C1CCCCC1', 'C=C1CCCC2CCCCC12', 'C1=C2CCCCC2CCC1', 'C1=C2C3CCCCC3CCC2C2CCCCC2C1', 'C1CCC2CCCCC2C1']

>  <name>  (161) 
11[alpha]-Hydroxy-[beta]-amyrin

>  <formula>  (161) 
C30H50O2

>  <SMILES>  (161) 
CC5(C)CCC4(C)CC[C@]3(C)C(=CC(O)C2C1(C)CCC(O)C(C)(C)C1CCC23C)C4C5

>  <ChEMBL_id>  (161) 


>  <ZINC_id>  (161) 


>  <PubChem_id>  (161) 


>  <DrugBank_id>  (161) 


>  <CAS_no>  (161) 
5282-14-4

>  <references>  (161) 
[{'journal': {'name': 'Natural Product Research', 'id': 18}, 'title': 'Isolation and identification of poisonous triterpenoids from Elaeodendron croceum', 'year': 2010, 'start_page': 1418, 'volume': 24, 'issue': 15, 'doi': '10.1080/14786410903052399', 'isbn': '', 'despositor': {'code': 'NFA', 'first_name': 'Ngonidzashe', 'last_name': 'Faya', 'id': 21}, 'refauthors_set': [{'author': {'first_name': 'Thembela', 'initials': 'T', 'last_name': 'Yelani', 'id': 549}, 'first_author': True, 'id': 743}, {'author': {'first_name': 'Ahmed', 'initials': 'AA', 'last_name': 'Hussein', 'id': 440}, 'first_author': None, 'id': 1265}, {'author': {'first_name': 'Jacobus', 'initials': 'JM', 'last_name': 'Meyer', 'id': 716}, 'first_author': None, 'id': 1266}], 'id': 266}]

>  <classifications>  (161) 
[{'classification': 'Terpenoid', 'id': 839}, {'classification': 'Triterpene', 'id': 842}, {'classification': 'Phenol lipids (Classyfire)', 'id': 951}]

>  <molecular_mass>  (161) 
442.71

$$$$
SANC00262_minRM1.pdb
     RDKit          3D

 32 34  0  0  0  0  0  0  0  0999 V2000
    5.5740   -0.6590    0.0370 C   0  0  0  0  0  0  0  0  0  0  0  0
    4.2710   -0.1400    0.0390 O   0  0  0  0  0  0  0  0  0  0  0  0
    3.2790   -1.1390   -0.0440 C   0  0  0  0  0  0  0  0  0  0  0  0
    1.9730   -0.4240   -0.0370 C   0  0  0  0  0  0  0  0  0  0  0  0
    1.6940    0.9250   -0.0310 C   0  0  0  0  0  0  0  0  0  0  0  0
    0.2650    1.0650   -0.0180 C   0  0  0  0  0  0  0  0  0  0  0  0
   -0.5840    2.1720    0.0010 C   0  0  0  0  0  0  0  0  0  0  0  0
    0.0050    3.5330   -0.0110 C   0  0  0  0  0  0  0  0  0  0  0  0
   -1.9610    1.9760    0.0220 C   0  0  0  0  0  0  0  0  0  0  0  0
   -2.4710    0.6800    0.0200 C   0  0  0  0  0  0  0  0  0  0  0  0
   -3.9110    0.2790    0.0430 C   0  0  0  0  0  0  0  0  0  0  0  0
   -3.9000   -1.2630    0.0260 C   0  0  0  0  0  0  0  0  0  0  0  0
   -2.4380   -1.6670   -0.0050 C   0  0  0  0  0  0  0  0  0  0  0  0
   -2.0100   -2.8040   -0.0280 O   0  0  0  0  0  0  0  0  0  0  0  0
   -1.6510   -0.4430   -0.0040 C   0  0  0  0  0  0  0  0  0  0  0  0
   -0.2760   -0.2540   -0.0210 C   0  0  0  0  0  0  0  0  0  0  0  0
    0.7690   -1.1600   -0.0360 N   0  0  0  0  0  0  0  0  0  0  0  0
    0.6730   -2.1640   -0.0430 H   0  0  0  0  0  0  0  0  0  0  0  0
    5.7830   -1.3110    0.9030 H   0  0  0  0  0  0  0  0  0  0  0  0
    5.8240   -1.2160   -0.8820 H   0  0  0  0  0  0  0  0  0  0  0  0
    6.2220    0.2280    0.1020 H   0  0  0  0  0  0  0  0  0  0  0  0
    3.3860   -1.7510   -0.9720 H   0  0  0  0  0  0  0  0  0  0  0  0
    3.3460   -1.8540    0.8120 H   0  0  0  0  0  0  0  0  0  0  0  0
    2.4110    1.7360   -0.0310 H   0  0  0  0  0  0  0  0  0  0  0  0
    0.4840    3.7440   -0.9810 H   0  0  0  0  0  0  0  0  0  0  0  0
   -0.7250    4.3340    0.1660 H   0  0  0  0  0  0  0  0  0  0  0  0
    0.7860    3.6430    0.7530 H   0  0  0  0  0  0  0  0  0  0  0  0
   -2.6480    2.8250    0.0400 H   0  0  0  0  0  0  0  0  0  0  0  0
   -4.4250    0.6830    0.9360 H   0  0  0  0  0  0  0  0  0  0  0  0
   -4.4590    0.7020   -0.8230 H   0  0  0  0  0  0  0  0  0  0  0  0
   -4.4050   -1.6970    0.9100 H   0  0  0  0  0  0  0  0  0  0  0  0
   -4.4390   -1.6780   -0.8470 H   0  0  0  0  0  0  0  0  0  0  0  0
  1 20  1  0
  1  2  1  0
  1 21  1  0
  1 19  1  0
  2  3  1  0
  3 22  1  0
  3  4  1  0
  3 23  1  0
  4 17  1  0
  4  5  2  0
  5 24  1  0
  5  6  1  0
  6 16  2  0
  6  7  1  0
  7  8  1  0
  7  9  2  0
  8 25  1  0
  8 26  1  0
  8 27  1  0
  9 10  1  0
  9 28  1  0
 10 15  2  0
 10 11  1  0
 11 30  1  0
 11 12  1  0
 11 29  1  0
 12 32  1  0
 12 13  1  0
 12 31  1  0
 13 14  2  0
 13 15  1  0
 15 16  1  0
 16 17  1  0
 17 18  1  0
M  END
>  <id>  (162) 
262

>  <scaffolds>  (162) 
['c1ccccc1', 'c1ccc2[nH]ccc2c1', 'O=C1CCc2ccc3cc[nH]c3c21', 'c1cc2ccc3c(c2[nH]1)CCC3', 'O=C1CCc2ccccc21']

>  <name>  (162) 
Dilemmaone A

>  <formula>  (162) 
C14H15NO2

>  <SMILES>  (162) 
COCc3cc2c(C)cc1CCC(=O)c1c2[nH]3

>  <ChEMBL_id>  (162) 


>  <ZINC_id>  (162) 


>  <PubChem_id>  (162) 
 10489585

>  <DrugBank_id>  (162) 


>  <CAS_no>  (162) 
205990-55-2

>  <references>  (162) 
[{'journal': {'name': 'Journal of Natural Products', 'id': 5}, 'title': 'Dilemmaones A-C, Unusual Indole Alkaloids from a Mixed Collection of South African Sponges', 'year': 1998, 'start_page': 699, 'volume': 61, 'issue': 5, 'doi': '10.1021/np970580m', 'isbn': '', 'despositor': {'code': 'DLP', 'first_name': 'David', 'last_name': 'Penkler', 'id': 23}, 'refauthors_set': [{'author': {'first_name': 'Denzil', 'initials': 'DR', 'last_name': 'Beukes', 'id': 453}, 'first_author': True, 'id': 758}, {'author': {'first_name': 'Michael', 'initials': 'MT', 'last_name': 'Davies-Coleman', 'id': 449}, 'first_author': False, 'id': 759}, {'author': {'first_name': 'Michelle', 'initials': 'M', 'last_name': 'Kelly-Borges', 'id': 450}, 'first_author': False, 'id': 760}, {'author': {'first_name': 'Mary', 'initials': 'MK', 'last_name': 'Harper', 'id': 551}, 'first_author': False, 'id': 761}, {'author': {'first_name': 'John', 'initials': 'DJ', 'last_name': 'Faulkner', 'id': 529}, 'first_author': False, 'id': 762}], 'id': 270}]

>  <classifications>  (162) 
[{'classification': 'Alkaloid', 'id': 738}, {'classification': 'Dilemmaone', 'id': 769}, {'classification': 'Indole', 'id': 786}, {'classification': 'Indanes (Classyfire)', 'id': 968}]

>  <molecular_mass>  (162) 
229.27

$$$$
SANC00263_minRM1.pdb
     RDKit          3D

 32 34  0  0  1  0  0  0  0  0999 V2000
   -1.7700    2.8410    0.4810 O   0  0  0  0  0  0  0  0  0  0  0  0
   -1.2170    1.7510    0.3410 C   0  0  0  0  0  0  0  0  0  0  0  0
    0.2690    1.5720    0.4150 C   0  0  0  0  0  0  0  0  0  0  0  0
    0.6960    0.4210   -0.5010 C   0  0  1  0  0  0  0  0  0  0  0  0
    0.4840    0.6850   -1.5740 H   0  0  0  0  0  0  0  0  0  0  0  0
    2.1500    0.1170   -0.2760 C   0  0  0  0  0  0  0  0  0  0  0  0
    2.5500   -0.6190    0.8350 C   0  0  0  0  0  0  0  0  0  0  0  0
    3.8950   -0.8920    1.0440 C   0  0  0  0  0  0  0  0  0  0  0  0
    4.8290   -0.4070    0.1290 C   0  0  0  0  0  0  0  0  0  0  0  0
    6.1500   -0.6040    0.4020 O   0  0  0  0  0  0  0  0  0  0  0  0
    4.4430    0.3440   -0.9820 C   0  0  0  0  0  0  0  0  0  0  0  0
    3.0940    0.5970   -1.1810 C   0  0  0  0  0  0  0  0  0  0  0  0
    0.0010   -0.7820   -0.2060 O   0  0  0  0  0  0  0  0  0  0  0  0
   -1.3460   -0.6840   -0.0900 C   0  0  0  0  0  0  0  0  0  0  0  0
   -2.0470   -1.8770   -0.1790 C   0  0  0  0  0  0  0  0  0  0  0  0
   -3.4400   -1.8140   -0.0310 C   0  0  0  0  0  0  0  0  0  0  0  0
   -4.0700   -3.0050   -0.0940 O   0  0  0  0  0  0  0  0  0  0  0  0
   -4.1330   -0.6180    0.1570 C   0  0  0  0  0  0  0  0  0  0  0  0
   -3.3880    0.5630    0.2350 C   0  0  0  0  0  0  0  0  0  0  0  0
   -4.0790    1.6950    0.4120 O   0  0  0  0  0  0  0  0  0  0  0  0
   -1.9840    0.5430    0.1440 C   0  0  0  0  0  0  0  0  0  0  0  0
    0.8150    2.5000    0.1480 H   0  0  0  0  0  0  0  0  0  0  0  0
    0.5480    1.3740    1.4740 H   0  0  0  0  0  0  0  0  0  0  0  0
    1.8090   -0.9990    1.5460 H   0  0  0  0  0  0  0  0  0  0  0  0
    4.2220   -1.4690    1.9140 H   0  0  0  0  0  0  0  0  0  0  0  0
    6.4730   -1.2440   -0.2500 H   0  0  0  0  0  0  0  0  0  0  0  0
    5.1940    0.7310   -1.6760 H   0  0  0  0  0  0  0  0  0  0  0  0
    2.7830    1.1790   -2.0560 H   0  0  0  0  0  0  0  0  0  0  0  0
   -1.5410   -2.8300   -0.3520 H   0  0  0  0  0  0  0  0  0  0  0  0
   -5.0210   -2.8640   -0.0090 H   0  0  0  0  0  0  0  0  0  0  0  0
   -5.2200   -0.5760    0.2430 H   0  0  0  0  0  0  0  0  0  0  0  0
   -3.4690    2.4710    0.4790 H   0  0  0  0  0  0  0  0  0  0  0  0
  1  2  2  0
  2 21  1  0
  2  3  1  0
  3  4  1  0
  3 22  1  0
  3 23  1  0
  4  5  1  6
  4  6  1  0
  4 13  1  0
  6 12  2  0
  6  7  1  0
  7  8  2  0
  7 24  1  0
  8  9  1  0
  8 25  1  0
  9 11  2  0
  9 10  1  0
 10 26  1  0
 11 27  1  0
 11 12  1  0
 12 28  1  0
 13 14  1  0
 14 15  2  0
 14 21  1  0
 15 29  1  0
 15 16  1  0
 16 17  1  0
 16 18  2  0
 17 30  1  0
 18 19  1  0
 18 31  1  0
 19 21  2  0
 19 20  1  0
 20 32  1  0
M  END
>  <id>  (163) 
263

>  <scaffolds>  (163) 
['c1ccccc1', 'O=C1CC(c2ccccc2)Oc2ccccc21', 'c1ccc(C2CCc3ccccc3O2)cc1', 'O=C(CCc1ccccc1)c1ccccc1']

>  <name>  (163) 
Naringenin

>  <formula>  (163) 
C15H12O5

>  <SMILES>  (163) 
O=C2C[C@@H](c1ccc(O)cc1)Oc3cc(O)cc(O)c23

>  <ChEMBL_id>  (163) 


>  <ZINC_id>  (163) 


>  <PubChem_id>  (163) 


>  <DrugBank_id>  (163) 


>  <CAS_no>  (163) 
480-41-1

>  <references>  (163) 
[{'journal': {'name': 'Natural Product Research', 'id': 18}, 'title': 'Isolation and identification of poisonous triterpenoids from Elaeodendron croceum', 'year': 2010, 'start_page': 1418, 'volume': 24, 'issue': 15, 'doi': '10.1080/14786410903052399', 'isbn': '', 'despositor': {'code': 'NFA', 'first_name': 'Ngonidzashe', 'last_name': 'Faya', 'id': 21}, 'refauthors_set': [{'author': {'first_name': 'Thembela', 'initials': 'T', 'last_name': 'Yelani', 'id': 549}, 'first_author': True, 'id': 743}, {'author': {'first_name': 'Ahmed', 'initials': 'AA', 'last_name': 'Hussein', 'id': 440}, 'first_author': None, 'id': 1265}, {'author': {'first_name': 'Jacobus', 'initials': 'JM', 'last_name': 'Meyer', 'id': 716}, 'first_author': None, 'id': 1266}], 'id': 266}]

>  <classifications>  (163) 
[{'classification': 'Flavonoids', 'id': 776}, {'classification': 'Flavonoids (Classyfire)', 'id': 941}]

>  <molecular_mass>  (163) 
272.25

$$$$
SANC00264_minRM1.pdb
     RDKit          3D

 67 71  0  0  1  0  0  0  0  0999 V2000
    3.0390    0.2010   -1.9010 H   0  0  0  0  0  0  0  0  0  0  0  0
    2.9980   -0.0810   -0.8110 C   0  0  2  0  0  0  0  0  0  0  0  0
    3.6880   -1.4470   -0.7210 C   0  0  0  0  0  0  0  0  0  0  0  0
    4.1470   -1.8730    0.6720 C   0  0  1  0  0  0  0  0  0  0  0  0
    3.2530   -2.1030    1.3130 H   0  0  0  0  0  0  0  0  0  0  0  0
    5.0010   -3.1330    0.5760 C   0  0  0  0  0  0  0  0  0  0  0  0
    4.8980   -0.7490    1.3350 C   0  0  0  0  0  0  0  0  0  0  0  0
    5.9930   -0.8900    1.8450 O   0  0  0  0  0  0  0  0  0  0  0  0
    4.1780    0.5720    1.3610 C   0  0  0  0  0  0  0  0  0  0  0  0
    3.8050    0.9910   -0.0610 C   0  0  1  0  0  0  0  0  0  0  0  0
    5.1260    1.2390   -0.8120 C   0  0  0  0  0  0  0  0  0  0  0  0
    3.0490    2.3250   -0.0300 C   0  0  0  0  0  0  0  0  0  0  0  0
    1.5810    2.1950    0.3490 C   0  0  0  0  0  0  0  0  0  0  0  0
    0.8450    1.2460   -0.6100 C   0  0  2  0  0  0  0  0  0  0  0  0
    0.9620    1.8320   -2.0210 C   0  0  0  0  0  0  0  0  0  0  0  0
   -0.6310    1.1260   -0.3060 C   0  0  0  0  0  0  0  0  0  0  0  0
   -1.2340    1.9730    0.5430 C   0  0  0  0  0  0  0  0  0  0  0  0
   -2.6200    1.8470    0.9050 C   0  0  0  0  0  0  0  0  0  0  0  0
   -3.3680    0.8050    0.4900 C   0  0  0  0  0  0  0  0  0  0  0  0
   -4.7450    0.6390    0.9280 C   0  0  0  0  0  0  0  0  0  0  0  0
   -5.4080    1.6920    1.7390 C   0  0  0  0  0  0  0  0  0  0  0  0
   -5.4230   -0.4830    0.6000 C   0  0  0  0  0  0  0  0  0  0  0  0
   -6.6990   -0.6010    1.0450 O   0  0  0  0  0  0  0  0  0  0  0  0
   -4.8180   -1.5540   -0.2150 C   0  0  0  0  0  0  0  0  0  0  0  0
   -5.4200   -2.5960   -0.4400 O   0  0  0  0  0  0  0  0  0  0  0  0
   -3.4820   -1.2880   -0.7400 C   0  0  0  0  0  0  0  0  0  0  0  0
   -2.7900   -0.1860   -0.4020 C   0  0  0  0  0  0  0  0  0  0  0  0
   -1.4400    0.0870   -1.0360 C   0  0  1  0  0  0  0  0  0  0  0  0
   -1.7940    0.6280   -2.4330 C   0  0  0  0  0  0  0  0  0  0  0  0
   -0.6780   -1.2430   -1.1580 C   0  0  0  0  0  0  0  0  0  0  0  0
    0.7990   -1.0810   -1.4690 C   0  0  0  0  0  0  0  0  0  0  0  0
    1.4920   -0.1480   -0.4650 C   0  0  1  0  0  0  0  0  0  0  0  0
    1.2480   -0.6850    0.9430 C   0  0  0  0  0  0  0  0  0  0  0  0
    3.0190   -2.2380   -1.1350 H   0  0  0  0  0  0  0  0  0  0  0  0
    4.5600   -1.4600   -1.4120 H   0  0  0  0  0  0  0  0  0  0  0  0
    5.9320   -2.9680    0.0160 H   0  0  0  0  0  0  0  0  0  0  0  0
    5.2970   -3.5000    1.5690 H   0  0  0  0  0  0  0  0  0  0  0  0
    4.4650   -3.9540    0.0790 H   0  0  0  0  0  0  0  0  0  0  0  0
    3.2880    0.4870    2.0210 H   0  0  0  0  0  0  0  0  0  0  0  0
    4.8000    1.3520    1.8530 H   0  0  0  0  0  0  0  0  0  0  0  0
    5.8070    0.3770   -0.7900 H   0  0  0  0  0  0  0  0  0  0  0  0
    4.9770    1.4860   -1.8730 H   0  0  0  0  0  0  0  0  0  0  0  0
    5.6910    2.0780   -0.3790 H   0  0  0  0  0  0  0  0  0  0  0  0
    3.5500    3.0380    0.6600 H   0  0  0  0  0  0  0  0  0  0  0  0
    3.1250    2.8220   -1.0260 H   0  0  0  0  0  0  0  0  0  0  0  0
    1.4740    1.8700    1.4040 H   0  0  0  0  0  0  0  0  0  0  0  0
    1.1130    3.2050    0.3280 H   0  0  0  0  0  0  0  0  0  0  0  0
    1.9690    2.2120   -2.2580 H   0  0  0  0  0  0  0  0  0  0  0  0
    0.7190    1.1010   -2.8120 H   0  0  0  0  0  0  0  0  0  0  0  0
    0.2850    2.6890   -2.1560 H   0  0  0  0  0  0  0  0  0  0  0  0
   -0.7070    2.8020    1.0280 H   0  0  0  0  0  0  0  0  0  0  0  0
   -3.0400    2.6220    1.5620 H   0  0  0  0  0  0  0  0  0  0  0  0
   -6.2890    2.0980    1.2160 H   0  0  0  0  0  0  0  0  0  0  0  0
   -5.7720    1.2870    2.6980 H   0  0  0  0  0  0  0  0  0  0  0  0
   -4.7590    2.5480    1.9850 H   0  0  0  0  0  0  0  0  0  0  0  0
   -7.0550   -1.4490    0.7480 H   0  0  0  0  0  0  0  0  0  0  0  0
   -3.0980   -2.0480   -1.4310 H   0  0  0  0  0  0  0  0  0  0  0  0
   -2.1780    1.6570   -2.3870 H   0  0  0  0  0  0  0  0  0  0  0  0
   -0.9350    0.6320   -3.1200 H   0  0  0  0  0  0  0  0  0  0  0  0
   -2.5680    0.0230   -2.9300 H   0  0  0  0  0  0  0  0  0  0  0  0
   -0.8130   -1.8430   -0.2320 H   0  0  0  0  0  0  0  0  0  0  0  0
   -1.1430   -1.8730   -1.9500 H   0  0  0  0  0  0  0  0  0  0  0  0
    1.2900   -2.0820   -1.4720 H   0  0  0  0  0  0  0  0  0  0  0  0
    0.9370   -0.7150   -2.5110 H   0  0  0  0  0  0  0  0  0  0  0  0
    1.5560   -1.7390    1.0460 H   0  0  0  0  0  0  0  0  0  0  0  0
    1.7880   -0.1260    1.7230 H   0  0  0  0  0  0  0  0  0  0  0  0
    0.1930   -0.6410    1.2530 H   0  0  0  0  0  0  0  0  0  0  0  0
  2  1  1  6
  2  3  1  0
  2 32  1  0
  2 10  1  0
  3 35  1  0
  3 34  1  0
  3  4  1  0
  4  6  1  0
  4  5  1  1
  4  7  1  0
  6 36  1  0
  6 38  1  0
  6 37  1  0
  7  9  1  0
  7  8  2  0
  9 10  1  0
  9 40  1  0
  9 39  1  0
 10 11  1  6
 10 12  1  0
 11 42  1  0
 11 41  1  0
 11 43  1  0
 12 45  1  0
 12 13  1  0
 12 44  1  0
 13 14  1  0
 13 47  1  0
 13 46  1  0
 14 15  1  6
 14 32  1  0
 14 16  1  0
 15 49  1  0
 15 48  1  0
 15 50  1  0
 16 28  1  0
 16 17  2  0
 17 18  1  0
 17 51  1  0
 18 19  2  0
 18 52  1  0
 19 27  1  0
 19 20  1  0
 20 22  2  0
 20 21  1  0
 21 53  1  0
 21 55  1  0
 21 54  1  0
 22 24  1  0
 22 23  1  0
 23 56  1  0
 24 26  1  0
 24 25  2  0
 26 57  1  0
 26 27  2  0
 27 28  1  0
 28 29  1  6
 28 30  1  0
 29 59  1  0
 29 60  1  0
 29 58  1  0
 30 62  1  0
 30 31  1  0
 30 61  1  0
 31 64  1  0
 31 63  1  0
 31 32  1  0
 32 33  1  1
 33 65  1  0
 33 67  1  0
 33 66  1  0
M  END
>  <id>  (164) 
264

>  <scaffolds>  (164) 
['C1CCCCC1', 'C=C1CCCC2CCCCC12', 'C1CCC2CCCCC2C1']

>  <name>  (164) 
Tingenone

>  <formula>  (164) 
C28H36O3

>  <SMILES>  (164) 
[H][C@@]15C[C@@H](C)C(=O)C[C@]1(C)CC[C@]4(C)C3=CC=c2c(C)c(O)c(=O)cc2[C@]3(C)CC[C@]45C

>  <ChEMBL_id>  (164) 


>  <ZINC_id>  (164) 


>  <PubChem_id>  (164) 


>  <DrugBank_id>  (164) 


>  <CAS_no>  (164) 
50802-21-6

>  <references>  (164) 
[{'journal': {'name': 'Natural Product Research', 'id': 18}, 'title': 'Isolation and identification of poisonous triterpenoids from Elaeodendron croceum', 'year': 2010, 'start_page': 1418, 'volume': 24, 'issue': 15, 'doi': '10.1080/14786410903052399', 'isbn': '', 'despositor': {'code': 'NFA', 'first_name': 'Ngonidzashe', 'last_name': 'Faya', 'id': 21}, 'refauthors_set': [{'author': {'first_name': 'Thembela', 'initials': 'T', 'last_name': 'Yelani', 'id': 549}, 'first_author': True, 'id': 743}, {'author': {'first_name': 'Ahmed', 'initials': 'AA', 'last_name': 'Hussein', 'id': 440}, 'first_author': None, 'id': 1265}, {'author': {'first_name': 'Jacobus', 'initials': 'JM', 'last_name': 'Meyer', 'id': 716}, 'first_author': None, 'id': 1266}], 'id': 266}]

>  <classifications>  (164) 
[{'classification': 'Quinonoid', 'id': 822}, {'classification': 'Terpenoid', 'id': 839}, {'classification': 'Triterpene', 'id': 842}, {'classification': 'Organooxygen compounds (Classyfire)', 'id': 954}]

>  <molecular_mass>  (164) 
420.58

$$$$
SANC00265_minRM1.pdb
     RDKit          3D

 68 72  0  0  1  0  0  0  0  0999 V2000
    2.8060   -0.1900   -2.0280 H   0  0  0  0  0  0  0  0  0  0  0  0
    2.7890   -0.3190   -0.9090 C   0  0  2  0  0  0  0  0  0  0  0  0
    3.4500   -1.6780   -0.6560 C   0  0  0  0  0  0  0  0  0  0  0  0
    3.9270   -1.9310    0.7710 C   0  0  1  0  0  0  0  0  0  0  0  0
    3.0410   -2.0440    1.4540 H   0  0  0  0  0  0  0  0  0  0  0  0
    4.7430   -3.2180    0.8320 C   0  0  0  0  0  0  0  0  0  0  0  0
    4.7230   -0.7550    1.2630 C   0  0  0  0  0  0  0  0  0  0  0  0
    5.8200   -0.8530    1.7790 O   0  0  0  0  0  0  0  0  0  0  0  0
    4.0330    0.5940    1.1330 C   0  0  1  0  0  0  0  0  0  0  0  0
    3.1230    0.5890    1.7960 H   0  0  0  0  0  0  0  0  0  0  0  0
    4.8750    1.6450    1.5060 O   0  0  0  0  0  0  0  0  0  0  0  0
    3.6450    0.8290   -0.3440 C   0  0  1  0  0  0  0  0  0  0  0  0
    4.9480    0.9150   -1.1580 C   0  0  0  0  0  0  0  0  0  0  0  0
    2.9160    2.1680   -0.5010 C   0  0  0  0  0  0  0  0  0  0  0  0
    1.4560    2.1320   -0.0700 C   0  0  0  0  0  0  0  0  0  0  0  0
    0.6710    1.0740   -0.8600 C   0  0  2  0  0  0  0  0  0  0  0  0
    0.7620    1.4500   -2.3430 C   0  0  0  0  0  0  0  0  0  0  0  0
   -0.7980    1.0340   -0.5070 C   0  0  0  0  0  0  0  0  0  0  0  0
   -1.3580    2.0000    0.2380 C   0  0  0  0  0  0  0  0  0  0  0  0
   -2.7360    1.9550    0.6500 C   0  0  0  0  0  0  0  0  0  0  0  0
   -3.5170    0.8860    0.3960 C   0  0  0  0  0  0  0  0  0  0  0  0
   -4.8830    0.8120    0.8880 C   0  0  0  0  0  0  0  0  0  0  0  0
   -5.4960    1.9760    1.5810 C   0  0  0  0  0  0  0  0  0  0  0  0
   -5.5960   -0.3230    0.7210 C   0  0  0  0  0  0  0  0  0  0  0  0
   -6.8620   -0.3520    1.2090 O   0  0  0  0  0  0  0  0  0  0  0  0
   -5.0410   -1.5030    0.0300 C   0  0  0  0  0  0  0  0  0  0  0  0
   -5.6770   -2.5460   -0.0510 O   0  0  0  0  0  0  0  0  0  0  0  0
   -3.7130   -1.3430   -0.5530 C   0  0  0  0  0  0  0  0  0  0  0  0
   -2.9870   -0.2250   -0.3750 C   0  0  0  0  0  0  0  0  0  0  0  0
   -1.6480   -0.0740   -1.0710 C   0  0  1  0  0  0  0  0  0  0  0  0
   -2.0260    0.2820   -2.5200 C   0  0  0  0  0  0  0  0  0  0  0  0
   -0.9200   -1.4270   -1.0260 C   0  0  0  0  0  0  0  0  0  0  0  0
    0.5550   -1.3480   -1.3800 C   0  0  0  0  0  0  0  0  0  0  0  0
    1.2900   -0.3010   -0.5300 C   0  0  1  0  0  0  0  0  0  0  0  0
    1.0590   -0.6320    0.9430 C   0  0  0  0  0  0  0  0  0  0  0  0
    2.7550   -2.4990   -0.9520 H   0  0  0  0  0  0  0  0  0  0  0  0
    4.3070   -1.8010   -1.3550 H   0  0  0  0  0  0  0  0  0  0  0  0
    5.6650   -3.1590    0.2350 H   0  0  0  0  0  0  0  0  0  0  0  0
    5.0540   -3.4550    1.8590 H   0  0  0  0  0  0  0  0  0  0  0  0
    4.1740   -4.0810    0.4600 H   0  0  0  0  0  0  0  0  0  0  0  0
    5.2810    1.4270    2.3520 H   0  0  0  0  0  0  0  0  0  0  0  0
    5.6240    0.0650   -0.9850 H   0  0  0  0  0  0  0  0  0  0  0  0
    4.7710    0.9570   -2.2430 H   0  0  0  0  0  0  0  0  0  0  0  0
    5.5300    1.8160   -0.9120 H   0  0  0  0  0  0  0  0  0  0  0  0
    3.4460    2.9750    0.0490 H   0  0  0  0  0  0  0  0  0  0  0  0
    2.9750    2.4970   -1.5660 H   0  0  0  0  0  0  0  0  0  0  0  0
    1.3720    1.9700    1.0240 H   0  0  0  0  0  0  0  0  0  0  0  0
    1.0120    3.1410   -0.2280 H   0  0  0  0  0  0  0  0  0  0  0  0
    1.7730    1.7570   -2.6580 H   0  0  0  0  0  0  0  0  0  0  0  0
    0.4730    0.6250   -3.0170 H   0  0  0  0  0  0  0  0  0  0  0  0
    0.1080    2.3040   -2.5790 H   0  0  0  0  0  0  0  0  0  0  0  0
   -0.8010    2.8730    0.5950 H   0  0  0  0  0  0  0  0  0  0  0  0
   -3.1200    2.8190    1.2110 H   0  0  0  0  0  0  0  0  0  0  0  0
   -6.3850    2.3370    1.0370 H   0  0  0  0  0  0  0  0  0  0  0  0
   -5.8380    1.7040    2.5920 H   0  0  0  0  0  0  0  0  0  0  0  0
   -4.8200    2.8380    1.6960 H   0  0  0  0  0  0  0  0  0  0  0  0
   -7.2510   -1.2160    1.0230 H   0  0  0  0  0  0  0  0  0  0  0  0
   -3.3630   -2.1940   -1.1480 H   0  0  0  0  0  0  0  0  0  0  0  0
   -2.3800    1.3190   -2.6060 H   0  0  0  0  0  0  0  0  0  0  0  0
   -1.1860    0.1640   -3.2210 H   0  0  0  0  0  0  0  0  0  0  0  0
   -2.8290   -0.3610   -2.9110 H   0  0  0  0  0  0  0  0  0  0  0  0
   -1.0500   -1.8940   -0.0250 H   0  0  0  0  0  0  0  0  0  0  0  0
   -1.4170   -2.1450   -1.7170 H   0  0  0  0  0  0  0  0  0  0  0  0
    1.0220   -2.3520   -1.2500 H   0  0  0  0  0  0  0  0  0  0  0  0
    0.6800   -1.1360   -2.4650 H   0  0  0  0  0  0  0  0  0  0  0  0
    1.3630   -1.6630    1.1890 H   0  0  0  0  0  0  0  0  0  0  0  0
    1.6060    0.0290    1.6320 H   0  0  0  0  0  0  0  0  0  0  0  0
    0.0080   -0.5400    1.2550 H   0  0  0  0  0  0  0  0  0  0  0  0
  2  1  1  6
  2  3  1  0
  2 34  1  0
  2 12  1  0
  3 37  1  0
  3 36  1  0
  3  4  1  0
  4  6  1  0
  4  7  1  0
  4  5  1  1
  6 38  1  0
  6 40  1  0
  6 39  1  0
  7  9  1  0
  7  8  2  0
  9 12  1  0
  9 11  1  0
  9 10  1  1
 11 41  1  0
 12 13  1  6
 12 14  1  0
 13 43  1  0
 13 42  1  0
 13 44  1  0
 14 46  1  0
 14 15  1  0
 14 45  1  0
 15 16  1  0
 15 48  1  0
 15 47  1  0
 16 17  1  6
 16 34  1  0
 16 18  1  0
 17 50  1  0
 17 49  1  0
 17 51  1  0
 18 30  1  0
 18 19  2  0
 19 52  1  0
 19 20  1  0
 20 21  2  0
 20 53  1  0
 21 29  1  0
 21 22  1  0
 22 24  2  0
 22 23  1  0
 23 54  1  0
 23 56  1  0
 23 55  1  0
 24 26  1  0
 24 25  1  0
 25 57  1  0
 26 28  1  0
 26 27  2  0
 28 58  1  0
 28 29  2  0
 29 30  1  0
 30 31  1  6
 30 32  1  0
 31 60  1  0
 31 61  1  0
 31 59  1  0
 32 63  1  0
 32 33  1  0
 32 62  1  0
 33 65  1  0
 33 64  1  0
 33 34  1  0
 34 35  1  1
 35 66  1  0
 35 68  1  0
 35 67  1  0
M  END
>  <id>  (165) 
265

>  <scaffolds>  (165) 
['C1CCCCC1', 'C=C1CCCC2CCCCC12', 'C1CCC2CCCCC2C1']

>  <name>  (165) 
Tingenine B

>  <formula>  (165) 
C28H36O4

>  <SMILES>  (165) 
[H][C@@]15C[C@@H](C)C(=O)[C@@H](O)[C@]1(C)CC[C@]4(C)C3=CC=c2c(C)c(O)c(=O)cc2[C@]3(C)CC[C@]45C

>  <ChEMBL_id>  (165) 


>  <ZINC_id>  (165) 


>  <PubChem_id>  (165) 


>  <DrugBank_id>  (165) 


>  <CAS_no>  (165) 
50656-68-3

>  <references>  (165) 
[{'journal': {'name': 'Natural Product Research', 'id': 18}, 'title': 'Isolation and identification of poisonous triterpenoids from Elaeodendron croceum', 'year': 2010, 'start_page': 1418, 'volume': 24, 'issue': 15, 'doi': '10.1080/14786410903052399', 'isbn': '', 'despositor': {'code': 'NFA', 'first_name': 'Ngonidzashe', 'last_name': 'Faya', 'id': 21}, 'refauthors_set': [{'author': {'first_name': 'Thembela', 'initials': 'T', 'last_name': 'Yelani', 'id': 549}, 'first_author': True, 'id': 743}, {'author': {'first_name': 'Ahmed', 'initials': 'AA', 'last_name': 'Hussein', 'id': 440}, 'first_author': None, 'id': 1265}, {'author': {'first_name': 'Jacobus', 'initials': 'JM', 'last_name': 'Meyer', 'id': 716}, 'first_author': None, 'id': 1266}], 'id': 266}]

>  <classifications>  (165) 
[{'classification': 'Terpenoid', 'id': 839}, {'classification': 'Triterpene', 'id': 842}, {'classification': 'Organooxygen compounds (Classyfire)', 'id': 954}]

>  <molecular_mass>  (165) 
436.58

$$$$
SANC00266_minRM1.pdb
     RDKit          3D

 29 31  0  0  0  0  0  0  0  0999 V2000
   -0.6330    3.4550   -0.0080 C   0  0  0  0  0  0  0  0  0  0  0  0
    0.0540    2.1400   -0.0130 C   0  0  0  0  0  0  0  0  0  0  0  0
    1.4420    2.0470   -0.0190 C   0  0  0  0  0  0  0  0  0  0  0  0
    2.0460    0.7910   -0.0130 C   0  0  0  0  0  0  0  0  0  0  0  0
    3.5120    0.4980   -0.0160 C   0  0  0  0  0  0  0  0  0  0  0  0
    3.6150   -1.0400   -0.0070 C   0  0  0  0  0  0  0  0  0  0  0  0
    2.1870   -1.5510    0.0020 C   0  0  0  0  0  0  0  0  0  0  0  0
    1.8440   -2.7180    0.0120 O   0  0  0  0  0  0  0  0  0  0  0  0
    1.3110   -0.3880   -0.0020 C   0  0  0  0  0  0  0  0  0  0  0  0
   -0.0740   -0.3020    0.0030 C   0  0  0  0  0  0  0  0  0  0  0  0
   -1.0490   -1.2830    0.0110 N   0  0  0  0  0  0  0  0  0  0  0  0
   -0.8780   -2.2770    0.0150 H   0  0  0  0  0  0  0  0  0  0  0  0
   -2.3040   -0.6380    0.0130 C   0  0  0  0  0  0  0  0  0  0  0  0
   -3.5560   -1.4440    0.0200 C   0  0  0  0  0  0  0  0  0  0  0  0
   -4.6150   -0.5280    0.0100 O   0  0  0  0  0  0  0  0  0  0  0  0
   -2.1260    0.7280    0.0060 C   0  0  0  0  0  0  0  0  0  0  0  0
   -0.7110    0.9740   -0.0010 C   0  0  0  0  0  0  0  0  0  0  0  0
   -1.0930    3.6530    0.9740 H   0  0  0  0  0  0  0  0  0  0  0  0
    0.0370    4.3010   -0.2240 H   0  0  0  0  0  0  0  0  0  0  0  0
   -1.4440    3.4950   -0.7520 H   0  0  0  0  0  0  0  0  0  0  0  0
    2.0640    2.9440   -0.0280 H   0  0  0  0  0  0  0  0  0  0  0  0
    4.0090    0.9460   -0.8990 H   0  0  0  0  0  0  0  0  0  0  0  0
    4.0130    0.9550    0.8600 H   0  0  0  0  0  0  0  0  0  0  0  0
    4.1630   -1.4300   -0.8860 H   0  0  0  0  0  0  0  0  0  0  0  0
    4.1710   -1.4200    0.8710 H   0  0  0  0  0  0  0  0  0  0  0  0
   -3.5870   -2.1260   -0.8660 H   0  0  0  0  0  0  0  0  0  0  0  0
   -3.5890   -2.1070    0.9190 H   0  0  0  0  0  0  0  0  0  0  0  0
   -5.4280   -1.0420    0.0100 H   0  0  0  0  0  0  0  0  0  0  0  0
   -2.9020    1.4830    0.0070 H   0  0  0  0  0  0  0  0  0  0  0  0
  1 20  1  0
  1 19  1  0
  1  2  1  0
  1 18  1  0
  2  3  2  0
  2 17  1  0
  3 21  1  0
  3  4  1  0
  4  5  1  0
  4  9  2  0
  5 22  1  0
  5  6  1  0
  5 23  1  0
  6 24  1  0
  6  7  1  0
  6 25  1  0
  7  9  1  0
  7  8  2  0
  9 10  1  0
 10 17  2  0
 10 11  1  0
 11 13  1  0
 11 12  1  0
 13 16  2  0
 13 14  1  0
 14 26  1  0
 14 15  1  0
 14 27  1  0
 15 28  1  0
 16 17  1  0
 16 29  1  0
M  END
>  <id>  (166) 
266

>  <scaffolds>  (166) 
['c1ccccc1', 'c1ccc2[nH]ccc2c1', 'O=C1CCc2ccc3cc[nH]c3c21', 'c1cc2ccc3c(c2[nH]1)CCC3', 'O=C1CCc2ccccc21']

>  <name>  (166) 
Dilemmaone B

>  <formula>  (166) 
C13H13NO2

>  <SMILES>  (166) 
Cc2cc1CCC(=O)c1c3[nH]c(CO)cc23

>  <ChEMBL_id>  (166) 


>  <ZINC_id>  (166) 


>  <PubChem_id>  (166) 
10488858

>  <DrugBank_id>  (166) 


>  <CAS_no>  (166) 
205990-56-3

>  <references>  (166) 
[{'journal': {'name': 'Journal of Natural Products', 'id': 5}, 'title': 'Dilemmaones A-C, Unusual Indole Alkaloids from a Mixed Collection of South African Sponges', 'year': 1998, 'start_page': 699, 'volume': 61, 'issue': 5, 'doi': '10.1021/np970580m', 'isbn': '', 'despositor': {'code': 'DLP', 'first_name': 'David', 'last_name': 'Penkler', 'id': 23}, 'refauthors_set': [{'author': {'first_name': 'Denzil', 'initials': 'DR', 'last_name': 'Beukes', 'id': 453}, 'first_author': True, 'id': 758}, {'author': {'first_name': 'Michael', 'initials': 'MT', 'last_name': 'Davies-Coleman', 'id': 449}, 'first_author': False, 'id': 759}, {'author': {'first_name': 'Michelle', 'initials': 'M', 'last_name': 'Kelly-Borges', 'id': 450}, 'first_author': False, 'id': 760}, {'author': {'first_name': 'Mary', 'initials': 'MK', 'last_name': 'Harper', 'id': 551}, 'first_author': False, 'id': 761}, {'author': {'first_name': 'John', 'initials': 'DJ', 'last_name': 'Faulkner', 'id': 529}, 'first_author': False, 'id': 762}], 'id': 270}]

>  <classifications>  (166) 
[{'classification': 'Alkaloid', 'id': 738}, {'classification': 'Dilemmaone', 'id': 769}, {'classification': 'Indole', 'id': 786}, {'classification': 'Indanes (Classyfire)', 'id': 968}]

>  <molecular_mass>  (166) 
215.25

$$$$
SANC00267_minRM1.pdb
     RDKit          3D

 33 35  0  0  0  0  0  0  0  0999 V2000
   -5.8100    0.2610   -0.0270 C   0  0  0  0  0  0  0  0  0  0  0  0
   -4.4610   -0.1210   -0.0300 O   0  0  0  0  0  0  0  0  0  0  0  0
   -3.5770    0.9750    0.0240 C   0  0  0  0  0  0  0  0  0  0  0  0
   -2.2030    0.4000    0.0170 C   0  0  0  0  0  0  0  0  0  0  0  0
   -1.7870   -0.9130    0.0080 C   0  0  0  0  0  0  0  0  0  0  0  0
   -0.3500   -0.9100    0.0010 C   0  0  0  0  0  0  0  0  0  0  0  0
    0.6070   -1.9230   -0.0040 C   0  0  0  0  0  0  0  0  0  0  0  0
    0.2070   -3.3510    0.0030 C   0  0  0  0  0  0  0  0  0  0  0  0
    1.9550   -1.5570   -0.0370 C   0  0  0  0  0  0  0  0  0  0  0  0
    2.9650   -2.4700    0.0090 O   0  0  0  0  0  0  0  0  0  0  0  0
    2.3410   -0.2120   -0.0290 C   0  0  0  0  0  0  0  0  0  0  0  0
    3.7260    0.3420   -0.0350 C   0  0  0  0  0  0  0  0  0  0  0  0
    3.5390    1.8730   -0.0130 C   0  0  0  0  0  0  0  0  0  0  0  0
    2.0420    2.1100    0.0090 C   0  0  0  0  0  0  0  0  0  0  0  0
    1.4840    3.1900    0.0300 O   0  0  0  0  0  0  0  0  0  0  0  0
    1.3950    0.8020   -0.0020 C   0  0  0  0  0  0  0  0  0  0  0  0
    0.0500    0.4610    0.0070 C   0  0  0  0  0  0  0  0  0  0  0  0
   -1.0840    1.2560    0.0170 N   0  0  0  0  0  0  0  0  0  0  0  0
   -1.0900    2.2640    0.0270 H   0  0  0  0  0  0  0  0  0  0  0  0
   -6.1080    0.8030    0.8870 H   0  0  0  0  0  0  0  0  0  0  0  0
   -6.0930    0.8740   -0.9000 H   0  0  0  0  0  0  0  0  0  0  0  0
   -6.3630   -0.6900   -0.0680 H   0  0  0  0  0  0  0  0  0  0  0  0
   -3.7230    1.6630   -0.8440 H   0  0  0  0  0  0  0  0  0  0  0  0
   -3.7400    1.5930    0.9410 H   0  0  0  0  0  0  0  0  0  0  0  0
   -2.4260   -1.7870    0.0020 H   0  0  0  0  0  0  0  0  0  0  0  0
    0.3010   -3.7970   -1.0000 H   0  0  0  0  0  0  0  0  0  0  0  0
    0.8230   -3.9540    0.6880 H   0  0  0  0  0  0  0  0  0  0  0  0
   -0.8350   -3.5030    0.3190 H   0  0  0  0  0  0  0  0  0  0  0  0
    2.7710   -3.1370   -0.6600 H   0  0  0  0  0  0  0  0  0  0  0  0
    4.3060   -0.0250    0.8360 H   0  0  0  0  0  0  0  0  0  0  0  0
    4.2940   -0.0030   -0.9210 H   0  0  0  0  0  0  0  0  0  0  0  0
    4.0200    2.3420    0.8670 H   0  0  0  0  0  0  0  0  0  0  0  0
    3.9990    2.3660   -0.8900 H   0  0  0  0  0  0  0  0  0  0  0  0
  1 21  1  0
  1 22  1  0
  1  2  1  0
  1 20  1  0
  2  3  1  0
  3 23  1  0
  3  4  1  0
  3 24  1  0
  4  5  2  0
  4 18  1  0
  5  6  1  0
  5 25  1  0
  6  7  2  0
  6 17  1  0
  7  9  1  0
  7  8  1  0
  8 26  1  0
  8 28  1  0
  8 27  1  0
  9 11  2  0
  9 10  1  0
 10 29  1  0
 11 12  1  0
 11 16  1  0
 12 31  1  0
 12 13  1  0
 12 30  1  0
 13 33  1  0
 13 14  1  0
 13 32  1  0
 14 16  1  0
 14 15  2  0
 16 17  2  0
 17 18  1  0
 18 19  1  0
M  END
>  <id>  (167) 
267

>  <scaffolds>  (167) 
['c1ccccc1', 'c1ccc2[nH]ccc2c1', 'O=C1CCc2ccc3cc[nH]c3c21', 'c1cc2ccc3c(c2[nH]1)CCC3', 'O=C1CCc2ccccc21']

>  <name>  (167) 
Dilemmaone C

>  <formula>  (167) 
C14H15NO3

>  <SMILES>  (167) 
COCc3cc2c(C)c(O)c1CCC(=O)c1c2[nH]3

>  <ChEMBL_id>  (167) 


>  <ZINC_id>  (167) 


>  <PubChem_id>  (167) 
10490575

>  <DrugBank_id>  (167) 


>  <CAS_no>  (167) 
205990-57-4

>  <references>  (167) 
[{'journal': {'name': 'Journal of Natural Products', 'id': 5}, 'title': 'Dilemmaones A-C, Unusual Indole Alkaloids from a Mixed Collection of South African Sponges', 'year': 1998, 'start_page': 699, 'volume': 61, 'issue': 5, 'doi': '10.1021/np970580m', 'isbn': '', 'despositor': {'code': 'DLP', 'first_name': 'David', 'last_name': 'Penkler', 'id': 23}, 'refauthors_set': [{'author': {'first_name': 'Denzil', 'initials': 'DR', 'last_name': 'Beukes', 'id': 453}, 'first_author': True, 'id': 758}, {'author': {'first_name': 'Michael', 'initials': 'MT', 'last_name': 'Davies-Coleman', 'id': 449}, 'first_author': False, 'id': 759}, {'author': {'first_name': 'Michelle', 'initials': 'M', 'last_name': 'Kelly-Borges', 'id': 450}, 'first_author': False, 'id': 760}, {'author': {'first_name': 'Mary', 'initials': 'MK', 'last_name': 'Harper', 'id': 551}, 'first_author': False, 'id': 761}, {'author': {'first_name': 'John', 'initials': 'DJ', 'last_name': 'Faulkner', 'id': 529}, 'first_author': False, 'id': 762}], 'id': 270}]

>  <classifications>  (167) 
[{'classification': 'Alkaloid', 'id': 738}, {'classification': 'Dilemmaone', 'id': 769}, {'classification': 'Indole', 'id': 786}, {'classification': 'Indanes (Classyfire)', 'id': 968}]

>  <molecular_mass>  (167) 
245.27

$$$$
SANC00268_minRM1.pdb
     RDKit          3D

 42 44  0  0  1  0  0  0  0  0999 V2000
    5.9390    2.0330    0.9550 C   0  0  0  0  0  0  0  0  0  0  0  0
    5.7940    0.6860    0.5850 O   0  0  0  0  0  0  0  0  0  0  0  0
    4.5290    0.1780    0.5450 C   0  0  0  0  0  0  0  0  0  0  0  0
    3.3730    0.8630    0.9050 C   0  0  0  0  0  0  0  0  0  0  0  0
    2.1520    0.2010    0.8310 C   0  0  0  0  0  0  0  0  0  0  0  0
    2.0840   -1.1180    0.4010 C   0  0  0  0  0  0  0  0  0  0  0  0
    0.7700   -1.8200    0.3420 C   0  0  0  0  0  0  0  0  0  0  0  0
    0.1340   -1.6380   -1.0410 C   0  0  1  0  0  0  0  0  0  0  0  0
   -1.2270   -2.3350   -1.1130 C   0  0  0  0  0  0  0  0  0  0  0  0
   -2.1480   -1.8120   -0.1770 O   0  0  0  0  0  0  0  0  0  0  0  0
   -2.2860   -0.4640   -0.1930 C   0  0  0  0  0  0  0  0  0  0  0  0
   -3.4300    0.0590    0.4000 C   0  0  0  0  0  0  0  0  0  0  0  0
   -4.4300   -0.7520    0.8610 O   0  0  0  0  0  0  0  0  0  0  0  0
   -4.1350   -1.3000    2.1270 C   0  0  0  0  0  0  0  0  0  0  0  0
   -3.6210    1.4550    0.4130 C   0  0  0  0  0  0  0  0  0  0  0  0
   -4.7060    2.0400    0.9500 O   0  0  0  0  0  0  0  0  0  0  0  0
   -2.6880    2.3210   -0.1550 C   0  0  0  0  0  0  0  0  0  0  0  0
   -1.5390    1.7710   -0.7320 C   0  0  0  0  0  0  0  0  0  0  0  0
   -0.6710    2.6400   -1.2620 O   0  0  0  0  0  0  0  0  0  0  0  0
   -1.3120    0.3820   -0.7360 C   0  0  0  0  0  0  0  0  0  0  0  0
   -0.0830   -0.1660   -1.2760 C   0  0  0  0  0  0  0  0  0  0  0  0
    0.7210    0.5480   -1.8660 O   0  0  0  0  0  0  0  0  0  0  0  0
    3.2500   -1.7870    0.0270 C   0  0  0  0  0  0  0  0  0  0  0  0
    4.4770   -1.1520    0.1020 C   0  0  0  0  0  0  0  0  0  0  0  0
    5.6240    2.2300    1.9930 H   0  0  0  0  0  0  0  0  0  0  0  0
    7.0250    2.2040    0.8750 H   0  0  0  0  0  0  0  0  0  0  0  0
    5.4230    2.7340    0.2800 H   0  0  0  0  0  0  0  0  0  0  0  0
    3.3860    1.9020    1.2390 H   0  0  0  0  0  0  0  0  0  0  0  0
    1.2400    0.7330    1.1220 H   0  0  0  0  0  0  0  0  0  0  0  0
    0.8880   -2.9040    0.5610 H   0  0  0  0  0  0  0  0  0  0  0  0
    0.0870   -1.4560    1.1400 H   0  0  0  0  0  0  0  0  0  0  0  0
    0.8110   -2.0650   -1.8240 H   0  0  0  0  0  0  0  0  0  0  0  0
   -1.6520   -2.2810   -2.1400 H   0  0  0  0  0  0  0  0  0  0  0  0
   -1.1740   -3.4080   -0.8340 H   0  0  0  0  0  0  0  0  0  0  0  0
   -3.2400   -1.9380    2.1330 H   0  0  0  0  0  0  0  0  0  0  0  0
   -4.0120   -0.5310    2.9060 H   0  0  0  0  0  0  0  0  0  0  0  0
   -5.0130   -1.9160    2.3680 H   0  0  0  0  0  0  0  0  0  0  0  0
   -5.3120    1.3730    1.2950 H   0  0  0  0  0  0  0  0  0  0  0  0
   -2.8510    3.4030   -0.1550 H   0  0  0  0  0  0  0  0  0  0  0  0
    0.0670    2.1650   -1.7080 H   0  0  0  0  0  0  0  0  0  0  0  0
    3.2020   -2.8220   -0.3280 H   0  0  0  0  0  0  0  0  0  0  0  0
    5.3950   -1.6760   -0.1780 H   0  0  0  0  0  0  0  0  0  0  0  0
  1 27  1  0
  1  2  1  0
  1 26  1  0
  1 25  1  0
  2  3  1  0
  3 24  2  0
  3  4  1  0
  4  5  2  0
  4 28  1  0
  5  6  1  0
  5 29  1  0
  6 23  2  0
  6  7  1  0
  7  8  1  0
  7 30  1  0
  7 31  1  0
  8 32  1  6
  8 21  1  0
  8  9  1  0
  9 33  1  0
  9 34  1  0
  9 10  1  0
 10 11  1  0
 11 20  2  0
 11 12  1  0
 12 15  2  0
 12 13  1  0
 13 14  1  0
 14 35  1  0
 14 37  1  0
 14 36  1  0
 15 17  1  0
 15 16  1  0
 16 38  1  0
 17 18  2  0
 17 39  1  0
 18 19  1  0
 18 20  1  0
 19 40  1  0
 20 21  1  0
 21 22  2  0
 23 41  1  0
 23 24  1  0
 24 42  1  0
M  END
>  <id>  (168) 
268

>  <scaffolds>  (168) 
['c1ccccc1', 'O=C1c2ccccc2OCC1Cc1ccccc1', 'O=C(CCc1ccccc1)c1ccccc1']

>  <name>  (168) 
4'-O-Methyl-3,9-dihydropunctatin

>  <formula>  (168) 
C18H18O6

>  <SMILES>  (168) 
COc3ccc(CC2COc1c(OC)c(O)cc(O)c1C2=O)cc3

>  <ChEMBL_id>  (168) 


>  <ZINC_id>  (168) 


>  <PubChem_id>  (168) 


>  <DrugBank_id>  (168) 


>  <CAS_no>  (168) 
27245-80-3

>  <references>  (168) 
[{'journal': {'name': 'Phytochemistry: Advances in Research (Book)', 'id': 13}, 'title': 'Chapter 3: The phytochemistry and ethnobotany of the southern African genus Eucomis (Hyacinthaceae: Hyacinthoideae)', 'year': 2006, 'start_page': 69, 'volume': None, 'issue': None, 'doi': '', 'isbn': '81-308-0034-9', 'despositor': {'code': 'rah', 'first_name': 'Rowan', 'last_name': 'Hatherley', 'id': 20}, 'refauthors_set': [{'author': {'first_name': 'Chantal', 'initials': 'C', 'last_name': 'Koorbanally', 'id': 523}, 'first_author': True, 'id': 851}, {'author': {'first_name': 'Neil', 'initials': 'NR', 'last_name': 'Crouch', 'id': 524}, 'first_author': False, 'id': 852}, {'author': {'first_name': 'Dulcie', 'initials': 'DA', 'last_name': 'Mulholland', 'id': 525}, 'first_author': False, 'id': 853}], 'id': 259}, {'journal': {'name': 'Experientia', 'id': 14}, 'title': "The homo-isoflavones III. isolation and structure of punctatin, 3,9-dihydro-punctatin, 4'-O-methyl-3,9-dihydro-punctatin, 4'-demethyl-eucomin and 4'-demethyl-5-O-methyl-3,9-dihydro-eucomin", 'year': 1970, 'start_page': 472, 'volume': 26, 'issue': 5, 'doi': '10.1007/BF01898447', 'isbn': '1420-9071', 'despositor': {'code': 'rah', 'first_name': 'Rowan', 'last_name': 'Hatherley', 'id': 20}, 'refauthors_set': [{'author': {'first_name': 'Christoph', 'initials': 'C', 'last_name': 'Tamm', 'id': 543}, 'first_author': False, 'id': 730}, {'author': {'first_name': '', 'initials': 'RE', 'last_name': 'Finckh', 'id': 545}, 'first_author': True, 'id': 731}], 'id': 263}]

>  <classifications>  (168) 
[{'classification': 'Flavonoids', 'id': 776}, {'classification': 'Homoisoflavonoid', 'id': 783}, {'classification': 'Homoisoflavonoids (Classyfire)', 'id': 964}]

>  <molecular_mass>  (168) 
330.33

$$$$
SANC00269_minRM1.pdb
     RDKit          3D

 38 40  0  0  1  0  0  0  0  0999 V2000
   -1.4260    2.8160    0.6190 O   0  0  0  0  0  0  0  0  0  0  0  0
   -1.1230    2.0330   -0.2650 C   0  0  0  0  0  0  0  0  0  0  0  0
   -0.7360    2.4800   -1.4740 O   0  0  0  0  0  0  0  0  0  0  0  0
   -1.1260    0.5690   -0.1970 C   0  0  0  0  0  0  0  0  0  0  0  0
   -2.2070   -0.2810   -0.0300 C   0  0  0  0  0  0  0  0  0  0  0  0
   -3.6290    0.0190    0.0530 C   0  0  0  0  0  0  0  0  0  0  0  0
   -4.1330    1.1020   -0.2440 O   0  0  0  0  0  0  0  0  0  0  0  0
   -4.4340   -1.0430    0.4530 N   0  0  0  0  0  0  0  0  0  0  0  0
   -3.8710   -2.3040    0.9350 C   0  0  0  0  0  0  0  0  0  0  0  0
   -2.6380   -2.7510    0.1280 C   0  0  0  0  0  0  0  0  0  0  0  0
   -1.7160   -1.6130   -0.0050 C   0  0  0  0  0  0  0  0  0  0  0  0
   -0.3390   -1.5660   -0.1600 C   0  0  0  0  0  0  0  0  0  0  0  0
    0.0190   -0.2180   -0.2900 N   0  0  0  0  0  0  0  0  0  0  0  0
    1.3650    0.3500   -0.4550 C   0  0  2  0  0  0  0  0  0  0  0  0
    1.3550    1.0740   -1.3250 H   0  0  0  0  0  0  0  0  0  0  0  0
    2.2370   -0.7120   -0.7510 O   0  0  0  0  0  0  0  0  0  0  0  0
    3.5090   -0.4600   -0.1990 C   0  0  2  0  0  0  0  0  0  0  0  0
    4.1440    0.0160   -0.9930 H   0  0  0  0  0  0  0  0  0  0  0  0
    4.0860   -1.8320    0.2080 C   0  0  0  0  0  0  0  0  0  0  0  0
    4.5140   -2.4470   -0.9710 O   0  0  0  0  0  0  0  0  0  0  0  0
    3.3160    0.4780    1.0220 C   0  0  1  0  0  0  0  0  0  0  0  0
    3.4470   -0.0710    1.9890 H   0  0  0  0  0  0  0  0  0  0  0  0
    4.1430    1.5880    0.9580 O   0  0  0  0  0  0  0  0  0  0  0  0
    1.8620    1.0010    0.8810 C   0  0  1  0  0  0  0  0  0  0  0  0
    1.2480    0.6780    1.7660 H   0  0  0  0  0  0  0  0  0  0  0  0
    1.7650    2.3680    0.6710 O   0  0  0  0  0  0  0  0  0  0  0  0
   -0.7880    3.4450   -1.5250 H   0  0  0  0  0  0  0  0  0  0  0  0
   -5.4380   -0.9080    0.5190 H   0  0  0  0  0  0  0  0  0  0  0  0
   -3.5970   -2.2160    2.0150 H   0  0  0  0  0  0  0  0  0  0  0  0
   -4.6560   -3.0950    0.9040 H   0  0  0  0  0  0  0  0  0  0  0  0
   -2.1570   -3.6210    0.6190 H   0  0  0  0  0  0  0  0  0  0  0  0
   -2.9330   -3.1120   -0.8810 H   0  0  0  0  0  0  0  0  0  0  0  0
    0.3840   -2.3740   -0.2020 H   0  0  0  0  0  0  0  0  0  0  0  0
    4.9710   -1.6920    0.8740 H   0  0  0  0  0  0  0  0  0  0  0  0
    3.3440   -2.4250    0.7910 H   0  0  0  0  0  0  0  0  0  0  0  0
    4.1620   -3.3400   -0.9850 H   0  0  0  0  0  0  0  0  0  0  0  0
    5.0510    1.2760    0.9960 H   0  0  0  0  0  0  0  0  0  0  0  0
    2.1280    2.8320    1.4350 H   0  0  0  0  0  0  0  0  0  0  0  0
  1  2  2  0
  2  3  1  0
  2  4  1  0
  3 27  1  0
  4 13  1  0
  4  5  2  0
  5 11  1  0
  5  6  1  0
  6  7  2  0
  6  8  1  0
  8 28  1  0
  8  9  1  0
  9 10  1  0
  9 30  1  0
  9 29  1  0
 10 32  1  0
 10 11  1  0
 10 31  1  0
 11 12  2  0
 12 13  1  0
 12 33  1  0
 13 14  1  0
 14 15  1  6
 14 16  1  0
 14 24  1  0
 16 17  1  0
 17 18  1  6
 17 19  1  0
 17 21  1  0
 19 20  1  0
 19 35  1  0
 19 34  1  0
 20 36  1  0
 21 24  1  0
 21 23  1  0
 21 22  1  1
 23 37  1  0
 24 26  1  0
 24 25  1  1
 26 38  1  0
M  END
>  <id>  (169) 
269

>  <scaffolds>  (169) 
['O=C1NCCc2cn(C3CCCO3)cc21']

>  <name>  (169) 
N-1-[beta]-ribofuranosylmakaluvic acid C

>  <formula>  (169) 
C13H16N2O7

>  <SMILES>  (169) 
O=C(O)c2c1C(=O)NCCc1cn2[C@@H]3O[C@H](CO)[C@@H](O)[C@H]3O

>  <ChEMBL_id>  (169) 


>  <ZINC_id>  (169) 


>  <PubChem_id>  (169) 


>  <DrugBank_id>  (169) 


>  <CAS_no>  (169) 
851539-18-9

>  <references>  (169) 
[{'journal': {'name': 'Journal of Natural Products', 'id': 5}, 'title': 'Makaluvic Acids from the South African Latrunculid Sponge Strongylodesma aliwaliensis', 'year': 2005, 'start_page': 506, 'volume': 68, 'issue': 4, 'doi': '10.1021/np049589w', 'isbn': '', 'despositor': {'code': 'TMM', 'first_name': 'Thommas', 'last_name': 'Musyoka', 'id': 22}, 'refauthors_set': [{'author': {'first_name': '', 'initials': 'RA', 'last_name': 'Keyzers', 'id': 546}, 'first_author': True, 'id': 753}, {'author': {'first_name': 'Catherine', 'initials': 'CE', 'last_name': 'Arendse', 'id': 505}, 'first_author': False, 'id': 754}, {'author': {'first_name': '', 'initials': 'TH', 'last_name': 'Denver', 'id': 539}, 'first_author': False, 'id': 755}, {'author': {'first_name': 'Toufiek', 'initials': 'T', 'last_name': 'Samaai', 'id': 517}, 'first_author': False, 'id': 756}, {'author': {'first_name': 'Michael', 'initials': 'MT', 'last_name': 'Davies-Coleman', 'id': 449}, 'first_author': False, 'id': 757}], 'id': 269}]

>  <classifications>  (169) 
[{'classification': 'Pyrroloquinoline', 'id': 821}, {'classification': 'Riboside', 'id': 824}, {'classification': 'Organooxygen compounds (Classyfire)', 'id': 954}]

>  <molecular_mass>  (169) 
312.27

$$$$
SANC00270_minRM1.pdb
     RDKit          3D

 26 25  0  0  1  0  0  0  0  0999 V2000
    2.9500   -1.7020   -1.0500 C   0  0  0  0  0  0  0  0  0  0  0  0
    1.8030   -0.8710   -0.5380 C   0  0  2  0  0  0  0  0  0  0  0  0
    1.7860    0.7200   -1.5130 Cl  0  0  0  0  0  0  0  0  0  0  0  0
    1.9170   -0.5320    0.8980 C   0  0  0  0  0  0  0  0  0  0  0  0
    2.8190    0.2650    1.4440 C   0  0  0  0  0  0  0  0  0  0  0  0
    4.2090    1.1840    0.4520 Br  0  0  0  0  0  0  0  0  0  0  0  0
    0.4500   -1.4460   -0.9170 C   0  0  1  0  0  0  0  0  0  0  0  0
    0.4110   -1.7710   -1.9810 H   0  0  0  0  0  0  0  0  0  0  0  0
    0.3110   -3.0270    0.0770 Cl  0  0  0  0  0  0  0  0  0  0  0  0
   -0.7000   -0.6110   -0.5080 C   0  0  0  0  0  0  0  0  0  0  0  0
   -1.9280   -0.8770   -0.9620 C   0  0  0  0  0  0  0  0  0  0  0  0
   -3.0830   -0.0700   -0.5790 C   0  0  0  0  0  0  0  0  0  0  0  0
   -3.9520    0.3330   -1.5100 C   0  0  0  0  0  0  0  0  0  0  0  0
   -5.3210    1.2770   -1.0690 Cl  0  0  0  0  0  0  0  0  0  0  0  0
   -3.2590    0.2720    0.8440 C   0  0  1  0  0  0  0  0  0  0  0  0
   -2.5990   -1.0570    1.8750 Cl  0  0  0  0  0  0  0  0  0  0  0  0
   -2.2400    1.7420    1.1970 Cl  0  0  0  0  0  0  0  0  0  0  0  0
    3.9270   -1.2530   -0.8130 H   0  0  0  0  0  0  0  0  0  0  0  0
    2.9340   -2.7100   -0.6050 H   0  0  0  0  0  0  0  0  0  0  0  0
    2.9210   -1.8220   -2.1430 H   0  0  0  0  0  0  0  0  0  0  0  0
    1.1830   -1.0290    1.5560 H   0  0  0  0  0  0  0  0  0  0  0  0
    2.9030    0.5100    2.4990 H   0  0  0  0  0  0  0  0  0  0  0  0
   -0.4980    0.2300    0.1730 H   0  0  0  0  0  0  0  0  0  0  0  0
   -2.1390   -1.7160   -1.6360 H   0  0  0  0  0  0  0  0  0  0  0  0
   -3.8820    0.1180   -2.5760 H   0  0  0  0  0  0  0  0  0  0  0  0
   -4.2970    0.4920    1.1750 H   0  0  0  0  0  0  0  0  0  0  0  0
  1 20  1  0
  1 18  1  0
  1 19  1  0
  1  2  1  0
  2  3  1  6
  2  7  1  0
  2  4  1  0
  4  5  2  0
  4 21  1  0
  5  6  1  0
  5 22  1  0
  7  8  1  6
  7 10  1  0
  7  9  1  0
 10 11  2  0
 10 23  1  0
 11 24  1  0
 11 12  1  0
 12 13  2  0
 12 15  1  0
 13 25  1  0
 13 14  1  0
 15 26  1  6
 15 17  1  0
 15 16  1  0
M  END
>  <id>  (170) 
270

>  <scaffolds>  (170) 
[]

>  <name>  (170) 
1,3,7-Octatriene, 8-bromo-1,5,6-trichloro-2-(dichloromethyl)-6-methyl-, (1Z,3E,5R,6S,7E)

>  <formula>  (170) 
C10H10BrCl5

>  <SMILES>  (170) 
C[C@](Cl)(/C=C\Br)[C@@H](Cl)/C=C/C(=C/Cl)C(Cl)Cl

>  <ChEMBL_id>  (170) 


>  <ZINC_id>  (170) 


>  <PubChem_id>  (170) 


>  <DrugBank_id>  (170) 


>  <CAS_no>  (170) 
1309658-69-2

>  <references>  (170) 
[{'journal': {'name': 'Phytochemistry', 'id': 10}, 'title': 'Identification and in vitro anti-esophageal cancer activity of a series of halogenated monoterpenes isolated from the South African seaweeds Plocamium suhrii and Plocamium cornutum', 'year': 2011, 'start_page': 769, 'volume': 72, 'issue': None, 'doi': '10.1016/j.phytochem.2011.02.003', 'isbn': '', 'despositor': {'code': 'DLP', 'first_name': 'David', 'last_name': 'Penkler', 'id': 23}, 'refauthors_set': [{'author': {'first_name': 'Edith ', 'initials': 'EM', 'last_name': 'Antunes', 'id': 447}, 'first_author': True, 'id': 763}, {'author': {'first_name': 'Anthonia ', 'initials': 'AF', 'last_name': 'Afolayan', 'id': 548}, 'first_author': False, 'id': 764}, {'author': {'first_name': 'Maynard', 'initials': 'MT', 'last_name': 'Chiwakata', 'id': 552}, 'first_author': False, 'id': 765}, {'author': {'first_name': 'Jameel', 'initials': 'J', 'last_name': 'Fakee', 'id': 553}, 'first_author': False, 'id': 766}, {'author': {'first_name': 'Michael', 'initials': 'MG', 'last_name': 'Knott', 'id': 504}, 'first_author': False, 'id': 767}, {'author': {'first_name': 'Catherine', 'initials': 'CE', 'last_name': 'Whibley', 'id': 497}, 'first_author': False, 'id': 768}, {'author': {'first_name': 'Denver', 'initials': 'DT', 'last_name': 'Hendricks', 'id': 498}, 'first_author': False, 'id': 769}, {'author': {'first_name': 'John', 'initials': 'JJ', 'last_name': 'Bolton', 'id': 500}, 'first_author': False, 'id': 770}, {'author': {'first_name': 'Denzil', 'initials': 'DR', 'last_name': 'Beukes', 'id': 453}, 'first_author': False, 'id': 771}], 'id': 271}]

>  <classifications>  (170) 
[{'classification': 'Monoterpene', 'id': 795}, {'classification': 'Terpenoid', 'id': 839}, {'classification': 'Vinyl halides (Classyfire)', 'id': 960}]

>  <molecular_mass>  (170) 
387.36

$$$$
SANC00271_minRM1.pdb
     RDKit          3D

 26 25  0  0  1  0  0  0  0  0999 V2000
   -1.0070    0.9270   -2.2880 C   0  0  0  0  0  0  0  0  0  0  0  0
   -1.6980    0.6780   -0.9680 C   0  0  2  0  0  0  0  0  0  0  0  0
   -1.9380   -1.1680   -0.8760 Cl  0  0  0  0  0  0  0  0  0  0  0  0
   -3.0450    1.2900   -0.8930 C   0  0  0  0  0  0  0  0  0  0  0  0
   -3.9650    1.0690    0.0300 C   0  0  0  0  0  0  0  0  0  0  0  0
   -3.7320   -0.1310    1.5370 Br  0  0  0  0  0  0  0  0  0  0  0  0
   -0.8340    1.0090    0.2310 C   0  0  2  0  0  0  0  0  0  0  0  0
   -1.3230    0.7860    1.2110 H   0  0  0  0  0  0  0  0  0  0  0  0
   -0.7420    2.8810    0.1670 Cl  0  0  0  0  0  0  0  0  0  0  0  0
    0.5210    0.4180    0.1670 C   0  0  0  0  0  0  0  0  0  0  0  0
    1.6320    1.1150    0.4010 C   0  0  0  0  0  0  0  0  0  0  0  0
    2.9570    0.5000    0.4170 C   0  0  0  0  0  0  0  0  0  0  0  0
    3.8740    0.9450    1.2820 C   0  0  0  0  0  0  0  0  0  0  0  0
    5.4480    0.2410    1.3330 Cl  0  0  0  0  0  0  0  0  0  0  0  0
    3.2640   -0.5930   -0.5230 C   0  0  1  0  0  0  0  0  0  0  0  0
    2.5860   -2.1380    0.1520 Cl  0  0  0  0  0  0  0  0  0  0  0  0
    2.4120   -0.3050   -2.1020 Cl  0  0  0  0  0  0  0  0  0  0  0  0
   -1.6390    0.6420   -3.1430 H   0  0  0  0  0  0  0  0  0  0  0  0
   -0.7430    1.9900   -2.4090 H   0  0  0  0  0  0  0  0  0  0  0  0
   -0.0720    0.3500   -2.3830 H   0  0  0  0  0  0  0  0  0  0  0  0
   -3.2800    1.9970   -1.7030 H   0  0  0  0  0  0  0  0  0  0  0  0
   -4.9540    1.5150    0.0740 H   0  0  0  0  0  0  0  0  0  0  0  0
    0.5200   -0.6650   -0.0490 H   0  0  0  0  0  0  0  0  0  0  0  0
    1.6120    2.1960    0.6060 H   0  0  0  0  0  0  0  0  0  0  0  0
    3.7300    1.7530    2.0040 H   0  0  0  0  0  0  0  0  0  0  0  0
    4.3390   -0.7630   -0.7530 H   0  0  0  0  0  0  0  0  0  0  0  0
  1 18  1  0
  1 19  1  0
  1 20  1  0
  1  2  1  0
  2  4  1  0
  2  3  1  1
  2  7  1  0
  4 21  1  0
  4  5  2  0
  5 22  1  0
  5  6  1  0
  7 10  1  0
  7  9  1  0
  7  8  1  1
 10 23  1  0
 10 11  2  0
 11 12  1  0
 11 24  1  0
 12 15  1  0
 12 13  2  0
 13 14  1  0
 13 25  1  0
 15 17  1  0
 15 26  1  6
 15 16  1  0
M  END
>  <id>  (171) 
271

>  <scaffolds>  (171) 
[]

>  <name>  (171) 
1,3,7-Octatriene, 8-bromo-1,5,6-trichloro-2-(dichloromethyl)-6-methyl-, (1Z,3E,5R,6R,7E)

>  <formula>  (171) 
C10H10BrCl5

>  <SMILES>  (171) 
C[C@](Cl)(/C=C\Br)[C@H](Cl)/C=C/C(=C/Cl)C(Cl)Cl

>  <ChEMBL_id>  (171) 


>  <ZINC_id>  (171) 


>  <PubChem_id>  (171) 


>  <DrugBank_id>  (171) 


>  <CAS_no>  (171) 
1309658-70-5

>  <references>  (171) 
[{'journal': {'name': 'Phytochemistry', 'id': 10}, 'title': 'Identification and in vitro anti-esophageal cancer activity of a series of halogenated monoterpenes isolated from the South African seaweeds Plocamium suhrii and Plocamium cornutum', 'year': 2011, 'start_page': 769, 'volume': 72, 'issue': None, 'doi': '10.1016/j.phytochem.2011.02.003', 'isbn': '', 'despositor': {'code': 'DLP', 'first_name': 'David', 'last_name': 'Penkler', 'id': 23}, 'refauthors_set': [{'author': {'first_name': 'Edith ', 'initials': 'EM', 'last_name': 'Antunes', 'id': 447}, 'first_author': True, 'id': 763}, {'author': {'first_name': 'Anthonia ', 'initials': 'AF', 'last_name': 'Afolayan', 'id': 548}, 'first_author': False, 'id': 764}, {'author': {'first_name': 'Maynard', 'initials': 'MT', 'last_name': 'Chiwakata', 'id': 552}, 'first_author': False, 'id': 765}, {'author': {'first_name': 'Jameel', 'initials': 'J', 'last_name': 'Fakee', 'id': 553}, 'first_author': False, 'id': 766}, {'author': {'first_name': 'Michael', 'initials': 'MG', 'last_name': 'Knott', 'id': 504}, 'first_author': False, 'id': 767}, {'author': {'first_name': 'Catherine', 'initials': 'CE', 'last_name': 'Whibley', 'id': 497}, 'first_author': False, 'id': 768}, {'author': {'first_name': 'Denver', 'initials': 'DT', 'last_name': 'Hendricks', 'id': 498}, 'first_author': False, 'id': 769}, {'author': {'first_name': 'John', 'initials': 'JJ', 'last_name': 'Bolton', 'id': 500}, 'first_author': False, 'id': 770}, {'author': {'first_name': 'Denzil', 'initials': 'DR', 'last_name': 'Beukes', 'id': 453}, 'first_author': False, 'id': 771}], 'id': 271}]

>  <classifications>  (171) 
[{'classification': 'Monoterpene', 'id': 795}, {'classification': 'Terpenoid', 'id': 839}, {'classification': 'Vinyl halides (Classyfire)', 'id': 960}]

>  <molecular_mass>  (171) 
387.36

$$$$
SANC00272_minRM1.pdb
     RDKit          3D

 26 25  0  0  1  0  0  0  0  0999 V2000
    2.5030    0.1140    2.9210 C   0  0  0  0  0  0  0  0  0  0  0  0
    2.8160   -0.1040    1.4820 C   0  0  0  0  0  0  0  0  0  0  0  0
    3.8260   -0.8750    1.1060 C   0  0  0  0  0  0  0  0  0  0  0  0
    4.1850   -1.1590   -0.7840 Br  0  0  0  0  0  0  0  0  0  0  0  0
    1.9600    0.5800    0.5170 C   0  0  0  0  0  0  0  0  0  0  0  0
    0.6290    0.4840    0.5750 C   0  0  0  0  0  0  0  0  0  0  0  0
   -0.2190    1.1910   -0.4030 C   0  0  2  0  0  0  0  0  0  0  0  0
    0.2380    1.2870   -1.4140 H   0  0  0  0  0  0  0  0  0  0  0  0
   -0.3400    2.9600    0.2330 Cl  0  0  0  0  0  0  0  0  0  0  0  0
   -1.6580    0.7160   -0.4630 C   0  0  1  0  0  0  0  0  0  0  0  0
   -2.4420    1.3850   -1.5620 C   0  0  0  0  0  0  0  0  0  0  0  0
   -1.4210   -1.0680   -0.9470 Cl  0  0  0  0  0  0  0  0  0  0  0  0
   -2.3500    0.7410    0.8450 C   0  0  0  0  0  0  0  0  0  0  0  0
   -3.4760    0.1190    1.1430 C   0  0  0  0  0  0  0  0  0  0  0  0
   -4.4700   -0.9930   -0.0930 Br  0  0  0  0  0  0  0  0  0  0  0  0
    2.1840    1.1490    3.1180 H   0  0  0  0  0  0  0  0  0  0  0  0
    1.6850   -0.5450    3.2490 H   0  0  0  0  0  0  0  0  0  0  0  0
    3.3590   -0.0850    3.5830 H   0  0  0  0  0  0  0  0  0  0  0  0
    4.5300   -1.4200    1.7220 H   0  0  0  0  0  0  0  0  0  0  0  0
    2.4800    1.1730   -0.2480 H   0  0  0  0  0  0  0  0  0  0  0  0
    0.1230   -0.1240    1.3330 H   0  0  0  0  0  0  0  0  0  0  0  0
   -1.9780    1.2430   -2.5500 H   0  0  0  0  0  0  0  0  0  0  0  0
   -3.4670    0.9910   -1.6420 H   0  0  0  0  0  0  0  0  0  0  0  0
   -2.5190    2.4700   -1.3860 H   0  0  0  0  0  0  0  0  0  0  0  0
   -1.8760    1.3740    1.6150 H   0  0  0  0  0  0  0  0  0  0  0  0
   -3.9870    0.1440    2.1000 H   0  0  0  0  0  0  0  0  0  0  0  0
  1  2  1  0
  1 16  1  0
  1 17  1  0
  1 18  1  0
  2  5  1  0
  2  3  2  0
  3  4  1  0
  3 19  1  0
  5 20  1  0
  5  6  2  0
  6  7  1  0
  6 21  1  0
  7  8  1  6
  7 10  1  0
  7  9  1  0
 10 11  1  0
 10 12  1  6
 10 13  1  0
 11 22  1  0
 11 23  1  0
 11 24  1  0
 13 14  2  0
 13 25  1  0
 14 15  1  0
 14 26  1  0
M  END
>  <id>  (172) 
272

>  <scaffolds>  (172) 
[]

>  <name>  (172) 
1,3,7-Octatriene, 1,8-dibromo-5,6-dichloro-2,6-dimethyl-, (1Z,3E,5R,6R,7E)

>  <formula>  (172) 
C10H12Br2Cl2

>  <SMILES>  (172) 
C/C(=C/Br)/C=C/[C@H](Cl)[C@@](C)(Cl)/C=C\Br

>  <ChEMBL_id>  (172) 


>  <ZINC_id>  (172) 


>  <PubChem_id>  (172) 


>  <DrugBank_id>  (172) 


>  <CAS_no>  (172) 
1309658-71-6

>  <references>  (172) 
[{'journal': {'name': 'Phytochemistry', 'id': 10}, 'title': 'Identification and in vitro anti-esophageal cancer activity of a series of halogenated monoterpenes isolated from the South African seaweeds Plocamium suhrii and Plocamium cornutum', 'year': 2011, 'start_page': 769, 'volume': 72, 'issue': None, 'doi': '10.1016/j.phytochem.2011.02.003', 'isbn': '', 'despositor': {'code': 'DLP', 'first_name': 'David', 'last_name': 'Penkler', 'id': 23}, 'refauthors_set': [{'author': {'first_name': 'Edith ', 'initials': 'EM', 'last_name': 'Antunes', 'id': 447}, 'first_author': True, 'id': 763}, {'author': {'first_name': 'Anthonia ', 'initials': 'AF', 'last_name': 'Afolayan', 'id': 548}, 'first_author': False, 'id': 764}, {'author': {'first_name': 'Maynard', 'initials': 'MT', 'last_name': 'Chiwakata', 'id': 552}, 'first_author': False, 'id': 765}, {'author': {'first_name': 'Jameel', 'initials': 'J', 'last_name': 'Fakee', 'id': 553}, 'first_author': False, 'id': 766}, {'author': {'first_name': 'Michael', 'initials': 'MG', 'last_name': 'Knott', 'id': 504}, 'first_author': False, 'id': 767}, {'author': {'first_name': 'Catherine', 'initials': 'CE', 'last_name': 'Whibley', 'id': 497}, 'first_author': False, 'id': 768}, {'author': {'first_name': 'Denver', 'initials': 'DT', 'last_name': 'Hendricks', 'id': 498}, 'first_author': False, 'id': 769}, {'author': {'first_name': 'John', 'initials': 'JJ', 'last_name': 'Bolton', 'id': 500}, 'first_author': False, 'id': 770}, {'author': {'first_name': 'Denzil', 'initials': 'DR', 'last_name': 'Beukes', 'id': 453}, 'first_author': False, 'id': 771}], 'id': 271}]

>  <classifications>  (172) 
[{'classification': 'Monoterpene', 'id': 795}, {'classification': 'Terpenoid', 'id': 839}, {'classification': 'Vinyl halides (Classyfire)', 'id': 960}]

>  <molecular_mass>  (172) 
362.92

$$$$
SANC00273_minRM1.pdb
     RDKit          3D

 26 25  0  0  1  0  0  0  0  0999 V2000
    2.4650   -2.6000   -1.6100 C   0  0  0  0  0  0  0  0  0  0  0  0
    2.5560   -1.4220   -0.7050 C   0  0  0  0  0  0  0  0  0  0  0  0
    3.7240   -0.9670   -0.2770 C   0  0  0  0  0  0  0  0  0  0  0  0
    3.7850    0.5500    0.9350 Br  0  0  0  0  0  0  0  0  0  0  0  0
    1.2900   -0.8030   -0.3190 C   0  0  0  0  0  0  0  0  0  0  0  0
    0.3370   -1.5050    0.2940 C   0  0  0  0  0  0  0  0  0  0  0  0
   -0.9470   -0.8750    0.6690 C   0  0  2  0  0  0  0  0  0  0  0  0
   -0.8540    0.1870    0.9930 H   0  0  0  0  0  0  0  0  0  0  0  0
   -1.5700   -1.7890    2.1780 Cl  0  0  0  0  0  0  0  0  0  0  0  0
   -2.0460   -1.0970   -0.3470 C   0  0  2  0  0  0  0  0  0  0  0  0
   -2.1460   -2.5250   -0.8300 C   0  0  0  0  0  0  0  0  0  0  0  0
   -1.4880   -0.1200   -1.8380 Cl  0  0  0  0  0  0  0  0  0  0  0  0
   -3.3460   -0.5380    0.0890 C   0  0  0  0  0  0  0  0  0  0  0  0
   -3.6200    0.7300    0.3400 C   0  0  0  0  0  0  0  0  0  0  0  0
   -2.3400    2.1800    0.1910 Br  0  0  0  0  0  0  0  0  0  0  0  0
    2.2000   -3.5050   -1.0440 H   0  0  0  0  0  0  0  0  0  0  0  0
    1.6920   -2.4610   -2.3810 H   0  0  0  0  0  0  0  0  0  0  0  0
    3.4060   -2.8140   -2.1380 H   0  0  0  0  0  0  0  0  0  0  0  0
    4.7180   -1.3310   -0.5020 H   0  0  0  0  0  0  0  0  0  0  0  0
    1.1730    0.2590   -0.5790 H   0  0  0  0  0  0  0  0  0  0  0  0
    0.4530   -2.5600    0.5710 H   0  0  0  0  0  0  0  0  0  0  0  0
   -2.3170   -3.2190    0.0090 H   0  0  0  0  0  0  0  0  0  0  0  0
   -2.9680   -2.6630   -1.5470 H   0  0  0  0  0  0  0  0  0  0  0  0
   -1.2300   -2.8530   -1.3430 H   0  0  0  0  0  0  0  0  0  0  0  0
   -4.1500   -1.2780    0.2200 H   0  0  0  0  0  0  0  0  0  0  0  0
   -4.5780    1.1280    0.6610 H   0  0  0  0  0  0  0  0  0  0  0  0
  1 17  1  0
  1 18  1  0
  1 16  1  0
  1  2  1  0
  2  5  1  0
  2  3  2  0
  3 19  1  0
  3  4  1  0
  5 20  1  0
  5  6  2  0
  6 21  1  0
  6  7  1  0
  7 10  1  0
  7  8  1  1
  7  9  1  0
 10 12  1  6
 10 11  1  0
 10 13  1  0
 11 23  1  0
 11 24  1  0
 11 22  1  0
 13 25  1  0
 13 14  2  0
 14 15  1  0
 14 26  1  0
M  END
>  <id>  (173) 
273

>  <scaffolds>  (173) 
[]

>  <name>  (173) 
1,3,7-Octatriene, 1,8-dibromo-5,6-dichloro-2,6-dimethyl-, (1Z,3E,5R,6S,7E)

>  <formula>  (173) 
C10H12Br2Cl2

>  <SMILES>  (173) 
C/C(=C/Br)/C=C/[C@H](Cl)[C@](C)(Cl)/C=C\Br

>  <ChEMBL_id>  (173) 


>  <ZINC_id>  (173) 


>  <PubChem_id>  (173) 


>  <DrugBank_id>  (173) 


>  <CAS_no>  (173) 
1309658-72-7

>  <references>  (173) 
[{'journal': {'name': 'Phytochemistry', 'id': 10}, 'title': 'Identification and in vitro anti-esophageal cancer activity of a series of halogenated monoterpenes isolated from the South African seaweeds Plocamium suhrii and Plocamium cornutum', 'year': 2011, 'start_page': 769, 'volume': 72, 'issue': None, 'doi': '10.1016/j.phytochem.2011.02.003', 'isbn': '', 'despositor': {'code': 'DLP', 'first_name': 'David', 'last_name': 'Penkler', 'id': 23}, 'refauthors_set': [{'author': {'first_name': 'Edith ', 'initials': 'EM', 'last_name': 'Antunes', 'id': 447}, 'first_author': True, 'id': 763}, {'author': {'first_name': 'Anthonia ', 'initials': 'AF', 'last_name': 'Afolayan', 'id': 548}, 'first_author': False, 'id': 764}, {'author': {'first_name': 'Maynard', 'initials': 'MT', 'last_name': 'Chiwakata', 'id': 552}, 'first_author': False, 'id': 765}, {'author': {'first_name': 'Jameel', 'initials': 'J', 'last_name': 'Fakee', 'id': 553}, 'first_author': False, 'id': 766}, {'author': {'first_name': 'Michael', 'initials': 'MG', 'last_name': 'Knott', 'id': 504}, 'first_author': False, 'id': 767}, {'author': {'first_name': 'Catherine', 'initials': 'CE', 'last_name': 'Whibley', 'id': 497}, 'first_author': False, 'id': 768}, {'author': {'first_name': 'Denver', 'initials': 'DT', 'last_name': 'Hendricks', 'id': 498}, 'first_author': False, 'id': 769}, {'author': {'first_name': 'John', 'initials': 'JJ', 'last_name': 'Bolton', 'id': 500}, 'first_author': False, 'id': 770}, {'author': {'first_name': 'Denzil', 'initials': 'DR', 'last_name': 'Beukes', 'id': 453}, 'first_author': False, 'id': 771}], 'id': 271}]

>  <classifications>  (173) 
[{'classification': 'Monoterpene', 'id': 795}, {'classification': 'Terpenoid', 'id': 839}, {'classification': 'Vinyl halides (Classyfire)', 'id': 960}]

>  <molecular_mass>  (173) 
362.92

$$$$
SANC00274_minRM1.pdb
     RDKit          3D

 26 25  0  0  1  0  0  0  0  0999 V2000
   -1.1090   -2.0490   -1.3900 C   0  0  0  0  0  0  0  0  0  0  0  0
   -1.7400   -0.9640   -0.5530 C   0  0  1  0  0  0  0  0  0  0  0  0
   -1.4690    0.6190   -1.5030 Cl  0  0  0  0  0  0  0  0  0  0  0  0
   -3.2040   -1.1280   -0.3990 C   0  0  0  0  0  0  0  0  0  0  0  0
   -4.0560   -0.2400    0.0820 C   0  0  0  0  0  0  0  0  0  0  0  0
   -3.5560    1.5250    0.7190 Br  0  0  0  0  0  0  0  0  0  0  0  0
   -1.0380   -0.7330    0.7670 C   0  0  1  0  0  0  0  0  0  0  0  0
   -1.4870    0.0950    1.3650 H   0  0  0  0  0  0  0  0  0  0  0  0
   -1.4160   -2.2840    1.7350 Cl  0  0  0  0  0  0  0  0  0  0  0  0
    0.4370   -0.6460    0.6600 C   0  0  0  0  0  0  0  0  0  0  0  0
    1.0240    0.5160    0.3740 C   0  0  0  0  0  0  0  0  0  0  0  0
    2.4780    0.6530    0.3120 C   0  0  0  0  0  0  0  0  0  0  0  0
    3.0720    1.6640    0.9490 C   0  0  0  0  0  0  0  0  0  0  0  0
    4.7830    1.8440    0.8870 Cl  0  0  0  0  0  0  0  0  0  0  0  0
    3.2540   -0.3290   -0.4630 C   0  0  1  0  0  0  0  0  0  0  0  0
    3.5100   -1.7990    0.5760 Cl  0  0  0  0  0  0  0  0  0  0  0  0
    2.2880   -0.8760   -1.8920 Cl  0  0  0  0  0  0  0  0  0  0  0  0
   -0.0540   -1.8320   -1.6260 H   0  0  0  0  0  0  0  0  0  0  0  0
   -1.1310   -3.0200   -0.8680 H   0  0  0  0  0  0  0  0  0  0  0  0
   -1.6220   -2.1770   -2.3540 H   0  0  0  0  0  0  0  0  0  0  0  0
   -3.5980   -2.1040   -0.7210 H   0  0  0  0  0  0  0  0  0  0  0  0
   -5.1290   -0.3680    0.1890 H   0  0  0  0  0  0  0  0  0  0  0  0
    0.9960   -1.5760    0.8410 H   0  0  0  0  0  0  0  0  0  0  0  0
    0.4490    1.4300    0.1700 H   0  0  0  0  0  0  0  0  0  0  0  0
    2.5650    2.4280    1.5410 H   0  0  0  0  0  0  0  0  0  0  0  0
    4.2490    0.0060   -0.8300 H   0  0  0  0  0  0  0  0  0  0  0  0
  1 20  1  0
  1 18  1  0
  1 19  1  0
  1  2  1  0
  2  3  1  6
  2  4  1  0
  2  7  1  0
  4 21  1  0
  4  5  2  0
  5 22  1  0
  5  6  1  0
  7 10  1  0
  7  8  1  1
  7  9  1  0
 10 11  2  0
 10 23  1  0
 11 24  1  0
 11 12  1  0
 12 15  1  0
 12 13  2  0
 13 14  1  0
 13 25  1  0
 15 17  1  0
 15 26  1  6
 15 16  1  0
M  END
>  <id>  (174) 
274

>  <scaffolds>  (174) 
[]

>  <name>  (174) 
1,3,7-Octatriene, 8-bromo-1,5,6-trichloro-2-(dichloromethyl)-6-methyl-, (1Z,3E,5R,6S,7Z)

>  <formula>  (174) 
C10H10BrCl5

>  <SMILES>  (174) 
C[C@@](Cl)(/C=C\Br)[C@@H](Cl)/C=C/C(=C/Cl)C(Cl)Cl

>  <ChEMBL_id>  (174) 


>  <ZINC_id>  (174) 


>  <PubChem_id>  (174) 


>  <DrugBank_id>  (174) 


>  <CAS_no>  (174) 
1310070-62-2

>  <references>  (174) 
[{'journal': {'name': 'Phytochemistry', 'id': 10}, 'title': 'Identification and in vitro anti-esophageal cancer activity of a series of halogenated monoterpenes isolated from the South African seaweeds Plocamium suhrii and Plocamium cornutum', 'year': 2011, 'start_page': 769, 'volume': 72, 'issue': None, 'doi': '10.1016/j.phytochem.2011.02.003', 'isbn': '', 'despositor': {'code': 'DLP', 'first_name': 'David', 'last_name': 'Penkler', 'id': 23}, 'refauthors_set': [{'author': {'first_name': 'Edith ', 'initials': 'EM', 'last_name': 'Antunes', 'id': 447}, 'first_author': True, 'id': 763}, {'author': {'first_name': 'Anthonia ', 'initials': 'AF', 'last_name': 'Afolayan', 'id': 548}, 'first_author': False, 'id': 764}, {'author': {'first_name': 'Maynard', 'initials': 'MT', 'last_name': 'Chiwakata', 'id': 552}, 'first_author': False, 'id': 765}, {'author': {'first_name': 'Jameel', 'initials': 'J', 'last_name': 'Fakee', 'id': 553}, 'first_author': False, 'id': 766}, {'author': {'first_name': 'Michael', 'initials': 'MG', 'last_name': 'Knott', 'id': 504}, 'first_author': False, 'id': 767}, {'author': {'first_name': 'Catherine', 'initials': 'CE', 'last_name': 'Whibley', 'id': 497}, 'first_author': False, 'id': 768}, {'author': {'first_name': 'Denver', 'initials': 'DT', 'last_name': 'Hendricks', 'id': 498}, 'first_author': False, 'id': 769}, {'author': {'first_name': 'John', 'initials': 'JJ', 'last_name': 'Bolton', 'id': 500}, 'first_author': False, 'id': 770}, {'author': {'first_name': 'Denzil', 'initials': 'DR', 'last_name': 'Beukes', 'id': 453}, 'first_author': False, 'id': 771}], 'id': 271}]

>  <classifications>  (174) 
[{'classification': 'Monoterpene', 'id': 795}, {'classification': 'Terpenoid', 'id': 839}, {'classification': 'Vinyl halides (Classyfire)', 'id': 960}]

>  <molecular_mass>  (174) 
387.36

$$$$
SANC00275_minRM1.pdb
     RDKit          3D

 30 29  0  0  1  0  0  0  0  0999 V2000
   -4.6000    0.4120    0.6480 C   0  0  0  0  0  0  0  0  0  0  0  0
   -3.4970   -0.3230    0.5770 C   0  0  0  0  0  0  0  0  0  0  0  0
   -2.2870    0.1500   -0.1380 C   0  0  1  0  0  0  0  0  0  0  0  0
   -2.4580    0.1560   -1.6340 C   0  0  0  0  0  0  0  0  0  0  0  0
   -2.0440    1.9490    0.3590 Cl  0  0  0  0  0  0  0  0  0  0  0  0
   -1.0140   -0.5070    0.3590 C   0  0  1  0  0  0  0  0  0  0  0  0
   -0.9440   -0.4690    1.4690 H   0  0  0  0  0  0  0  0  0  0  0  0
   -1.2600   -2.3030   -0.0620 Cl  0  0  0  0  0  0  0  0  0  0  0  0
    0.2420   -0.0460   -0.3480 C   0  0  0  0  0  0  0  0  0  0  0  0
    1.4970   -0.3820    0.4280 C   0  0  1  0  0  0  0  0  0  0  0  0
    1.8610   -2.1840    0.1510 Cl  0  0  0  0  0  0  0  0  0  0  0  0
    2.7460    0.3150   -0.0730 C   0  0  1  0  0  0  0  0  0  0  0  0
    3.9730   -0.0390    0.7280 C   0  0  0  0  0  0  0  0  0  0  0  0
    2.9570    0.2390   -1.5620 C   0  0  0  0  0  0  0  0  0  0  0  0
    2.4060    2.1210    0.3110 Cl  0  0  0  0  0  0  0  0  0  0  0  0
   -4.6930    1.4110    0.2280 H   0  0  0  0  0  0  0  0  0  0  0  0
   -5.5010    0.0750    1.1530 H   0  0  0  0  0  0  0  0  0  0  0  0
   -3.4340   -1.3250    1.0190 H   0  0  0  0  0  0  0  0  0  0  0  0
   -3.4300    0.5780   -1.9330 H   0  0  0  0  0  0  0  0  0  0  0  0
   -1.6940    0.7540   -2.1500 H   0  0  0  0  0  0  0  0  0  0  0  0
   -2.4110   -0.8680   -2.0410 H   0  0  0  0  0  0  0  0  0  0  0  0
    0.2870   -0.4920   -1.3670 H   0  0  0  0  0  0  0  0  0  0  0  0
    0.1990    1.0640   -0.5000 H   0  0  0  0  0  0  0  0  0  0  0  0
    1.3780   -0.2680    1.5290 H   0  0  0  0  0  0  0  0  0  0  0  0
    4.2640   -1.0900    0.5700 H   0  0  0  0  0  0  0  0  0  0  0  0
    4.8360    0.5850    0.4540 H   0  0  0  0  0  0  0  0  0  0  0  0
    3.8230    0.0970    1.8100 H   0  0  0  0  0  0  0  0  0  0  0  0
    2.1930    0.7910   -2.1290 H   0  0  0  0  0  0  0  0  0  0  0  0
    3.9240    0.6670   -1.8650 H   0  0  0  0  0  0  0  0  0  0  0  0
    2.9410   -0.8060   -1.9120 H   0  0  0  0  0  0  0  0  0  0  0  0
  1 16  1  0
  1  2  2  0
  1 17  1  0
  2  3  1  0
  2 18  1  0
  3  4  1  0
  3  6  1  0
  3  5  1  1
  4 20  1  0
  4 21  1  0
  4 19  1  0
  6  9  1  0
  6  8  1  0
  6  7  1  1
  9 22  1  0
  9 23  1  0
  9 10  1  0
 10 12  1  0
 10 11  1  0
 10 24  1  1
 12 14  1  0
 12 15  1  6
 12 13  1  0
 13 26  1  0
 13 25  1  0
 13 27  1  0
 14 28  1  0
 14 30  1  0
 14 29  1  0
M  END
>  <id>  (175) 
275

>  <scaffolds>  (175) 
[]

>  <name>  (175) 
1-Octene, 3,4,6,7-tetrachloro-3,7-dimethyl-, (3R,4S)

>  <formula>  (175) 
C10H16Cl4

>  <SMILES>  (175) 
C=C[C@@](C)(Cl)[C@@H](Cl)CC(Cl)C(C)(C)Cl

>  <ChEMBL_id>  (175) 


>  <ZINC_id>  (175) 


>  <PubChem_id>  (175) 


>  <DrugBank_id>  (175) 


>  <CAS_no>  (175) 
1310070-64-4

>  <references>  (175) 
[{'journal': {'name': 'Phytochemistry', 'id': 10}, 'title': 'Identification and in vitro anti-esophageal cancer activity of a series of halogenated monoterpenes isolated from the South African seaweeds Plocamium suhrii and Plocamium cornutum', 'year': 2011, 'start_page': 769, 'volume': 72, 'issue': None, 'doi': '10.1016/j.phytochem.2011.02.003', 'isbn': '', 'despositor': {'code': 'DLP', 'first_name': 'David', 'last_name': 'Penkler', 'id': 23}, 'refauthors_set': [{'author': {'first_name': 'Edith ', 'initials': 'EM', 'last_name': 'Antunes', 'id': 447}, 'first_author': True, 'id': 763}, {'author': {'first_name': 'Anthonia ', 'initials': 'AF', 'last_name': 'Afolayan', 'id': 548}, 'first_author': False, 'id': 764}, {'author': {'first_name': 'Maynard', 'initials': 'MT', 'last_name': 'Chiwakata', 'id': 552}, 'first_author': False, 'id': 765}, {'author': {'first_name': 'Jameel', 'initials': 'J', 'last_name': 'Fakee', 'id': 553}, 'first_author': False, 'id': 766}, {'author': {'first_name': 'Michael', 'initials': 'MG', 'last_name': 'Knott', 'id': 504}, 'first_author': False, 'id': 767}, {'author': {'first_name': 'Catherine', 'initials': 'CE', 'last_name': 'Whibley', 'id': 497}, 'first_author': False, 'id': 768}, {'author': {'first_name': 'Denver', 'initials': 'DT', 'last_name': 'Hendricks', 'id': 498}, 'first_author': False, 'id': 769}, {'author': {'first_name': 'John', 'initials': 'JJ', 'last_name': 'Bolton', 'id': 500}, 'first_author': False, 'id': 770}, {'author': {'first_name': 'Denzil', 'initials': 'DR', 'last_name': 'Beukes', 'id': 453}, 'first_author': False, 'id': 771}], 'id': 271}]

>  <classifications>  (175) 
[{'classification': 'Monoterpene', 'id': 795}, {'classification': 'Terpenoid', 'id': 839}, {'classification': 'Organochlorides (Classyfire)', 'id': 959}]

>  <molecular_mass>  (175) 
278.05

$$$$
SANC00276_minRM1.pdb
     RDKit          3D

 26 25  0  0  1  0  0  0  0  0999 V2000
    5.1670   -0.2140    0.0560 C   0  0  0  0  0  0  0  0  0  0  0  0
    4.1130    0.5760   -0.1040 C   0  0  0  0  0  0  0  0  0  0  0  0
    2.7310    0.0770    0.0870 C   0  0  2  0  0  0  0  0  0  0  0  0
    2.4170   -0.2920    1.5110 C   0  0  0  0  0  0  0  0  0  0  0  0
    2.6120   -1.5120   -0.9130 Cl  0  0  0  0  0  0  0  0  0  0  0  0
    1.6800    0.9480   -0.5700 C   0  0  2  0  0  0  0  0  0  0  0  0
    1.9090    1.1710   -1.6380 H   0  0  0  0  0  0  0  0  0  0  0  0
    1.8680    2.6010    0.2980 Cl  0  0  0  0  0  0  0  0  0  0  0  0
    0.2980    0.4450   -0.4100 C   0  0  0  0  0  0  0  0  0  0  0  0
   -0.7280    1.2200   -0.0630 C   0  0  0  0  0  0  0  0  0  0  0  0
   -2.0930    0.7090    0.0140 C   0  0  0  0  0  0  0  0  0  0  0  0
   -3.1050    1.4690   -0.4140 C   0  0  0  0  0  0  0  0  0  0  0  0
   -4.7240    0.8860   -0.3360 Cl  0  0  0  0  0  0  0  0  0  0  0  0
   -2.3290   -0.6360    0.5650 C   0  0  1  0  0  0  0  0  0  0  0  0
   -2.0300   -1.8490   -0.7550 Cl  0  0  0  0  0  0  0  0  0  0  0  0
   -1.1160   -0.9850    1.8650 Cl  0  0  0  0  0  0  0  0  0  0  0  0
    6.1880    0.1360   -0.0660 H   0  0  0  0  0  0  0  0  0  0  0  0
    5.1040   -1.2710    0.3020 H   0  0  0  0  0  0  0  0  0  0  0  0
    4.2150    1.6360   -0.3660 H   0  0  0  0  0  0  0  0  0  0  0  0
    2.3820    0.6070    2.1490 H   0  0  0  0  0  0  0  0  0  0  0  0
    1.4450   -0.8020    1.6120 H   0  0  0  0  0  0  0  0  0  0  0  0
    3.1720   -0.9680    1.9390 H   0  0  0  0  0  0  0  0  0  0  0  0
    0.1820   -0.6270   -0.6480 H   0  0  0  0  0  0  0  0  0  0  0  0
   -0.6080    2.2850    0.1820 H   0  0  0  0  0  0  0  0  0  0  0  0
   -3.0130    2.4740   -0.8300 H   0  0  0  0  0  0  0  0  0  0  0  0
   -3.3400   -0.8300    0.9850 H   0  0  0  0  0  0  0  0  0  0  0  0
  1  2  2  0
  1 17  1  0
  1 18  1  0
  2 19  1  0
  2  3  1  0
  3  5  1  6
  3  6  1  0
  3  4  1  0
  4 21  1  0
  4 22  1  0
  4 20  1  0
  6  7  1  6
  6  9  1  0
  6  8  1  0
  9 23  1  0
  9 10  2  0
 10 11  1  0
 10 24  1  0
 11 12  2  0
 11 14  1  0
 12 25  1  0
 12 13  1  0
 14 15  1  0
 14 26  1  1
 14 16  1  0
M  END
>  <id>  (176) 
276

>  <scaffolds>  (176) 
[]

>  <name>  (176) 
1,3,7-Octatriene, 1,5,6-trichloro-2-(dichloromethyl)-6-methyl-, [R*,S*-(Z,E)]

>  <formula>  (176) 
C10H11Cl5

>  <SMILES>  (176) 
C=C[C@](C)(Cl)[C@H](Cl)/C=C/C(=C/Cl)C(Cl)Cl

>  <ChEMBL_id>  (176) 


>  <ZINC_id>  (176) 


>  <PubChem_id>  (176) 


>  <DrugBank_id>  (176) 


>  <CAS_no>  (176) 
93752-46-6

>  <references>  (176) 
[{'journal': {'name': 'Phytochemistry', 'id': 10}, 'title': 'Identification and in vitro anti-esophageal cancer activity of a series of halogenated monoterpenes isolated from the South African seaweeds Plocamium suhrii and Plocamium cornutum', 'year': 2011, 'start_page': 769, 'volume': 72, 'issue': None, 'doi': '10.1016/j.phytochem.2011.02.003', 'isbn': '', 'despositor': {'code': 'DLP', 'first_name': 'David', 'last_name': 'Penkler', 'id': 23}, 'refauthors_set': [{'author': {'first_name': 'Edith ', 'initials': 'EM', 'last_name': 'Antunes', 'id': 447}, 'first_author': True, 'id': 763}, {'author': {'first_name': 'Anthonia ', 'initials': 'AF', 'last_name': 'Afolayan', 'id': 548}, 'first_author': False, 'id': 764}, {'author': {'first_name': 'Maynard', 'initials': 'MT', 'last_name': 'Chiwakata', 'id': 552}, 'first_author': False, 'id': 765}, {'author': {'first_name': 'Jameel', 'initials': 'J', 'last_name': 'Fakee', 'id': 553}, 'first_author': False, 'id': 766}, {'author': {'first_name': 'Michael', 'initials': 'MG', 'last_name': 'Knott', 'id': 504}, 'first_author': False, 'id': 767}, {'author': {'first_name': 'Catherine', 'initials': 'CE', 'last_name': 'Whibley', 'id': 497}, 'first_author': False, 'id': 768}, {'author': {'first_name': 'Denver', 'initials': 'DT', 'last_name': 'Hendricks', 'id': 498}, 'first_author': False, 'id': 769}, {'author': {'first_name': 'John', 'initials': 'JJ', 'last_name': 'Bolton', 'id': 500}, 'first_author': False, 'id': 770}, {'author': {'first_name': 'Denzil', 'initials': 'DR', 'last_name': 'Beukes', 'id': 453}, 'first_author': False, 'id': 771}], 'id': 271}]

>  <classifications>  (176) 
[{'classification': 'Monoterpene', 'id': 795}, {'classification': 'Terpenoid', 'id': 839}, {'classification': 'Vinyl halides (Classyfire)', 'id': 960}]

>  <molecular_mass>  (176) 
308.46

$$$$
SANC00277_minRM1.pdb
     RDKit          3D

 26 25  0  0  1  0  0  0  0  0999 V2000
   -5.0250   -1.0150    0.1740 C   0  0  0  0  0  0  0  0  0  0  0  0
   -3.7380   -1.2640   -0.0330 C   0  0  0  0  0  0  0  0  0  0  0  0
   -2.7120   -0.2020    0.0910 C   0  0  2  0  0  0  0  0  0  0  0  0
   -2.5100    0.2650    1.5060 C   0  0  0  0  0  0  0  0  0  0  0  0
   -3.3870    1.2870   -0.8520 Cl  0  0  0  0  0  0  0  0  0  0  0  0
   -1.4230   -0.5140   -0.6450 C   0  0  2  0  0  0  0  0  0  0  0  0
   -1.5880   -0.8540   -1.6920 H   0  0  0  0  0  0  0  0  0  0  0  0
   -0.7880   -2.0280    0.2550 Cl  0  0  0  0  0  0  0  0  0  0  0  0
   -0.4260    0.5750   -0.5710 C   0  0  0  0  0  0  0  0  0  0  0  0
    0.8450    0.3990   -0.2120 C   0  0  0  0  0  0  0  0  0  0  0  0
    1.7830    1.5190   -0.1710 C   0  0  0  0  0  0  0  0  0  0  0  0
    1.2700    2.8170    0.3510 C   0  0  0  0  0  0  0  0  0  0  0  0
    3.0470    1.4070   -0.5600 C   0  0  0  0  0  0  0  0  0  0  0  0
    3.7320   -0.2730   -1.2630 Br  0  0  0  0  0  0  0  0  0  0  0  0
   -5.4270   -0.0300    0.4180 H   0  0  0  0  0  0  0  0  0  0  0  0
   -5.7900   -1.7820    0.1000 H   0  0  0  0  0  0  0  0  0  0  0  0
   -3.3690   -2.2670   -0.2790 H   0  0  0  0  0  0  0  0  0  0  0  0
   -2.0930   -0.5400    2.1340 H   0  0  0  0  0  0  0  0  0  0  0  0
   -1.8200    1.1200    1.5770 H   0  0  0  0  0  0  0  0  0  0  0  0
   -3.4540    0.5840    1.9700 H   0  0  0  0  0  0  0  0  0  0  0  0
   -0.8240    1.5540   -0.8780 H   0  0  0  0  0  0  0  0  0  0  0  0
    1.2500   -0.5830    0.0770 H   0  0  0  0  0  0  0  0  0  0  0  0
    0.4260    2.6800    1.0460 H   0  0  0  0  0  0  0  0  0  0  0  0
    2.0330    3.3890    0.8950 H   0  0  0  0  0  0  0  0  0  0  0  0
    0.9080    3.4550   -0.4660 H   0  0  0  0  0  0  0  0  0  0  0  0
    3.8210    2.1620   -0.5500 H   0  0  0  0  0  0  0  0  0  0  0  0
  1  2  2  0
  1 16  1  0
  1 15  1  0
  2 17  1  0
  2  3  1  0
  3  5  1  6
  3  6  1  0
  3  4  1  0
  4 19  1  0
  4 20  1  0
  4 18  1  0
  6  7  1  6
  6  9  1  0
  6  8  1  0
  9 21  1  0
  9 10  2  0
 10 11  1  0
 10 22  1  0
 11 13  2  0
 11 12  1  0
 12 25  1  0
 12 24  1  0
 12 23  1  0
 13 14  1  0
 13 26  1  0
M  END
>  <id>  (177) 
277

>  <scaffolds>  (177) 
[]

>  <name>  (177) 
1,3,7-Octatriene, 1-bromo-5,6-dichloro-2,6-dimethyl-, (1Z,3E,5R,6S)

>  <formula>  (177) 
C10H13BrCl2

>  <SMILES>  (177) 
C=C[C@](C)(Cl)[C@H](Cl)/C=C/C(C)=C\Br

>  <ChEMBL_id>  (177) 


>  <ZINC_id>  (177) 


>  <PubChem_id>  (177) 


>  <DrugBank_id>  (177) 


>  <CAS_no>  (177) 
1162677-88-4

>  <references>  (177) 
[{'journal': {'name': 'Phytochemistry', 'id': 10}, 'title': 'Antiplasmodial halogenated monoterpenes from the marine red alga Plocamium cornutum', 'year': 2009, 'start_page': 597, 'volume': 70, 'issue': None, 'doi': '10.1016/j.phytochem.2009.02.010', 'isbn': '', 'despositor': {'code': 'DLP', 'first_name': 'David', 'last_name': 'Penkler', 'id': 23}, 'refauthors_set': [{'author': {'first_name': 'Anthonia ', 'initials': 'AF', 'last_name': 'Afolayan', 'id': 548}, 'first_author': True, 'id': 744}, {'author': {'first_name': 'Maryssa ', 'initials': 'MGA', 'last_name': 'Manna', 'id': 550}, 'first_author': False, 'id': 745}, {'author': {'first_name': 'Carmen', 'initials': 'CA', 'last_name': 'Lategan', 'id': 488}, 'first_author': False, 'id': 746}, {'author': {'first_name': 'Peter', 'initials': 'PJ', 'last_name': 'Smith', 'id': 490}, 'first_author': False, 'id': 747}, {'author': {'first_name': 'John', 'initials': 'JJ', 'last_name': 'Bolton', 'id': 500}, 'first_author': False, 'id': 748}, {'author': {'first_name': 'Denzil', 'initials': 'DR', 'last_name': 'Beukes', 'id': 453}, 'first_author': False, 'id': 749}], 'id': 267}]

>  <classifications>  (177) 
[{'classification': 'Monoterpene', 'id': 795}, {'classification': 'Terpenoid', 'id': 839}, {'classification': 'Vinyl halides (Classyfire)', 'id': 960}]

>  <molecular_mass>  (177) 
284.02

$$$$
SANC00279_minRM1.pdb
     RDKit          3D

 82 87  0  0  1  0  0  0  0  0999 V2000
    1.6860    2.2430    0.6150 H   0  0  0  0  0  0  0  0  0  0  0  0
    0.8390    1.7160    0.1010 C   0  0  1  0  0  0  0  0  0  0  0  0
   -0.1700    2.7730   -0.3470 C   0  0  0  0  0  0  0  0  0  0  0  0
   -1.4360    2.1450   -0.9150 C   0  0  0  0  0  0  0  0  0  0  0  0
   -2.0740    1.2120    0.1130 C   0  0  2  0  0  0  0  0  0  0  0  0
   -2.3150    1.8130    1.0350 H   0  0  0  0  0  0  0  0  0  0  0  0
   -1.0780    0.1220    0.5020 C   0  0  2  0  0  0  0  0  0  0  0  0
   -0.7910   -0.4580   -0.4110 H   0  0  0  0  0  0  0  0  0  0  0  0
   -1.7540   -0.8310    1.4850 C   0  0  0  0  0  0  0  0  0  0  0  0
   -2.9310   -1.5040    0.8000 C   0  0  0  0  0  0  0  0  0  0  0  0
   -4.0210   -0.4770    0.4500 C   0  0  2  0  0  0  0  0  0  0  0  0
   -4.6370    0.0240    1.7460 C   0  0  0  0  0  0  0  0  0  0  0  0
   -5.0380   -1.1840   -0.4810 C   0  0  1  0  0  0  0  0  0  0  0  0
   -4.9900   -2.2920   -0.3090 H   0  0  0  0  0  0  0  0  0  0  0  0
   -6.4550   -0.8030   -0.2770 C   0  0  0  0  0  0  0  0  0  0  0  0
   -7.4760   -1.6390   -0.0260 C   0  0  0  0  0  0  0  0  0  0  0  0
   -8.7120   -0.8340    0.0470 C   0  0  0  0  0  0  0  0  0  0  0  0
   -9.8680   -1.1200    0.2560 O   0  0  0  0  0  0  0  0  0  0  0  0
   -8.4040    0.4880   -0.1800 O   0  0  0  0  0  0  0  0  0  0  0  0
   -6.9970    0.6020   -0.3610 C   0  0  0  0  0  0  0  0  0  0  0  0
   -4.5820   -0.8770   -1.9190 C   0  0  0  0  0  0  0  0  0  0  0  0
   -3.3430    0.0150   -1.8270 C   0  0  0  0  0  0  0  0  0  0  0  0
   -3.4080    0.6490   -0.4250 C   0  0  2  0  0  0  0  0  0  0  0  0
   -4.3510    1.6830   -0.4550 O   0  0  0  0  0  0  0  0  0  0  0  0
    0.1990    0.7420    1.1020 C   0  0  2  0  0  0  0  0  0  0  0  0
   -0.1260    1.4940    2.4000 C   0  0  0  0  0  0  0  0  0  0  0  0
    1.2140   -0.3530    1.4630 C   0  0  0  0  0  0  0  0  0  0  0  0
    1.7860   -1.0650    0.2490 C   0  0  0  0  0  0  0  0  0  0  0  0
    2.4330   -0.0800   -0.7250 C   0  0  2  0  0  0  0  0  0  0  0  0
    2.7700   -0.6300   -1.6450 H   0  0  0  0  0  0  0  0  0  0  0  0
    3.5000    0.5630   -0.0570 O   0  0  0  0  0  0  0  0  0  0  0  0
    4.7800    0.3040   -0.5480 C   0  0  2  0  0  0  0  0  0  0  0  0
    4.8860    0.5320   -1.6470 H   0  0  0  0  0  0  0  0  0  0  0  0
    5.0030   -1.0550   -0.2620 O   0  0  0  0  0  0  0  0  0  0  0  0
    6.2950   -1.4770   -0.6180 C   0  0  2  0  0  0  0  0  0  0  0  0
    6.5030   -1.2990   -1.7070 H   0  0  0  0  0  0  0  0  0  0  0  0
    6.3260   -2.9910   -0.3220 C   0  0  0  0  0  0  0  0  0  0  0  0
    5.5090   -3.6330   -1.2500 O   0  0  0  0  0  0  0  0  0  0  0  0
    7.3300   -0.7320    0.2630 C   0  0  1  0  0  0  0  0  0  0  0  0
    7.1660   -0.9670    1.3490 H   0  0  0  0  0  0  0  0  0  0  0  0
    8.5770   -1.1620   -0.1820 O   0  0  0  0  0  0  0  0  0  0  0  0
    7.1790    0.7890    0.0160 C   0  0  2  0  0  0  0  0  0  0  0  0
    7.4470    1.0400   -1.0470 H   0  0  0  0  0  0  0  0  0  0  0  0
    8.0420    1.3980    0.9260 O   0  0  0  0  0  0  0  0  0  0  0  0
    5.7170    1.1920    0.3170 C   0  0  1  0  0  0  0  0  0  0  0  0
    5.4940    1.0590    1.4110 H   0  0  0  0  0  0  0  0  0  0  0  0
    5.6070    2.5210   -0.0860 O   0  0  0  0  0  0  0  0  0  0  0  0
    1.4260    1.0060   -1.1190 C   0  0  0  0  0  0  0  0  0  0  0  0
   -0.4190    3.4520    0.4950 H   0  0  0  0  0  0  0  0  0  0  0  0
    0.2890    3.4500   -1.1000 H   0  0  0  0  0  0  0  0  0  0  0  0
   -2.1540    2.9420   -1.2140 H   0  0  0  0  0  0  0  0  0  0  0  0
   -1.2120    1.6180   -1.8650 H   0  0  0  0  0  0  0  0  0  0  0  0
   -1.0270   -1.5860    1.8560 H   0  0  0  0  0  0  0  0  0  0  0  0
   -2.1040   -0.3080    2.4010 H   0  0  0  0  0  0  0  0  0  0  0  0
   -2.5900   -2.0580   -0.1010 H   0  0  0  0  0  0  0  0  0  0  0  0
   -3.3520   -2.2960    1.4580 H   0  0  0  0  0  0  0  0  0  0  0  0
   -3.8730    0.4300    2.4280 H   0  0  0  0  0  0  0  0  0  0  0  0
   -5.3800    0.8270    1.6070 H   0  0  0  0  0  0  0  0  0  0  0  0
   -5.1540   -0.7820    2.2870 H   0  0  0  0  0  0  0  0  0  0  0  0
   -7.4820   -2.7150    0.1080 H   0  0  0  0  0  0  0  0  0  0  0  0
   -6.5970    1.2590    0.4470 H   0  0  0  0  0  0  0  0  0  0  0  0
   -6.8100    1.1010   -1.3330 H   0  0  0  0  0  0  0  0  0  0  0  0
   -4.3660   -1.8110   -2.4770 H   0  0  0  0  0  0  0  0  0  0  0  0
   -5.3790   -0.3910   -2.5150 H   0  0  0  0  0  0  0  0  0  0  0  0
   -2.4140   -0.5660   -1.9790 H   0  0  0  0  0  0  0  0  0  0  0  0
   -3.3280    0.7700   -2.6390 H   0  0  0  0  0  0  0  0  0  0  0  0
   -3.9720    2.4220   -0.9440 H   0  0  0  0  0  0  0  0  0  0  0  0
   -0.3290    0.8150    3.2410 H   0  0  0  0  0  0  0  0  0  0  0  0
    0.7010    2.1390    2.7340 H   0  0  0  0  0  0  0  0  0  0  0  0
   -1.0140    2.1420    2.3130 H   0  0  0  0  0  0  0  0  0  0  0  0
    2.0370    0.0820    2.0690 H   0  0  0  0  0  0  0  0  0  0  0  0
    0.7420   -1.1050    2.1380 H   0  0  0  0  0  0  0  0  0  0  0  0
    2.5290   -1.8260    0.5690 H   0  0  0  0  0  0  0  0  0  0  0  0
    1.0020   -1.6470   -0.2800 H   0  0  0  0  0  0  0  0  0  0  0  0
    7.3530   -3.3890   -0.4820 H   0  0  0  0  0  0  0  0  0  0  0  0
    6.0600   -3.2080    0.7340 H   0  0  0  0  0  0  0  0  0  0  0  0
    4.6780   -3.8800   -0.7890 H   0  0  0  0  0  0  0  0  0  0  0  0
    9.2450   -0.7480    0.3740 H   0  0  0  0  0  0  0  0  0  0  0  0
    8.0300    2.3360    0.7460 H   0  0  0  0  0  0  0  0  0  0  0  0
    4.7240    2.8240    0.1560 H   0  0  0  0  0  0  0  0  0  0  0  0
    0.6440    0.5410   -1.7520 H   0  0  0  0  0  0  0  0  0  0  0  0
    1.9130    1.7490   -1.7880 H   0  0  0  0  0  0  0  0  0  0  0  0
  2  1  1  1
  2 48  1  0
  2  3  1  0
  2 25  1  0
  3 50  1  0
  3  4  1  0
  3 49  1  0
  4 52  1  0
  4 51  1  0
  4  5  1  0
  5 23  1  0
  5  7  1  0
  5  6  1  1
  7  8  1  6
  7 25  1  0
  7  9  1  0
  9 10  1  0
  9 53  1  0
  9 54  1  0
 10 55  1  0
 10 11  1  0
 10 56  1  0
 11 13  1  0
 11 23  1  0
 11 12  1  1
 12 58  1  0
 12 59  1  0
 12 57  1  0
 13 21  1  0
 13 14  1  1
 13 15  1  0
 15 20  1  0
 15 16  2  0
 16 17  1  0
 16 60  1  0
 17 19  1  0
 17 18  2  0
 19 20  1  0
 20 62  1  0
 20 61  1  0
 21 64  1  0
 21 63  1  0
 21 22  1  0
 22 66  1  0
 22 65  1  0
 22 23  1  0
 23 24  1  6
 24 67  1  0
 25 27  1  0
 25 26  1  1
 26 70  1  0
 26 69  1  0
 26 68  1  0
 27 28  1  0
 27 71  1  0
 27 72  1  0
 28 29  1  0
 28 74  1  0
 28 73  1  0
 29 30  1  6
 29 48  1  0
 29 31  1  0
 31 32  1  0
 32 33  1  6
 32 34  1  0
 32 45  1  0
 34 35  1  0
 35 36  1  6
 35 37  1  0
 35 39  1  0
 37 38  1  0
 37 75  1  0
 37 76  1  0
 38 77  1  0
 39 41  1  0
 39 42  1  0
 39 40  1  1
 41 78  1  0
 42 43  1  6
 42 45  1  0
 42 44  1  0
 44 79  1  0
 45 47  1  0
 45 46  1  1
 47 80  1  0
 48 82  1  0
 48 81  1  0
M  END
>  <id>  (178) 
279

>  <scaffolds>  (178) 
['C1CCOCC1', 'C1CCC(C2CCCC2)CC1', 'C1CCCCC1', 'C1CCC2C(C1)CCC1C3CCCC3CCC21', 'C1CCC2CCCCC2C1']

>  <name>  (178) 
Digitoxigenin-glucoside

>  <formula>  (178) 
C29H44O9

>  <SMILES>  (178) 
[H][C@]46CC[C@]2([H])[C@]([H])(CC[C@]3(C)[C@@H](C1=CC(=O)OC1)CC[C@]23O)[C@@]4(C)CC[C@H](O[C@]5([H])O[C@H](CO)[C@@H](O)[C@H](O)[C@H]5O)C6

>  <ChEMBL_id>  (178) 


>  <ZINC_id>  (178) 


>  <PubChem_id>  (178) 


>  <DrugBank_id>  (178) 


>  <CAS_no>  (178) 
17059-16-4

>  <references>  (178) 
[{'journal': {'name': 'Natural Product Research', 'id': 18}, 'title': 'A cardiac glucoside with in vitro anti- HIV activity isolated from Elaeodendron croceum', 'year': 2010, 'start_page': 1743, 'volume': 24, 'issue': 18, 'doi': '10.1080/14786410903211912', 'isbn': '', 'despositor': {'code': 'NFA', 'first_name': 'Ngonidzashe', 'last_name': 'Faya', 'id': 21}, 'refauthors_set': [{'author': {'first_name': 'Gerhard', 'initials': 'G', 'last_name': 'Prinsloo', 'id': 555}, 'first_author': True, 'id': 772}, {'author': {'first_name': 'Jacobus', 'initials': 'JM', 'last_name': 'Meyer', 'id': 716}, 'first_author': None, 'id': 1261}, {'author': {'first_name': 'Ahmed', 'initials': 'AA', 'last_name': 'Hussein', 'id': 440}, 'first_author': None, 'id': 1262}, {'author': {'first_name': 'Eduardo', 'initials': 'E', 'last_name': 'Munoz', 'id': 556}, 'first_author': None, 'id': 1263}, {'author': {'first_name': 'Rocio', 'initials': 'R', 'last_name': 'Sanchez', 'id': 557}, 'first_author': None, 'id': 1264}], 'id': 272}]

>  <classifications>  (178) 
[{'classification': 'Cardenolide', 'id': 756}, {'classification': 'Glycoside', 'id': 781}, {'classification': 'Steroids and steroid derivatives (Classyfire)', 'id': 942}]

>  <molecular_mass>  (178) 
536.65

$$$$
SANC00280_minRM1.pdb
     RDKit          3D

 38 42  0  0  1  0  0  0  0  0999 V2000
    3.8730    0.9860   -2.0590 O   0  0  0  0  0  0  0  0  0  0  0  0
    2.9180    0.3500   -1.6590 C   0  0  0  0  0  0  0  0  0  0  0  0
    2.1020   -0.5080   -2.5940 C   0  0  0  0  0  0  0  0  0  0  0  0
    0.6320   -0.5320   -2.1970 C   0  0  0  0  0  0  0  0  0  0  0  0
    0.4480   -0.9800   -0.7360 C   0  0  2  0  0  0  0  0  0  0  0  0
    0.8310   -2.4200   -0.6180 C   0  0  0  0  0  0  0  0  0  0  0  0
   -0.0640   -3.3830   -0.3420 C   0  0  0  0  0  0  0  0  0  0  0  0
   -1.4050   -3.0960   -0.0980 N   0  0  0  0  0  0  0  0  0  0  0  0
   -1.8300   -1.7710   -0.0380 C   0  0  0  0  0  0  0  0  0  0  0  0
   -0.9730   -0.7450   -0.3130 C   0  0  0  0  0  0  0  0  0  0  0  0
   -1.4140    0.6480   -0.1970 C   0  0  0  0  0  0  0  0  0  0  0  0
   -0.6420    1.6830   -0.3010 N   0  0  0  0  0  0  0  0  0  0  0  0
   -1.2180    3.0180   -0.0930 C   0  0  0  0  0  0  0  0  0  0  0  0
   -2.7440    3.2450   -0.2380 C   0  0  0  0  0  0  0  0  0  0  0  0
   -3.4930    2.0300    0.1060 C   0  0  0  0  0  0  0  0  0  0  0  0
   -4.8250    1.7430    0.4210 C   0  0  0  0  0  0  0  0  0  0  0  0
   -4.9510    0.3620    0.5750 N   0  0  0  0  0  0  0  0  0  0  0  0
   -5.7950   -0.1400    0.8100 H   0  0  0  0  0  0  0  0  0  0  0  0
   -3.7100   -0.2200    0.3550 C   0  0  0  0  0  0  0  0  0  0  0  0
   -3.2720   -1.6000    0.3560 C   0  0  0  0  0  0  0  0  0  0  0  0
   -3.9960   -2.5420    0.6440 O   0  0  0  0  0  0  0  0  0  0  0  0
   -2.8180    0.8000    0.0750 C   0  0  0  0  0  0  0  0  0  0  0  0
    1.3650   -0.2220    0.1820 C   0  0  0  0  0  0  0  0  0  0  0  0
    2.4820    0.3340   -0.2620 C   0  0  0  0  0  0  0  0  0  0  0  0
    3.6470    1.2130    1.0200 Br  0  0  0  0  0  0  0  0  0  0  0  0
    2.2110   -0.1490   -3.6400 H   0  0  0  0  0  0  0  0  0  0  0  0
    2.5420   -1.5260   -2.6150 H   0  0  0  0  0  0  0  0  0  0  0  0
    0.1980    0.4740   -2.3670 H   0  0  0  0  0  0  0  0  0  0  0  0
    0.0590   -1.1960   -2.8730 H   0  0  0  0  0  0  0  0  0  0  0  0
    1.8760   -2.6700   -0.7760 H   0  0  0  0  0  0  0  0  0  0  0  0
    0.2110   -4.4460   -0.2830 H   0  0  0  0  0  0  0  0  0  0  0  0
   -2.0520   -3.8540    0.1120 H   0  0  0  0  0  0  0  0  0  0  0  0
   -0.8830    3.3350    0.9220 H   0  0  0  0  0  0  0  0  0  0  0  0
   -0.6730    3.6790   -0.8070 H   0  0  0  0  0  0  0  0  0  0  0  0
   -3.0620    4.1090    0.3750 H   0  0  0  0  0  0  0  0  0  0  0  0
   -2.9940    3.5350   -1.2790 H   0  0  0  0  0  0  0  0  0  0  0  0
   -5.6670    2.4180    0.5390 H   0  0  0  0  0  0  0  0  0  0  0  0
    1.0790   -0.1920    1.2360 H   0  0  0  0  0  0  0  0  0  0  0  0
  1  2  2  0
  2  3  1  0
  2 24  1  0
  3 26  1  0
  3 27  1  0
  3  4  1  0
  4 29  1  0
  4 28  1  0
  4  5  1  0
  5  6  1  6
  5 10  1  0
  5 23  1  0
  6 30  1  0
  6  7  2  0
  7 31  1  0
  7  8  1  0
  8  9  1  0
  8 32  1  0
  9 10  2  0
  9 20  1  0
 10 11  1  0
 11 12  2  0
 11 22  1  0
 12 13  1  0
 13 34  1  0
 13 14  1  0
 13 33  1  0
 14 36  1  0
 14 15  1  0
 14 35  1  0
 15 22  1  0
 15 16  2  0
 16 37  1  0
 16 17  1  0
 17 19  1  0
 17 18  1  0
 19 22  2  0
 19 20  1  0
 20 21  2  0
 23 24  2  0
 23 38  1  0
 24 25  1  0
M  END
>  <id>  (179) 
280

>  <scaffolds>  (179) 
['C1=CCCCC1', 'O=C1C=CCCC1']

>  <name>  (179) 
Discorhabdine G

>  <formula>  (179) 
C18H14BrN3O2

>  <SMILES>  (179) 
O=C5CC[C@@]1(C=CNc2c1c4=NCCc3c[nH]c(c2=O)c34)C=C5Br

>  <ChEMBL_id>  (179) 


>  <ZINC_id>  (179) 


>  <PubChem_id>  (179) 


>  <DrugBank_id>  (179) 


>  <CAS_no>  (179) 
172961-01-2

>  <references>  (179) 
[{'journal': {'name': 'Journal of Natural Products', 'id': 5}, 'title': 'Cytotoxic Pyrroloiminoquinones from Four New Species of South African Latrunculid Sponges', 'year': 2004, 'start_page': 1268, 'volume': 67, 'issue': 8, 'doi': '10.1021/np034084b', 'isbn': '', 'despositor': {'code': 'DLP', 'first_name': 'David', 'last_name': 'Penkler', 'id': 23}, 'refauthors_set': [{'author': {'first_name': 'Edith ', 'initials': 'EM', 'last_name': 'Antunes', 'id': 447}, 'first_author': True, 'id': 681}, {'author': {'first_name': 'Denzil', 'initials': 'DR', 'last_name': 'Beukes', 'id': 453}, 'first_author': False, 'id': 682}, {'author': {'first_name': 'Michelle', 'initials': 'M', 'last_name': 'Kelly', 'id': 516}, 'first_author': False, 'id': 683}, {'author': {'first_name': 'Toufiek', 'initials': 'T', 'last_name': 'Samaai', 'id': 517}, 'first_author': False, 'id': 684}, {'author': {'first_name': 'Louis ', 'initials': 'LR', 'last_name': 'Barrows', 'id': 518}, 'first_author': False, 'id': 685}, {'author': {'first_name': 'Kathryn ', 'initials': 'KM', 'last_name': 'Marshall', 'id': 519}, 'first_author': False, 'id': 686}, {'author': {'first_name': 'Catherine ', 'initials': 'C', 'last_name': 'Sincich', 'id': 520}, 'first_author': False, 'id': 687}, {'author': {'first_name': 'Michael', 'initials': 'MT', 'last_name': 'Davies-Coleman', 'id': 449}, 'first_author': False, 'id': 688}], 'id': 253}]

>  <classifications>  (179) 
[{'classification': 'Alkaloid', 'id': 738}, {'classification': 'Discorhabdin', 'id': 770}, {'classification': 'Pyrroloiminoquinone', 'id': 820}, {'classification': 'Phenanthrolines (Classyfire)', 'id': 946}]

>  <molecular_mass>  (179) 
384.23

$$$$
SANC00281_minRM1.pdb
     RDKit          3D

 69 72  0  0  1  0  0  0  0  0999 V2000
    0.8050    3.3810   -0.4390 C   0  0  0  0  0  0  0  0  0  0  0  0
    0.8690    1.9850    0.1620 C   0  0  2  0  0  0  0  0  0  0  0  0
    0.6480    2.0860    1.2600 H   0  0  0  0  0  0  0  0  0  0  0  0
    2.3090    1.4630    0.0310 C   0  0  0  0  0  0  0  0  0  0  0  0
    2.4300   -0.0130    0.3070 C   0  0  2  0  0  0  0  0  0  0  0  0
    1.2210   -0.9010    0.5350 C   0  0  1  0  0  0  0  0  0  0  0  0
    1.2470   -1.9150    0.0930 H   0  0  0  0  0  0  0  0  0  0  0  0
    2.1960   -0.6290    1.6810 C   0  0  1  0  0  0  0  0  0  0  0  0
    3.0610   -1.7810    2.1180 C   0  0  0  0  0  0  0  0  0  0  0  0
    1.8390    0.2550    2.8390 C   0  0  0  0  0  0  0  0  0  0  0  0
   -0.1490   -0.2650    0.5040 C   0  0  1  0  0  0  0  0  0  0  0  0
   -0.4030    0.0600    1.5470 H   0  0  0  0  0  0  0  0  0  0  0  0
   -0.1200    0.9670   -0.4510 C   0  0  1  0  0  0  0  0  0  0  0  0
   -1.5790    1.4160   -0.6790 C   0  0  2  0  0  0  0  0  0  0  0  0
   -2.0530    0.6460   -1.3580 H   0  0  0  0  0  0  0  0  0  0  0  0
   -1.8490    2.6960   -1.4070 C   0  0  0  0  0  0  0  0  0  0  0  0
   -2.9530    3.3060   -0.9500 C   0  0  0  0  0  0  0  0  0  0  0  0
   -3.5010    2.5700    0.2040 C   0  0  0  0  0  0  0  0  0  0  0  0
   -4.5440    2.7620    0.7870 O   0  0  0  0  0  0  0  0  0  0  0  0
   -2.4460    1.5060    0.6000 C   0  0  1  0  0  0  0  0  0  0  0  0
   -3.0460    0.1610    1.0490 C   0  0  0  0  0  0  0  0  0  0  0  0
   -2.5040   -1.0370    0.3340 C   0  0  0  0  0  0  0  0  0  0  0  0
   -1.2070   -1.2320    0.0770 C   0  0  0  0  0  0  0  0  0  0  0  0
   -3.5770   -2.0090   -0.0650 C   0  0  0  0  0  0  0  0  0  0  0  0
   -2.9630   -3.2570   -0.3380 O   0  0  0  0  0  0  0  0  0  0  0  0
   -3.7670   -4.2720   -0.7450 C   0  0  0  0  0  0  0  0  0  0  0  0
   -4.9690   -4.1070   -0.8520 O   0  0  0  0  0  0  0  0  0  0  0  0
   -2.9850   -5.5180   -1.0120 C   0  0  0  0  0  0  0  0  0  0  0  0
   -1.6790    2.0930    1.6060 O   0  0  0  0  0  0  0  0  0  0  0  0
   -3.6000    4.5270   -1.4540 C   0  0  0  0  0  0  0  0  0  0  0  0
    0.3410    0.4830   -1.6800 O   0  0  0  0  0  0  0  0  0  0  0  0
    3.4000   -0.6130   -0.4990 O   0  0  0  0  0  0  0  0  0  0  0  0
    4.6980   -0.3810   -0.1740 C   0  0  0  0  0  0  0  0  0  0  0  0
    4.9910    0.3230    0.7730 O   0  0  0  0  0  0  0  0  0  0  0  0
    5.6520   -1.0890   -1.1060 C   0  0  1  0  0  0  0  0  0  0  0  0
    6.7260   -0.0990   -1.5400 C   0  0  0  0  0  0  0  0  0  0  0  0
    6.2640   -2.2550   -0.3390 C   0  0  0  0  0  0  0  0  0  0  0  0
   -0.1300    3.9020   -0.1840 H   0  0  0  0  0  0  0  0  0  0  0  0
    1.6100    4.0220   -0.0440 H   0  0  0  0  0  0  0  0  0  0  0  0
    0.9200    3.4010   -1.5310 H   0  0  0  0  0  0  0  0  0  0  0  0
    2.7100    1.6910   -0.9820 H   0  0  0  0  0  0  0  0  0  0  0  0
    2.9790    2.0200    0.7230 H   0  0  0  0  0  0  0  0  0  0  0  0
    3.3360   -2.4620    1.3000 H   0  0  0  0  0  0  0  0  0  0  0  0
    4.0020   -1.4330    2.5680 H   0  0  0  0  0  0  0  0  0  0  0  0
    2.5470   -2.3970    2.8710 H   0  0  0  0  0  0  0  0  0  0  0  0
    1.2040   -0.2740    3.5650 H   0  0  0  0  0  0  0  0  0  0  0  0
    2.7400    0.5900    3.3760 H   0  0  0  0  0  0  0  0  0  0  0  0
    1.3000    1.1740    2.5570 H   0  0  0  0  0  0  0  0  0  0  0  0
   -1.2560    3.0050   -2.2650 H   0  0  0  0  0  0  0  0  0  0  0  0
   -2.8940   -0.0030    2.1400 H   0  0  0  0  0  0  0  0  0  0  0  0
   -4.1530    0.2150    0.9470 H   0  0  0  0  0  0  0  0  0  0  0  0
   -0.8590   -2.1110   -0.4760 H   0  0  0  0  0  0  0  0  0  0  0  0
   -4.3330   -2.1340    0.7460 H   0  0  0  0  0  0  0  0  0  0  0  0
   -4.1250   -1.6290   -0.9590 H   0  0  0  0  0  0  0  0  0  0  0  0
   -2.4130   -5.8360   -0.1280 H   0  0  0  0  0  0  0  0  0  0  0  0
   -3.6440   -6.3500   -1.3000 H   0  0  0  0  0  0  0  0  0  0  0  0
   -2.2640   -5.3660   -1.8280 H   0  0  0  0  0  0  0  0  0  0  0  0
   -2.2520    2.2420    2.3660 H   0  0  0  0  0  0  0  0  0  0  0  0
   -4.6140    4.3150   -1.8290 H   0  0  0  0  0  0  0  0  0  0  0  0
   -3.7080    5.2830   -0.6610 H   0  0  0  0  0  0  0  0  0  0  0  0
   -3.0400    4.9940   -2.2770 H   0  0  0  0  0  0  0  0  0  0  0  0
    0.5890    1.2340   -2.2250 H   0  0  0  0  0  0  0  0  0  0  0  0
    5.1140   -1.4750   -2.0110 H   0  0  0  0  0  0  0  0  0  0  0  0
    7.2900    0.3060   -0.6870 H   0  0  0  0  0  0  0  0  0  0  0  0
    7.4560   -0.5680   -2.2140 H   0  0  0  0  0  0  0  0  0  0  0  0
    6.2990    0.7600   -2.0780 H   0  0  0  0  0  0  0  0  0  0  0  0
    6.7840   -1.9300    0.5740 H   0  0  0  0  0  0  0  0  0  0  0  0
    5.5040   -2.9900   -0.0340 H   0  0  0  0  0  0  0  0  0  0  0  0
    6.9990   -2.7970   -0.9530 H   0  0  0  0  0  0  0  0  0  0  0  0
  1 40  1  0
  1 38  1  0
  1 39  1  0
  1  2  1  0
  2 13  1  0
  2  4  1  0
  2  3  1  1
  4 41  1  0
  4  5  1  0
  4 42  1  0
  5 32  1  6
  5  6  1  0
  5  8  1  0
  6  7  1  6
  6 11  1  0
  6  8  1  0
  8  9  1  1
  8 10  1  0
  9 43  1  0
  9 44  1  0
  9 45  1  0
 10 48  1  0
 10 47  1  0
 10 46  1  0
 11 13  1  0
 11 23  1  0
 11 12  1  1
 13 31  1  6
 13 14  1  0
 14 16  1  0
 14 15  1  6
 14 20  1  0
 16 49  1  0
 16 17  2  0
 17 30  1  0
 17 18  1  0
 18 20  1  0
 18 19  2  0
 20 21  1  0
 20 29  1  1
 21 22  1  0
 21 51  1  0
 21 50  1  0
 22 24  1  0
 22 23  2  0
 23 52  1  0
 24 54  1  0
 24 25  1  0
 24 53  1  0
 25 26  1  0
 26 28  1  0
 26 27  2  0
 28 57  1  0
 28 56  1  0
 28 55  1  0
 29 58  1  0
 30 61  1  0
 30 59  1  0
 30 60  1  0
 31 62  1  0
 32 33  1  0
 33 35  1  0
 33 34  2  0
 35 63  1  6
 35 36  1  0
 35 37  1  0
 36 65  1  0
 36 66  1  0
 36 64  1  0
 37 69  1  0
 37 68  1  0
 37 67  1  0
M  END
>  <id>  (180) 
281

>  <scaffolds>  (180) 
['O=C1C=CC2C1CC=CC1C3CC3CCC21', 'C1CCCCC1']

>  <name>  (180) 
12-deoxyphorbol-13-isobutyrate-20-acetate

>  <formula>  (180) 
C26H36O7

>  <SMILES>  (180) 
C[C@@H]1C[C@@]2([C@@H](C2(C)C)[C@H]3[C@]1([C@@H]4C=C(C(=O)[C@]4(CC(=C3)COC(=O)C)O)C)O)OC(=O)C(C)C

>  <ChEMBL_id>  (180) 
CHEMBL486418

>  <ZINC_id>  (180) 


>  <PubChem_id>  (180) 
 3035003

>  <DrugBank_id>  (180) 


>  <CAS_no>  (180) 
25090-71-5

>  <references>  (180) 
[{'journal': {'name': 'South African Journal of Chemistry', 'id': 19}, 'title': 'Euphorbias of South Africa: two new phorbol esters from Euphorbia bothae', 'year': 2010, 'start_page': 175, 'volume': 63, 'issue': None, 'doi': '', 'isbn': '', 'despositor': {'code': 'TMM', 'first_name': 'Thommas', 'last_name': 'Musyoka', 'id': 22}, 'refauthors_set': [{'author': {'first_name': 'Wendy', 'initials': 'WL', 'last_name': 'Popplewell', 'id': 455}, 'first_author': True, 'id': 773}, {'author': {'first_name': '', 'initials': 'EA', 'last_name': 'Marais', 'id': 554}, 'first_author': False, 'id': 774}, {'author': {'first_name': '', 'initials': 'L', 'last_name': 'Brand', 'id': 558}, 'first_author': False, 'id': 775}, {'author': {'first_name': '', 'initials': 'BH', 'last_name': 'Harvey', 'id': 559}, 'first_author': False, 'id': 776}, {'author': {'first_name': 'Michael', 'initials': 'MT', 'last_name': 'Davies-Coleman', 'id': 449}, 'first_author': False, 'id': 777}], 'id': 273}]

>  <classifications>  (180) 
[{'classification': 'Phorbol', 'id': 807}, {'classification': 'Phenol lipids (Classyfire)', 'id': 951}]

>  <molecular_mass>  (180) 
460.56

$$$$
SANC00282_minRM1.pdb
     RDKit          3D

 72 75  0  0  1  0  0  0  0  0999 V2000
   -7.7470    0.5260   -1.8650 C   0  0  0  0  0  0  0  0  0  0  0  0
   -6.7400   -0.0330   -0.8750 C   0  0  0  0  0  0  0  0  0  0  0  0
   -5.4930    0.8500   -0.7860 C   0  0  1  0  0  0  0  0  0  0  0  0
   -5.8000    2.2140   -0.1820 C   0  0  0  0  0  0  0  0  0  0  0  0
   -4.4860    0.1760    0.1190 C   0  0  0  0  0  0  0  0  0  0  0  0
   -4.7140   -0.5530    1.0650 O   0  0  0  0  0  0  0  0  0  0  0  0
   -3.2120    0.4860   -0.2340 O   0  0  0  0  0  0  0  0  0  0  0  0
   -2.1850   -0.1040    0.5090 C   0  0  1  0  0  0  0  0  0  0  0  0
   -2.0290   -1.5660    0.1830 C   0  0  0  0  0  0  0  0  0  0  0  0
   -0.5680   -2.0420    0.2300 C   0  0  2  0  0  0  0  0  0  0  0  0
   -0.2900   -2.1640    1.3130 H   0  0  0  0  0  0  0  0  0  0  0  0
    0.3560   -0.9750   -0.4010 C   0  0  1  0  0  0  0  0  0  0  0  0
    0.3910    0.2320    0.5860 C   0  0  2  0  0  0  0  0  0  0  0  0
    0.7080   -0.1130    1.6050 H   0  0  0  0  0  0  0  0  0  0  0  0
   -0.9960    0.8190    0.7040 C   0  0  2  0  0  0  0  0  0  0  0  0
   -1.0780    1.8440    0.2950 H   0  0  0  0  0  0  0  0  0  0  0  0
   -1.9030    0.4800    1.8870 C   0  0  1  0  0  0  0  0  0  0  0  0
   -2.7830    1.5880    2.4010 C   0  0  0  0  0  0  0  0  0  0  0  0
   -1.4590   -0.4230    3.0000 C   0  0  0  0  0  0  0  0  0  0  0  0
    1.3930    1.2450    0.1330 C   0  0  0  0  0  0  0  0  0  0  0  0
    2.7070    1.0880    0.3190 C   0  0  0  0  0  0  0  0  0  0  0  0
    3.3230   -0.1090    0.9750 C   0  0  0  0  0  0  0  0  0  0  0  0
    2.7490   -1.4620    0.5170 C   0  0  1  0  0  0  0  0  0  0  0  0
    1.8140   -1.3670   -0.7140 C   0  0  1  0  0  0  0  0  0  0  0  0
    2.2280   -0.5630   -1.3930 H   0  0  0  0  0  0  0  0  0  0  0  0
    2.0900   -2.6160   -1.4910 C   0  0  0  0  0  0  0  0  0  0  0  0
    3.2380   -3.1960   -1.1110 C   0  0  0  0  0  0  0  0  0  0  0  0
    3.8190   -2.4730    0.0350 C   0  0  0  0  0  0  0  0  0  0  0  0
    4.8970   -2.6440    0.5560 O   0  0  0  0  0  0  0  0  0  0  0  0
    3.9000   -4.3760   -1.6890 C   0  0  0  0  0  0  0  0  0  0  0  0
    2.0550   -2.1060    1.5410 O   0  0  0  0  0  0  0  0  0  0  0  0
    3.7290    2.1010   -0.1130 C   0  0  0  0  0  0  0  0  0  0  0  0
    3.0620    3.3260   -0.3570 O   0  0  0  0  0  0  0  0  0  0  0  0
    3.8070    4.3580   -0.8300 C   0  0  0  0  0  0  0  0  0  0  0  0
    5.0040    4.2260   -1.0110 O   0  0  0  0  0  0  0  0  0  0  0  0
    2.9870    5.5840   -1.0590 C   0  0  0  0  0  0  0  0  0  0  0  0
   -0.1820   -0.4750   -1.5920 O   0  0  0  0  0  0  0  0  0  0  0  0
   -0.4870   -3.4180   -0.4110 C   0  0  0  0  0  0  0  0  0  0  0  0
   -8.2180    1.4550   -1.5140 H   0  0  0  0  0  0  0  0  0  0  0  0
   -7.3030    0.7420   -2.8460 H   0  0  0  0  0  0  0  0  0  0  0  0
   -8.5700   -0.1830   -2.0420 H   0  0  0  0  0  0  0  0  0  0  0  0
   -7.2050   -0.1550    0.1260 H   0  0  0  0  0  0  0  0  0  0  0  0
   -6.4460   -1.0620   -1.1730 H   0  0  0  0  0  0  0  0  0  0  0  0
   -5.0550    0.9830   -1.8090 H   0  0  0  0  0  0  0  0  0  0  0  0
   -6.4750    2.8020   -0.8200 H   0  0  0  0  0  0  0  0  0  0  0  0
   -6.2780    2.1370    0.8050 H   0  0  0  0  0  0  0  0  0  0  0  0
   -4.8920    2.8210   -0.0570 H   0  0  0  0  0  0  0  0  0  0  0  0
   -2.6460   -2.1660    0.8870 H   0  0  0  0  0  0  0  0  0  0  0  0
   -2.4670   -1.7790   -0.8170 H   0  0  0  0  0  0  0  0  0  0  0  0
   -3.1220    2.2820    1.6190 H   0  0  0  0  0  0  0  0  0  0  0  0
   -3.6880    1.1930    2.8880 H   0  0  0  0  0  0  0  0  0  0  0  0
   -2.2520    2.1990    3.1460 H   0  0  0  0  0  0  0  0  0  0  0  0
   -0.8000    0.1090    3.7060 H   0  0  0  0  0  0  0  0  0  0  0  0
   -2.3170   -0.8000    3.5730 H   0  0  0  0  0  0  0  0  0  0  0  0
   -0.9060   -1.3130    2.6670 H   0  0  0  0  0  0  0  0  0  0  0  0
    0.9880    2.1250   -0.3790 H   0  0  0  0  0  0  0  0  0  0  0  0
    4.4250   -0.1210    0.8230 H   0  0  0  0  0  0  0  0  0  0  0  0
    3.2160    0.0220    2.0760 H   0  0  0  0  0  0  0  0  0  0  0  0
    1.4630   -2.9220   -2.3250 H   0  0  0  0  0  0  0  0  0  0  0  0
    4.8900   -4.1160   -2.0970 H   0  0  0  0  0  0  0  0  0  0  0  0
    4.0680   -5.1530   -0.9290 H   0  0  0  0  0  0  0  0  0  0  0  0
    3.3190   -4.8350   -2.5000 H   0  0  0  0  0  0  0  0  0  0  0  0
    2.6730   -2.2560    2.2660 H   0  0  0  0  0  0  0  0  0  0  0  0
    4.5090    2.2510    0.6710 H   0  0  0  0  0  0  0  0  0  0  0  0
    4.2570    1.7420   -1.0280 H   0  0  0  0  0  0  0  0  0  0  0  0
    1.9150    5.3770   -1.1930 H   0  0  0  0  0  0  0  0  0  0  0  0
    3.0820    6.2690   -0.2050 H   0  0  0  0  0  0  0  0  0  0  0  0
    3.3340    6.1220   -1.9530 H   0  0  0  0  0  0  0  0  0  0  0  0
   -0.4320   -1.2200   -2.1440 H   0  0  0  0  0  0  0  0  0  0  0  0
   -0.6480   -3.4130   -1.4980 H   0  0  0  0  0  0  0  0  0  0  0  0
    0.4740   -3.9150   -0.2130 H   0  0  0  0  0  0  0  0  0  0  0  0
   -1.2530   -4.0950   -0.0010 H   0  0  0  0  0  0  0  0  0  0  0  0
  1 40  1  0
  1 41  1  0
  1 39  1  0
  1  2  1  0
  2 43  1  0
  2  3  1  0
  2 42  1  0
  3 44  1  6
  3  4  1  0
  3  5  1  0
  4 45  1  0
  4 47  1  0
  4 46  1  0
  5  7  1  0
  5  6  2  0
  8  7  1  6
  8  9  1  0
  8 15  1  0
  8 17  1  0
  9 49  1  0
  9 10  1  0
  9 48  1  0
 10 38  1  0
 10 12  1  0
 10 11  1  1
 12 37  1  6
 12 24  1  0
 12 13  1  0
 13 20  1  0
 13 15  1  0
 13 14  1  1
 15 16  1  6
 15 17  1  0
 17 18  1  1
 17 19  1  0
 18 50  1  0
 18 51  1  0
 18 52  1  0
 19 55  1  0
 19 54  1  0
 19 53  1  0
 20 56  1  0
 20 21  2  0
 21 32  1  0
 21 22  1  0
 22 23  1  0
 22 57  1  0
 22 58  1  0
 23 24  1  0
 23 28  1  0
 23 31  1  1
 24 26  1  0
 24 25  1  6
 26 59  1  0
 26 27  2  0
 27 30  1  0
 27 28  1  0
 28 29  2  0
 30 62  1  0
 30 60  1  0
 30 61  1  0
 31 63  1  0
 32 65  1  0
 32 33  1  0
 32 64  1  0
 33 34  1  0
 34 36  1  0
 34 35  2  0
 36 68  1  0
 36 66  1  0
 36 67  1  0
 37 69  1  0
 38 70  1  0
 38 71  1  0
 38 72  1  0
M  END
>  <id>  (181) 
282

>  <scaffolds>  (181) 
['O=C1C=CC2C1CC=CC1C3CC3CCC21', 'C1CCCCC1']

>  <name>  (181) 
12-deoxyphorbol-13-(2-methylbutyrate)-20-acetate

>  <formula>  (181) 
C27H38O7

>  <SMILES>  (181) 
CCC(C)C(=O)O[C@@]12C[C@H]([C@]3([C@H]([C@@H]1C2(C)C)C=C(C[C@]4([C@H]3C=C(C4=O)C)O)COC(=O)C)O)C

>  <ChEMBL_id>  (181) 
CHEMBL520853

>  <ZINC_id>  (181) 


>  <PubChem_id>  (181) 
 198036

>  <DrugBank_id>  (181) 


>  <CAS_no>  (181) 
25090-73-7

>  <references>  (181) 
[{'journal': {'name': 'South African Journal of Chemistry', 'id': 19}, 'title': 'Euphorbias of South Africa: two new phorbol esters from Euphorbia bothae', 'year': 2010, 'start_page': 175, 'volume': 63, 'issue': None, 'doi': '', 'isbn': '', 'despositor': {'code': 'TMM', 'first_name': 'Thommas', 'last_name': 'Musyoka', 'id': 22}, 'refauthors_set': [{'author': {'first_name': 'Wendy', 'initials': 'WL', 'last_name': 'Popplewell', 'id': 455}, 'first_author': True, 'id': 773}, {'author': {'first_name': '', 'initials': 'EA', 'last_name': 'Marais', 'id': 554}, 'first_author': False, 'id': 774}, {'author': {'first_name': '', 'initials': 'L', 'last_name': 'Brand', 'id': 558}, 'first_author': False, 'id': 775}, {'author': {'first_name': '', 'initials': 'BH', 'last_name': 'Harvey', 'id': 559}, 'first_author': False, 'id': 776}, {'author': {'first_name': 'Michael', 'initials': 'MT', 'last_name': 'Davies-Coleman', 'id': 449}, 'first_author': False, 'id': 777}], 'id': 273}]

>  <classifications>  (181) 
[{'classification': 'Phorbol', 'id': 807}, {'classification': 'Phenol lipids (Classyfire)', 'id': 951}]

>  <molecular_mass>  (181) 
474.58

$$$$
SANC00283_minRM1.pdb
     RDKit          3D

 82 85  0  0  1  0  0  0  0  0999 V2000
    0.7170   -0.2550   -1.2140 H   0  0  0  0  0  0  0  0  0  0  0  0
    0.7570    0.0040   -0.1240 C   0  0  2  0  0  0  0  0  0  0  0  0
    1.2960   -1.1910    0.5980 C   0  0  0  0  0  0  0  0  0  0  0  0
    2.3260   -1.9040    0.1330 C   0  0  0  0  0  0  0  0  0  0  0  0
    2.8920   -3.1070    0.8310 C   0  0  0  0  0  0  0  0  0  0  0  0
    2.0450   -3.4400    1.9150 O   0  0  0  0  0  0  0  0  0  0  0  0
    2.4260   -4.4720    2.7110 C   0  0  0  0  0  0  0  0  0  0  0  0
    1.4570   -4.6940    3.8250 C   0  0  0  0  0  0  0  0  0  0  0  0
    3.4490   -5.0890    2.4780 O   0  0  0  0  0  0  0  0  0  0  0  0
    3.0370   -1.6000   -1.1500 C   0  0  0  0  0  0  0  0  0  0  0  0
    3.3850   -0.1140   -1.3500 C   0  0  2  0  0  0  0  0  0  0  0  0
    2.6780    0.4480   -2.4120 O   0  0  0  0  0  0  0  0  0  0  0  0
    4.8810    0.1530   -1.6540 C   0  0  0  0  0  0  0  0  0  0  0  0
    5.5750   -0.5290   -2.3710 O   0  0  0  0  0  0  0  0  0  0  0  0
    5.2420    1.4010   -0.9570 C   0  0  0  0  0  0  0  0  0  0  0  0
    6.5270    2.0830   -1.1830 C   0  0  0  0  0  0  0  0  0  0  0  0
    4.2510    1.7740   -0.1330 C   0  0  0  0  0  0  0  0  0  0  0  0
    3.1470    0.7630   -0.0960 C   0  0  1  0  0  0  0  0  0  0  0  0
    3.4170    0.1430    0.8100 H   0  0  0  0  0  0  0  0  0  0  0  0
    1.6920    1.2320    0.1060 C   0  0  2  0  0  0  0  0  0  0  0  0
    1.5610    1.5540    1.4620 O   0  0  0  0  0  0  0  0  0  0  0  0
    1.1600    2.3730   -0.7900 C   0  0  2  0  0  0  0  0  0  0  0  0
    0.9510    1.9600   -1.8150 H   0  0  0  0  0  0  0  0  0  0  0  0
    2.1080    3.5480   -0.9670 C   0  0  0  0  0  0  0  0  0  0  0  0
   -0.1690    2.9010   -0.2240 C   0  0  0  0  0  0  0  0  0  0  0  0
   -1.0780    1.8040    0.2650 C   0  0  1  0  0  0  0  0  0  0  0  0
   -1.8160    2.1940    1.3840 O   0  0  0  0  0  0  0  0  0  0  0  0
   -2.8170    3.0930    1.1850 C   0  0  0  0  0  0  0  0  0  0  0  0
   -3.0680    3.5090    0.0700 O   0  0  0  0  0  0  0  0  0  0  0  0
   -3.5270    3.4380    2.4730 C   0  0  1  0  0  0  0  0  0  0  0  0
   -3.8810    4.9200    2.4560 C   0  0  0  0  0  0  0  0  0  0  0  0
   -4.7810    2.5750    2.5470 C   0  0  0  0  0  0  0  0  0  0  0  0
   -1.7200    0.7860   -0.6720 C   0  0  2  0  0  0  0  0  0  0  0  0
   -1.4740    0.8730   -2.1480 C   0  0  0  0  0  0  0  0  0  0  0  0
   -3.1430    0.3600   -0.3570 C   0  0  0  0  0  0  0  0  0  0  0  0
   -3.3020   -0.9020   -0.9830 O   0  0  0  0  0  0  0  0  0  0  0  0
   -4.5420   -1.4600   -0.9450 C   0  0  0  0  0  0  0  0  0  0  0  0
   -5.4220   -0.9120   -0.2990 O   0  0  0  0  0  0  0  0  0  0  0  0
   -4.6390   -2.6990   -1.7290 C   0  0  0  0  0  0  0  0  0  0  0  0
   -3.5240   -2.9940   -2.6690 C   0  0  0  0  0  0  0  0  0  0  0  0
   -5.6860   -3.5260   -1.6020 C   0  0  0  0  0  0  0  0  0  0  0  0
   -6.8280   -3.3110   -0.6860 C   0  0  0  0  0  0  0  0  0  0  0  0
   -0.6440    0.3510    0.3230 C   0  0  1  0  0  0  0  0  0  0  0  0
   -0.9890   -0.2470    1.1880 H   0  0  0  0  0  0  0  0  0  0  0  0
    0.8080   -1.4360    1.5470 H   0  0  0  0  0  0  0  0  0  0  0  0
    2.9700   -3.9730    0.1320 H   0  0  0  0  0  0  0  0  0  0  0  0
    3.9260   -2.8890    1.1900 H   0  0  0  0  0  0  0  0  0  0  0  0
    0.4470   -4.9070    3.4450 H   0  0  0  0  0  0  0  0  0  0  0  0
    1.7650   -5.5370    4.4590 H   0  0  0  0  0  0  0  0  0  0  0  0
    1.3780   -3.8040    4.4680 H   0  0  0  0  0  0  0  0  0  0  0  0
    3.9680   -2.2020   -1.2420 H   0  0  0  0  0  0  0  0  0  0  0  0
    2.4020   -1.9810   -1.9830 H   0  0  0  0  0  0  0  0  0  0  0  0
    2.9080   -0.0410   -3.2110 H   0  0  0  0  0  0  0  0  0  0  0  0
    7.0960    1.6450   -2.0170 H   0  0  0  0  0  0  0  0  0  0  0  0
    6.3870    3.1500   -1.4160 H   0  0  0  0  0  0  0  0  0  0  0  0
    7.1720    2.0290   -0.2930 H   0  0  0  0  0  0  0  0  0  0  0  0
    4.2580    2.6410    0.5230 H   0  0  0  0  0  0  0  0  0  0  0  0
    1.9940    2.4010    1.6100 H   0  0  0  0  0  0  0  0  0  0  0  0
    2.9980    3.2820   -1.5560 H   0  0  0  0  0  0  0  0  0  0  0  0
    1.6270    4.3690   -1.5230 H   0  0  0  0  0  0  0  0  0  0  0  0
    2.4470    3.9920   -0.0210 H   0  0  0  0  0  0  0  0  0  0  0  0
    0.0280    3.6210    0.6010 H   0  0  0  0  0  0  0  0  0  0  0  0
   -0.6990    3.5010   -0.9960 H   0  0  0  0  0  0  0  0  0  0  0  0
   -2.8690    3.2220    3.3550 H   0  0  0  0  0  0  0  0  0  0  0  0
   -4.5190    5.1890    1.6010 H   0  0  0  0  0  0  0  0  0  0  0  0
   -4.4250    5.2130    3.3660 H   0  0  0  0  0  0  0  0  0  0  0  0
   -2.9860    5.5550    2.4000 H   0  0  0  0  0  0  0  0  0  0  0  0
   -5.4470    2.7260    1.6840 H   0  0  0  0  0  0  0  0  0  0  0  0
   -4.5440    1.5010    2.5860 H   0  0  0  0  0  0  0  0  0  0  0  0
   -5.3720    2.8020    3.4450 H   0  0  0  0  0  0  0  0  0  0  0  0
   -0.5020    1.3140   -2.4180 H   0  0  0  0  0  0  0  0  0  0  0  0
   -1.5110   -0.1200   -2.6240 H   0  0  0  0  0  0  0  0  0  0  0  0
   -2.2340    1.4980   -2.6400 H   0  0  0  0  0  0  0  0  0  0  0  0
   -3.3410    0.2710    0.7360 H   0  0  0  0  0  0  0  0  0  0  0  0
   -3.8730    1.1070   -0.7500 H   0  0  0  0  0  0  0  0  0  0  0  0
   -2.6170   -3.2950   -2.1230 H   0  0  0  0  0  0  0  0  0  0  0  0
   -3.7580   -3.8040   -3.3750 H   0  0  0  0  0  0  0  0  0  0  0  0
   -3.2520   -2.1170   -3.2780 H   0  0  0  0  0  0  0  0  0  0  0  0
   -5.7340   -4.4400   -2.2080 H   0  0  0  0  0  0  0  0  0  0  0  0
   -6.5050   -3.1670    0.3580 H   0  0  0  0  0  0  0  0  0  0  0  0
   -7.4060   -2.4120   -0.9590 H   0  0  0  0  0  0  0  0  0  0  0  0
   -7.5360   -4.1530   -0.6850 H   0  0  0  0  0  0  0  0  0  0  0  0
  2  1  1  6
  2 20  1  0
  2 43  1  0
  2  3  1  0
  3  4  2  0
  3 45  1  0
  4 10  1  0
  4  5  1  0
  5 46  1  0
  5 47  1  0
  5  6  1  0
  6  7  1  0
  7  9  2  0
  7  8  1  0
  8 48  1  0
  8 49  1  0
  8 50  1  0
 10 52  1  0
 10 11  1  0
 10 51  1  0
 11 12  1  6
 11 13  1  0
 11 18  1  0
 12 53  1  0
 13 14  2  0
 13 15  1  0
 15 16  1  0
 15 17  2  0
 16 54  1  0
 16 55  1  0
 16 56  1  0
 17 18  1  0
 17 57  1  0
 18 20  1  0
 18 19  1  1
 20 22  1  0
 20 21  1  1
 21 58  1  0
 22 23  1  6
 22 24  1  0
 22 25  1  0
 24 59  1  0
 24 60  1  0
 24 61  1  0
 25 63  1  0
 25 26  1  0
 25 62  1  0
 26 33  1  0
 26 43  1  0
 26 27  1  1
 27 28  1  0
 28 29  2  0
 28 30  1  0
 30 31  1  0
 30 32  1  0
 30 64  1  1
 31 65  1  0
 31 67  1  0
 31 66  1  0
 32 68  1  0
 32 69  1  0
 32 70  1  0
 33 34  1  6
 33 35  1  0
 33 43  1  0
 34 73  1  0
 34 72  1  0
 34 71  1  0
 35 36  1  0
 35 75  1  0
 35 74  1  0
 36 37  1  0
 37 39  1  0
 37 38  2  0
 39 40  1  0
 39 41  2  0
 40 77  1  0
 40 78  1  0
 40 76  1  0
 41 79  1  0
 41 42  1  0
 42 81  1  0
 42 82  1  0
 42 80  1  0
 43 44  1  1
M  END
>  <id>  (182) 
283

>  <scaffolds>  (182) 
['O=C1C=CC2C1CC=CC1C3CC3CCC21', 'C1CCCCC1']

>  <name>  (182) 
12-deoxyphorbol-13-isobutyrate-16-angelate-20-acetate

>  <formula>  (182) 
C31H42O9

>  <SMILES>  (182) 
[H][C@@]23C=C(COC(C)=O)C[C@]1(O)C(=O)C(C)=C[C@@]1([H])[C@@]2(O)[C@H](C)C[C@@]4(OC(=O)C(C)C)[C@](C)(COC(=O)/C(C)=C\C)[C@@]34[H]

>  <ChEMBL_id>  (182) 


>  <ZINC_id>  (182) 


>  <PubChem_id>  (182) 


>  <DrugBank_id>  (182) 


>  <CAS_no>  (182) 
1255339-15-1

>  <references>  (182) 
[{'journal': {'name': 'South African Journal of Chemistry', 'id': 19}, 'title': 'Euphorbias of South Africa: two new phorbol esters from Euphorbia bothae', 'year': 2010, 'start_page': 175, 'volume': 63, 'issue': None, 'doi': '', 'isbn': '', 'despositor': {'code': 'TMM', 'first_name': 'Thommas', 'last_name': 'Musyoka', 'id': 22}, 'refauthors_set': [{'author': {'first_name': 'Wendy', 'initials': 'WL', 'last_name': 'Popplewell', 'id': 455}, 'first_author': True, 'id': 773}, {'author': {'first_name': '', 'initials': 'EA', 'last_name': 'Marais', 'id': 554}, 'first_author': False, 'id': 774}, {'author': {'first_name': '', 'initials': 'L', 'last_name': 'Brand', 'id': 558}, 'first_author': False, 'id': 775}, {'author': {'first_name': '', 'initials': 'BH', 'last_name': 'Harvey', 'id': 559}, 'first_author': False, 'id': 776}, {'author': {'first_name': 'Michael', 'initials': 'MT', 'last_name': 'Davies-Coleman', 'id': 449}, 'first_author': False, 'id': 777}], 'id': 273}]

>  <classifications>  (182) 
[{'classification': 'Phorbol', 'id': 807}, {'classification': 'Phenol lipids (Classyfire)', 'id': 951}]

>  <molecular_mass>  (182) 
558.66

$$$$
SANC00284_minRM1.pdb
     RDKit          3D

 39 41  0  0  1  0  0  0  0  0999 V2000
   -0.9230   -0.2070    1.4090 H   0  0  0  0  0  0  0  0  0  0  0  0
   -0.7070   -0.0680    0.3150 C   0  0  2  0  0  0  0  0  0  0  0  0
   -1.0610   -1.1980   -0.4470 O   0  0  0  0  0  0  0  0  0  0  0  0
   -2.4090   -1.5610   -0.3370 C   0  0  1  0  0  0  0  0  0  0  0  0
   -2.7540   -2.0690    1.0790 C   0  0  0  0  0  0  0  0  0  0  0  0
   -1.6520   -2.8480    1.4450 O   0  0  0  0  0  0  0  0  0  0  0  0
   -3.3230   -0.3930   -0.7820 C   0  0  1  0  0  0  0  0  0  0  0  0
   -3.2110   -0.2550   -1.8940 H   0  0  0  0  0  0  0  0  0  0  0  0
   -4.6450   -0.6440   -0.4140 O   0  0  0  0  0  0  0  0  0  0  0  0
   -2.9640    0.9430   -0.0710 C   0  0  2  0  0  0  0  0  0  0  0  0
   -3.2330    0.9140    1.0200 H   0  0  0  0  0  0  0  0  0  0  0  0
   -3.5920    1.9870   -0.7420 O   0  0  0  0  0  0  0  0  0  0  0  0
   -1.4490    1.1600   -0.2600 C   0  0  1  0  0  0  0  0  0  0  0  0
   -1.1990    1.3190   -1.3440 H   0  0  0  0  0  0  0  0  0  0  0  0
   -1.1070    2.3030    0.4870 O   0  0  0  0  0  0  0  0  0  0  0  0
    0.2380    2.5380    0.6210 C   0  0  0  0  0  0  0  0  0  0  0  0
    0.5070    3.6360    1.0670 O   0  0  0  0  0  0  0  0  0  0  0  0
    1.2100    1.4780    0.2840 C   0  0  0  0  0  0  0  0  0  0  0  0
    2.5450    1.8040    0.1550 C   0  0  0  0  0  0  0  0  0  0  0  0
    3.4620    0.7700   -0.1100 C   0  0  0  0  0  0  0  0  0  0  0  0
    4.7460    1.1640   -0.2500 O   0  0  0  0  0  0  0  0  0  0  0  0
    3.0340   -0.5520   -0.2340 C   0  0  0  0  0  0  0  0  0  0  0  0
    3.9500   -1.5050   -0.5820 O   0  0  0  0  0  0  0  0  0  0  0  0
    4.2640   -2.3800    0.4800 C   0  0  0  0  0  0  0  0  0  0  0  0
    1.6670   -0.8600   -0.1120 C   0  0  0  0  0  0  0  0  0  0  0  0
    1.3360   -2.1560   -0.2290 O   0  0  0  0  0  0  0  0  0  0  0  0
    0.7570    0.1630    0.1440 C   0  0  0  0  0  0  0  0  0  0  0  0
   -2.4730   -2.4120   -1.0660 H   0  0  0  0  0  0  0  0  0  0  0  0
   -2.9320   -1.2430    1.8060 H   0  0  0  0  0  0  0  0  0  0  0  0
   -3.7120   -2.6420    1.0520 H   0  0  0  0  0  0  0  0  0  0  0  0
   -1.9110   -3.3770    2.2050 H   0  0  0  0  0  0  0  0  0  0  0  0
   -4.9940   -1.3100   -1.0140 H   0  0  0  0  0  0  0  0  0  0  0  0
   -4.5140    1.9950   -0.4620 H   0  0  0  0  0  0  0  0  0  0  0  0
    2.8950    2.8370    0.2610 H   0  0  0  0  0  0  0  0  0  0  0  0
    5.3210    0.3860   -0.3040 H   0  0  0  0  0  0  0  0  0  0  0  0
    4.6740   -1.8540    1.3590 H   0  0  0  0  0  0  0  0  0  0  0  0
    3.4160   -3.0000    0.8110 H   0  0  0  0  0  0  0  0  0  0  0  0
    5.0410   -3.0360    0.0560 H   0  0  0  0  0  0  0  0  0  0  0  0
    0.3630   -2.2460   -0.2770 H   0  0  0  0  0  0  0  0  0  0  0  0
  2  1  1  1
  2  3  1  0
  2 13  1  0
  2 27  1  0
  3  4  1  0
  4 28  1  6
  4  7  1  0
  4  5  1  0
  5 30  1  0
  5  6  1  0
  5 29  1  0
  6 31  1  0
  7  8  1  6
  7  9  1  0
  7 10  1  0
  9 32  1  0
 10 12  1  0
 10 13  1  0
 10 11  1  1
 12 33  1  0
 13 14  1  6
 13 15  1  0
 15 16  1  0
 16 18  1  0
 16 17  2  0
 18 27  2  0
 18 19  1  0
 19 20  2  0
 19 34  1  0
 20 21  1  0
 20 22  1  0
 21 35  1  0
 22 23  1  0
 22 25  2  0
 23 24  1  0
 24 38  1  0
 24 37  1  0
 24 36  1  0
 25 26  1  0
 25 27  1  0
 26 39  1  0
M  END
>  <id>  (183) 
284

>  <scaffolds>  (183) 
['c1ccccc1', 'C1CCOCC1', 'O=C1OC2CCCOC2c2ccccc21']

>  <name>  (183) 
Bergenin

>  <formula>  (183) 
C14H16O9

>  <SMILES>  (183) 
[H][C@@]13OC(CO)[C@@H](O)[C@H](O)[C@@]1([H])OC(=O)c2cc(O)c(OC)c(O)c23

>  <ChEMBL_id>  (183) 


>  <ZINC_id>  (183) 


>  <PubChem_id>  (183) 


>  <DrugBank_id>  (183) 


>  <CAS_no>  (183) 
477-90-7

>  <references>  (183) 
[{'journal': {'name': 'Journal of Ethnopharmacology', 'id': 7}, 'title': 'Evaluation of selected South African medicinal plants for inhibitory properties against human immunodeficiency virus type 1 reverse transcriptase and integrase', 'year': 2005, 'start_page': 83, 'volume': 99, 'issue': None, 'doi': '10.1016/j.jep.2005.01.056', 'isbn': '', 'despositor': {'code': 'NFA', 'first_name': 'Ngonidzashe', 'last_name': 'Faya', 'id': 21}, 'refauthors_set': [{'author': {'first_name': 'Pascal', 'initials': 'PO', 'last_name': 'Bessong ', 'id': 563}, 'first_author': True, 'id': 779}, {'author': {'first_name': 'Chikwelu', 'initials': 'CL', 'last_name': 'Obi', 'id': 564}, 'first_author': None, 'id': 1253}, {'author': {'first_name': 'Marie-Line', 'initials': 'M', 'last_name': 'Andreola', 'id': 565}, 'first_author': None, 'id': 1254}, {'author': {'first_name': 'Luis', 'initials': 'LB', 'last_name': 'Rojas', 'id': 566}, 'first_author': None, 'id': 1255}, {'author': {'first_name': 'Laurent', 'initials': 'L', 'last_name': 'Pouysegu ', 'id': 567}, 'first_author': None, 'id': 1256}, {'author': {'first_name': 'Eunice', 'initials': 'E', 'last_name': 'Igumbor ', 'id': 568}, 'first_author': None, 'id': 1257}, {'author': {'first_name': 'Jacobus', 'initials': 'JM', 'last_name': 'Meyer', 'id': 716}, 'first_author': None, 'id': 1258}, {'author': {'first_name': 'Stephane', 'initials': 'S', 'last_name': 'Quideau', 'id': 569}, 'first_author': None, 'id': 1259}, {'author': {'first_name': 'Simon', 'initials': 'S', 'last_name': 'Litvak ', 'id': 570}, 'first_author': None, 'id': 1260}], 'id': 275}]

>  <classifications>  (183) 
[{'classification': 'Glycoside', 'id': 781}, {'classification': 'Benzene and substituted derivatives (Classyfire)', 'id': 961}]

>  <molecular_mass>  (183) 
328.27

$$$$
SANC00285_minRM1.pdb
     RDKit          3D

 85 88  0  0  1  0  0  0  0  0999 V2000
   -0.8920   -0.5030    1.2300 H   0  0  0  0  0  0  0  0  0  0  0  0
   -0.8660   -0.1000    0.1840 C   0  0  2  0  0  0  0  0  0  0  0  0
   -1.4930   -1.1260   -0.7060 C   0  0  0  0  0  0  0  0  0  0  0  0
   -2.6080   -1.7820   -0.3700 C   0  0  0  0  0  0  0  0  0  0  0  0
   -3.2760   -2.8010   -1.2480 C   0  0  0  0  0  0  0  0  0  0  0  0
   -2.4300   -3.0740   -2.3500 O   0  0  0  0  0  0  0  0  0  0  0  0
   -2.9120   -3.8920   -3.3200 C   0  0  0  0  0  0  0  0  0  0  0  0
   -1.9280   -4.0740   -4.4270 C   0  0  0  0  0  0  0  0  0  0  0  0
   -4.0200   -4.3850   -3.2210 O   0  0  0  0  0  0  0  0  0  0  0  0
   -3.3330   -1.5810    0.9250 C   0  0  0  0  0  0  0  0  0  0  0  0
   -3.5410   -0.1060    1.3150 C   0  0  2  0  0  0  0  0  0  0  0  0
   -2.8250    0.2340    2.4620 O   0  0  0  0  0  0  0  0  0  0  0  0
   -5.0140    0.2710    1.6130 C   0  0  0  0  0  0  0  0  0  0  0  0
   -5.8000   -0.4240    2.2130 O   0  0  0  0  0  0  0  0  0  0  0  0
   -5.2220    1.6310    1.0830 C   0  0  0  0  0  0  0  0  0  0  0  0
   -6.4400    2.4080    1.3670 C   0  0  0  0  0  0  0  0  0  0  0  0
   -4.1670    2.0040    0.3430 C   0  0  0  0  0  0  0  0  0  0  0  0
   -3.1680    0.8990    0.1990 C   0  0  1  0  0  0  0  0  0  0  0  0
   -3.4630    0.4360   -0.7900 H   0  0  0  0  0  0  0  0  0  0  0  0
   -1.6670    1.2370    0.1000 C   0  0  2  0  0  0  0  0  0  0  0  0
   -1.4520    1.7230   -1.1950 O   0  0  0  0  0  0  0  0  0  0  0  0
   -1.0630    2.1880    1.1570 C   0  0  2  0  0  0  0  0  0  0  0  0
   -0.9370    1.6230    2.1210 H   0  0  0  0  0  0  0  0  0  0  0  0
   -1.8980    3.4200    1.4680 C   0  0  0  0  0  0  0  0  0  0  0  0
    0.3320    2.6480    0.7040 C   0  0  0  0  0  0  0  0  0  0  0  0
    1.1500    1.5390    0.0950 C   0  0  1  0  0  0  0  0  0  0  0  0
    1.9690    1.9880   -0.9450 O   0  0  0  0  0  0  0  0  0  0  0  0
    3.0040    2.8070   -0.6170 C   0  0  0  0  0  0  0  0  0  0  0  0
    3.2030    3.1070    0.5460 O   0  0  0  0  0  0  0  0  0  0  0  0
    3.8170    3.2180   -1.8250 C   0  0  1  0  0  0  0  0  0  0  0  0
    2.9010    3.6160   -2.9770 C   0  0  0  0  0  0  0  0  0  0  0  0
    4.7440    4.3750   -1.4300 C   0  0  0  0  0  0  0  0  0  0  0  0
    5.7290    4.7080   -2.5370 C   0  0  0  0  0  0  0  0  0  0  0  0
    1.6520    0.3420    0.8970 C   0  0  2  0  0  0  0  0  0  0  0  0
    1.3470    0.2430    2.3610 C   0  0  0  0  0  0  0  0  0  0  0  0
    3.0460   -0.1630    0.5650 C   0  0  0  0  0  0  0  0  0  0  0  0
    3.0870   -1.4980    1.0410 O   0  0  0  0  0  0  0  0  0  0  0  0
    4.2860   -2.1380    0.9880 C   0  0  0  0  0  0  0  0  0  0  0  0
    5.2370   -1.5850    0.4550 O   0  0  0  0  0  0  0  0  0  0  0  0
    4.2540   -3.4650    1.6160 C   0  0  0  0  0  0  0  0  0  0  0  0
    3.0950   -3.7660    2.4990 C   0  0  0  0  0  0  0  0  0  0  0  0
    5.2250   -4.3610    1.4030 C   0  0  0  0  0  0  0  0  0  0  0  0
    6.4030   -4.1400    0.5350 C   0  0  0  0  0  0  0  0  0  0  0  0
    0.5790    0.1590   -0.1780 C   0  0  1  0  0  0  0  0  0  0  0  0
    0.8960   -0.3490   -1.1080 H   0  0  0  0  0  0  0  0  0  0  0  0
   -0.9980   -1.2900   -1.6700 H   0  0  0  0  0  0  0  0  0  0  0  0
   -3.4720   -3.7440   -0.6850 H   0  0  0  0  0  0  0  0  0  0  0  0
   -4.2670   -2.4180   -1.5890 H   0  0  0  0  0  0  0  0  0  0  0  0
   -1.0650   -4.6690   -4.0900 H   0  0  0  0  0  0  0  0  0  0  0  0
   -2.3830   -4.5980   -5.2800 H   0  0  0  0  0  0  0  0  0  0  0  0
   -1.5330   -3.1130   -4.7910 H   0  0  0  0  0  0  0  0  0  0  0  0
   -4.3220   -2.0920    0.9140 H   0  0  0  0  0  0  0  0  0  0  0  0
   -2.7690   -2.1310    1.7120 H   0  0  0  0  0  0  0  0  0  0  0  0
   -3.1340   -0.3300    3.1810 H   0  0  0  0  0  0  0  0  0  0  0  0
   -7.1120    1.8960    2.0720 H   0  0  0  0  0  0  0  0  0  0  0  0
   -6.2030    3.3900    1.8060 H   0  0  0  0  0  0  0  0  0  0  0  0
   -7.0200    2.5970    0.4510 H   0  0  0  0  0  0  0  0  0  0  0  0
   -4.0630    2.9460   -0.1900 H   0  0  0  0  0  0  0  0  0  0  0  0
   -1.8000    2.6180   -1.2370 H   0  0  0  0  0  0  0  0  0  0  0  0
   -2.8300    3.1700    1.9960 H   0  0  0  0  0  0  0  0  0  0  0  0
   -1.3600    4.1070    2.1410 H   0  0  0  0  0  0  0  0  0  0  0  0
   -2.1570    4.0160    0.5820 H   0  0  0  0  0  0  0  0  0  0  0  0
    0.2410    3.4880   -0.0200 H   0  0  0  0  0  0  0  0  0  0  0  0
    0.8830    3.0840    1.5670 H   0  0  0  0  0  0  0  0  0  0  0  0
    4.4290    2.3250   -2.1220 H   0  0  0  0  0  0  0  0  0  0  0  0
    2.2320    4.4480   -2.7090 H   0  0  0  0  0  0  0  0  0  0  0  0
    3.4700    3.9330   -3.8620 H   0  0  0  0  0  0  0  0  0  0  0  0
    2.2570    2.7860   -3.3120 H   0  0  0  0  0  0  0  0  0  0  0  0
    4.1460    5.2710   -1.1570 H   0  0  0  0  0  0  0  0  0  0  0  0
    5.3040    4.1180   -0.5030 H   0  0  0  0  0  0  0  0  0  0  0  0
    6.4510    5.4740   -2.2110 H   0  0  0  0  0  0  0  0  0  0  0  0
    6.3190    3.8340   -2.8530 H   0  0  0  0  0  0  0  0  0  0  0  0
    5.2450    5.1110   -3.4380 H   0  0  0  0  0  0  0  0  0  0  0  0
    0.4150    0.7480    2.6610 H   0  0  0  0  0  0  0  0  0  0  0  0
    1.2560   -0.8040    2.6840 H   0  0  0  0  0  0  0  0  0  0  0  0
    2.1460    0.6990    2.9650 H   0  0  0  0  0  0  0  0  0  0  0  0
    3.2700   -0.1450   -0.5250 H   0  0  0  0  0  0  0  0  0  0  0  0
    3.8160    0.4770    1.0560 H   0  0  0  0  0  0  0  0  0  0  0  0
    2.1780   -3.9140    1.9090 H   0  0  0  0  0  0  0  0  0  0  0  0
    3.2370   -4.6710    3.1070 H   0  0  0  0  0  0  0  0  0  0  0  0
    2.8910   -2.9460    3.2050 H   0  0  0  0  0  0  0  0  0  0  0  0
    5.1760   -5.3390    1.8950 H   0  0  0  0  0  0  0  0  0  0  0  0
    7.0230   -5.0420    0.4270 H   0  0  0  0  0  0  0  0  0  0  0  0
    6.1220   -3.8280   -0.4830 H   0  0  0  0  0  0  0  0  0  0  0  0
    7.0580   -3.3490    0.9340 H   0  0  0  0  0  0  0  0  0  0  0  0
  2  1  1  1
  2  3  1  0
  2 44  1  0
  2 20  1  0
  3 46  1  0
  3  4  2  0
  4  5  1  0
  4 10  1  0
  5  6  1  0
  5 48  1  0
  5 47  1  0
  6  7  1  0
  7  8  1  0
  7  9  2  0
  8 50  1  0
  8 51  1  0
  8 49  1  0
 10 52  1  0
 10 11  1  0
 10 53  1  0
 11 18  1  0
 11 13  1  0
 11 12  1  1
 12 54  1  0
 13 15  1  0
 13 14  2  0
 15 17  2  0
 15 16  1  0
 16 57  1  0
 16 56  1  0
 16 55  1  0
 17 58  1  0
 17 18  1  0
 18 19  1  6
 18 20  1  0
 20 21  1  6
 20 22  1  0
 21 59  1  0
 22 25  1  0
 22 24  1  0
 22 23  1  1
 24 62  1  0
 24 60  1  0
 24 61  1  0
 25 63  1  0
 25 26  1  0
 25 64  1  0
 26 27  1  6
 26 44  1  0
 26 34  1  0
 27 28  1  0
 28 30  1  0
 28 29  2  0
 30 31  1  0
 30 65  1  6
 30 32  1  0
 31 67  1  0
 31 68  1  0
 31 66  1  0
 32 33  1  0
 32 69  1  0
 32 70  1  0
 33 73  1  0
 33 72  1  0
 33 71  1  0
 34 44  1  0
 34 36  1  6
 34 35  1  0
 35 74  1  0
 35 75  1  0
 35 76  1  0
 36 77  1  0
 36 37  1  0
 36 78  1  0
 37 38  1  0
 38 39  2  0
 38 40  1  0
 40 42  2  0
 40 41  1  0
 41 79  1  0
 41 80  1  0
 41 81  1  0
 42 43  1  0
 42 82  1  0
 43 84  1  0
 43 83  1  0
 43 85  1  0
 44 45  1  6
M  END
>  <id>  (184) 
285

>  <scaffolds>  (184) 
['O=C1C=CC2C1CC=CC1C3CC3CCC21', 'C1CCCCC1']

>  <name>  (184) 
12-deoxyphorbol-13-(2-methylbutyrate)-16-angelate-20-acetate

>  <formula>  (184) 
C32H44O9

>  <SMILES>  (184) 
[H][C@@]23C=C(COC(C)=O)C[C@]1(O)C(=O)C(C)=C[C@@]1([H])[C@@]2(O)[C@H](C)C[C@@]4(OC(=O)C(C)CC)[C@](C)(COC(=O)/C(C)=C\C)[C@@]34[H]

>  <ChEMBL_id>  (184) 


>  <ZINC_id>  (184) 


>  <PubChem_id>  (184) 


>  <DrugBank_id>  (184) 


>  <CAS_no>  (184) 
1255705-74-8

>  <references>  (184) 
[{'journal': {'name': 'South African Journal of Chemistry', 'id': 19}, 'title': 'Euphorbias of South Africa: two new phorbol esters from Euphorbia bothae', 'year': 2010, 'start_page': 175, 'volume': 63, 'issue': None, 'doi': '', 'isbn': '', 'despositor': {'code': 'TMM', 'first_name': 'Thommas', 'last_name': 'Musyoka', 'id': 22}, 'refauthors_set': [{'author': {'first_name': 'Wendy', 'initials': 'WL', 'last_name': 'Popplewell', 'id': 455}, 'first_author': True, 'id': 773}, {'author': {'first_name': '', 'initials': 'EA', 'last_name': 'Marais', 'id': 554}, 'first_author': False, 'id': 774}, {'author': {'first_name': '', 'initials': 'L', 'last_name': 'Brand', 'id': 558}, 'first_author': False, 'id': 775}, {'author': {'first_name': '', 'initials': 'BH', 'last_name': 'Harvey', 'id': 559}, 'first_author': False, 'id': 776}, {'author': {'first_name': 'Michael', 'initials': 'MT', 'last_name': 'Davies-Coleman', 'id': 449}, 'first_author': False, 'id': 777}], 'id': 273}]

>  <classifications>  (184) 
[{'classification': 'Phorbol', 'id': 807}, {'classification': 'Phenol lipids (Classyfire)', 'id': 951}]

>  <molecular_mass>  (184) 
572.68

$$$$
SANC00286_minRM1.pdb
     RDKit          3D

 35 37  0  0  1  0  0  0  0  0999 V2000
    4.6990    2.7210   -0.2550 O   0  0  0  0  0  0  0  0  0  0  0  0
    3.9990    1.5630   -0.1510 C   0  0  0  0  0  0  0  0  0  0  0  0
    4.6050    0.3260    0.0740 C   0  0  0  0  0  0  0  0  0  0  0  0
    3.7810   -0.7870    0.2090 C   0  0  0  0  0  0  0  0  0  0  0  0
    4.3980   -1.9930    0.3370 O   0  0  0  0  0  0  0  0  0  0  0  0
    2.3890   -0.7030    0.1330 C   0  0  0  0  0  0  0  0  0  0  0  0
    1.5300   -1.9070    0.2530 C   0  0  0  0  0  0  0  0  0  0  0  0
    0.0790   -1.4890    0.5460 C   0  0  2  0  0  0  0  0  0  0  0  0
   -0.0230   -1.1310    1.6060 H   0  0  0  0  0  0  0  0  0  0  0  0
   -0.7880   -2.5450    0.2660 O   0  0  0  0  0  0  0  0  0  0  0  0
   -0.3210   -0.3590   -0.4350 C   0  0  1  0  0  0  0  0  0  0  0  0
   -0.2000   -0.7070   -1.4950 H   0  0  0  0  0  0  0  0  0  0  0  0
   -1.7260    0.0890   -0.1450 C   0  0  0  0  0  0  0  0  0  0  0  0
   -1.9960    0.9360    0.9290 C   0  0  0  0  0  0  0  0  0  0  0  0
   -3.2950    1.3330    1.2070 C   0  0  0  0  0  0  0  0  0  0  0  0
   -4.3390    0.8560    0.4140 C   0  0  0  0  0  0  0  0  0  0  0  0
   -5.5950    1.2000    0.7840 O   0  0  0  0  0  0  0  0  0  0  0  0
   -4.0640    0.0160   -0.6740 C   0  0  0  0  0  0  0  0  0  0  0  0
   -5.0990   -0.5140   -1.3890 O   0  0  0  0  0  0  0  0  0  0  0  0
   -2.7580   -0.3760   -0.9550 C   0  0  0  0  0  0  0  0  0  0  0  0
    0.4970    0.7770   -0.2230 O   0  0  0  0  0  0  0  0  0  0  0  0
    1.8360    0.5530   -0.1240 C   0  0  0  0  0  0  0  0  0  0  0  0
    2.6150    1.7040   -0.2600 C   0  0  0  0  0  0  0  0  0  0  0  0
    5.6380    2.4870   -0.3080 H   0  0  0  0  0  0  0  0  0  0  0  0
    5.6900    0.2170    0.1280 H   0  0  0  0  0  0  0  0  0  0  0  0
    4.1860   -2.3350    1.1930 H   0  0  0  0  0  0  0  0  0  0  0  0
    1.5930   -2.5130   -0.6760 H   0  0  0  0  0  0  0  0  0  0  0  0
    1.8910   -2.5820    1.0600 H   0  0  0  0  0  0  0  0  0  0  0  0
   -0.6310   -3.2320    0.9200 H   0  0  0  0  0  0  0  0  0  0  0  0
   -1.1820    1.2990    1.5650 H   0  0  0  0  0  0  0  0  0  0  0  0
   -3.5090    2.0040    2.0430 H   0  0  0  0  0  0  0  0  0  0  0  0
   -6.1670    1.2190    0.0140 H   0  0  0  0  0  0  0  0  0  0  0  0
   -5.2730    0.1080   -2.1150 H   0  0  0  0  0  0  0  0  0  0  0  0
   -2.5700   -1.0710   -1.7800 H   0  0  0  0  0  0  0  0  0  0  0  0
    2.1550    2.6780   -0.4480 H   0  0  0  0  0  0  0  0  0  0  0  0
  1 24  1  0
  1  2  1  0
  2 23  2  0
  2  3  1  0
  3 25  1  0
  3  4  2  0
  4  6  1  0
  4  5  1  0
  5 26  1  0
  6 22  2  0
  6  7  1  0
  7 27  1  0
  7  8  1  0
  7 28  1  0
  8 11  1  0
  8 10  1  0
  8  9  1  1
 10 29  1  0
 11 12  1  6
 11 21  1  0
 11 13  1  0
 13 20  2  0
 13 14  1  0
 14 15  2  0
 14 30  1  0
 15 16  1  0
 15 31  1  0
 16 18  2  0
 16 17  1  0
 17 32  1  0
 18 19  1  0
 18 20  1  0
 19 33  1  0
 20 34  1  0
 21 22  1  0
 22 23  1  0
 23 35  1  0
M  END
>  <id>  (185) 
286

>  <scaffolds>  (185) 
['c1ccccc1', 'c1ccc(C2CCc3ccccc3O2)cc1']

>  <name>  (185) 
Catechin

>  <formula>  (185) 
C15H14O6

>  <SMILES>  (185) 
Oc3cc(O)c2C[C@H](O)[C@@H](c1ccc(O)c(O)c1)Oc2c3

>  <ChEMBL_id>  (185) 


>  <ZINC_id>  (185) 


>  <PubChem_id>  (185) 


>  <DrugBank_id>  (185) 


>  <CAS_no>  (185) 
154-23-4

>  <references>  (185) 
[{'journal': {'name': 'Journal of Ethnopharmacology', 'id': 7}, 'title': 'Evaluation of selected South African medicinal plants for inhibitory properties against human immunodeficiency virus type 1 reverse transcriptase and integrase', 'year': 2005, 'start_page': 83, 'volume': 99, 'issue': None, 'doi': '10.1016/j.jep.2005.01.056', 'isbn': '', 'despositor': {'code': 'NFA', 'first_name': 'Ngonidzashe', 'last_name': 'Faya', 'id': 21}, 'refauthors_set': [{'author': {'first_name': 'Pascal', 'initials': 'PO', 'last_name': 'Bessong ', 'id': 563}, 'first_author': True, 'id': 779}, {'author': {'first_name': 'Chikwelu', 'initials': 'CL', 'last_name': 'Obi', 'id': 564}, 'first_author': None, 'id': 1253}, {'author': {'first_name': 'Marie-Line', 'initials': 'M', 'last_name': 'Andreola', 'id': 565}, 'first_author': None, 'id': 1254}, {'author': {'first_name': 'Luis', 'initials': 'LB', 'last_name': 'Rojas', 'id': 566}, 'first_author': None, 'id': 1255}, {'author': {'first_name': 'Laurent', 'initials': 'L', 'last_name': 'Pouysegu ', 'id': 567}, 'first_author': None, 'id': 1256}, {'author': {'first_name': 'Eunice', 'initials': 'E', 'last_name': 'Igumbor ', 'id': 568}, 'first_author': None, 'id': 1257}, {'author': {'first_name': 'Jacobus', 'initials': 'JM', 'last_name': 'Meyer', 'id': 716}, 'first_author': None, 'id': 1258}, {'author': {'first_name': 'Stephane', 'initials': 'S', 'last_name': 'Quideau', 'id': 569}, 'first_author': None, 'id': 1259}, {'author': {'first_name': 'Simon', 'initials': 'S', 'last_name': 'Litvak ', 'id': 570}, 'first_author': None, 'id': 1260}], 'id': 275}]

>  <classifications>  (185) 
[{'classification': 'Flavonoids', 'id': 776}, {'classification': 'Flavonoids (Classyfire)', 'id': 941}]

>  <molecular_mass>  (185) 
290.27

$$$$
SANC00287_minRM1.pdb
     RDKit          3D

 77 81  0  0  1  0  0  0  0  0999 V2000
   -5.2520    4.7250   -0.2160 C   0  0  0  0  0  0  0  0  0  0  0  0
   -5.0830    3.2980    0.2920 C   0  0  1  0  0  0  0  0  0  0  0  0
   -6.2350    2.4360   -0.2150 C   0  0  0  0  0  0  0  0  0  0  0  0
   -3.7440    2.7080   -0.1830 C   0  0  1  0  0  0  0  0  0  0  0  0
   -2.5580    3.5470    0.2870 C   0  0  0  0  0  0  0  0  0  0  0  0
   -3.5750    1.3350    0.3910 C   0  0  0  0  0  0  0  0  0  0  0  0
   -3.4680    0.2450   -0.3660 C   0  0  0  0  0  0  0  0  0  0  0  0
   -3.2620   -1.0940    0.2620 C   0  0  2  0  0  0  0  0  0  0  0  0
   -1.8650   -1.3790    0.8380 C   0  0  1  0  0  0  0  0  0  0  0  0
   -1.8590   -1.2020    1.9420 H   0  0  0  0  0  0  0  0  0  0  0  0
   -1.6550   -2.8910    0.5140 C   0  0  2  0  0  0  0  0  0  0  0  0
   -1.9060   -3.5530    1.3780 H   0  0  0  0  0  0  0  0  0  0  0  0
   -0.1970   -3.0610    0.0490 C   0  0  0  0  0  0  0  0  0  0  0  0
    0.4520   -1.7600    0.5150 C   0  0  2  0  0  0  0  0  0  0  0  0
   -0.6330   -0.6990    0.2100 C   0  0  2  0  0  0  0  0  0  0  0  0
   -0.1980    0.6010    0.8790 C   0  0  0  0  0  0  0  0  0  0  0  0
    1.1690    1.0320    0.3420 C   0  0  0  0  0  0  0  0  0  0  0  0
    2.2370   -0.0500    0.5300 C   0  0  1  0  0  0  0  0  0  0  0  0
    1.7860   -1.3750   -0.1080 C   0  0  1  0  0  0  0  0  0  0  0  0
    2.8230   -2.4680    0.1350 C   0  0  0  0  0  0  0  0  0  0  0  0
    4.1810   -2.0460   -0.4120 C   0  0  0  0  0  0  0  0  0  0  0  0
    4.6210   -0.7320    0.2300 C   0  0  2  0  0  0  0  0  0  0  0  0
    3.6000    0.3850   -0.0540 C   0  0  2  0  0  0  0  0  0  0  0  0
    4.0880    1.6520    0.6640 C   0  0  0  0  0  0  0  0  0  0  0  0
    5.4770    2.0700    0.2000 C   0  0  0  0  0  0  0  0  0  0  0  0
    6.4840    0.9350    0.4460 C   0  0  1  0  0  0  0  0  0  0  0  0
    6.5240    0.7260    1.5570 H   0  0  0  0  0  0  0  0  0  0  0  0
    6.0070   -0.3360   -0.2760 C   0  0  0  0  0  0  0  0  0  0  0  0
    7.7900    1.3300   -0.0980 N   0  0  0  0  0  0  0  0  0  0  0  0
    3.4840    0.6530   -1.5530 C   0  0  0  0  0  0  0  0  0  0  0  0
   -0.7950   -0.4860   -1.2910 C   0  0  0  0  0  0  0  0  0  0  0  0
   -2.5380   -3.2410   -0.5370 O   0  0  0  0  0  0  0  0  0  0  0  0
   -3.4530   -2.2510   -0.7300 C   0  0  0  0  0  0  0  0  0  0  0  0
   -4.2870   -2.3980   -1.5930 O   0  0  0  0  0  0  0  0  0  0  0  0
   -4.1560   -1.3050    1.3170 O   0  0  0  0  0  0  0  0  0  0  0  0
   -5.1170    4.8030   -1.3040 H   0  0  0  0  0  0  0  0  0  0  0  0
   -6.2540    5.1220    0.0050 H   0  0  0  0  0  0  0  0  0  0  0  0
   -4.5410    5.4240    0.2460 H   0  0  0  0  0  0  0  0  0  0  0  0
   -5.1050    3.3090    1.4130 H   0  0  0  0  0  0  0  0  0  0  0  0
   -6.2810    2.4020   -1.3130 H   0  0  0  0  0  0  0  0  0  0  0  0
   -6.1620    1.3950    0.1320 H   0  0  0  0  0  0  0  0  0  0  0  0
   -7.2100    2.8100    0.1300 H   0  0  0  0  0  0  0  0  0  0  0  0
   -3.7390    2.6730   -1.3040 H   0  0  0  0  0  0  0  0  0  0  0  0
   -2.6530    3.8680    1.3340 H   0  0  0  0  0  0  0  0  0  0  0  0
   -1.6110    2.9820    0.2180 H   0  0  0  0  0  0  0  0  0  0  0  0
   -2.4240    4.4560   -0.3160 H   0  0  0  0  0  0  0  0  0  0  0  0
   -3.5190    1.2820    1.4850 H   0  0  0  0  0  0  0  0  0  0  0  0
   -3.5560    0.2650   -1.4580 H   0  0  0  0  0  0  0  0  0  0  0  0
    0.2710   -3.9610    0.4930 H   0  0  0  0  0  0  0  0  0  0  0  0
   -0.1070   -3.2130   -1.0450 H   0  0  0  0  0  0  0  0  0  0  0  0
    0.5990   -1.8340    1.6270 H   0  0  0  0  0  0  0  0  0  0  0  0
   -0.9460    1.4100    0.7110 H   0  0  0  0  0  0  0  0  0  0  0  0
   -0.1600    0.4910    1.9830 H   0  0  0  0  0  0  0  0  0  0  0  0
    1.0790    1.3360   -0.7210 H   0  0  0  0  0  0  0  0  0  0  0  0
    1.4810    1.9660    0.8590 H   0  0  0  0  0  0  0  0  0  0  0  0
    2.3650   -0.2120    1.6340 H   0  0  0  0  0  0  0  0  0  0  0  0
    1.6660   -1.2310   -1.2190 H   0  0  0  0  0  0  0  0  0  0  0  0
    2.9000   -2.7120    1.2160 H   0  0  0  0  0  0  0  0  0  0  0  0
    2.5040   -3.4190   -0.3420 H   0  0  0  0  0  0  0  0  0  0  0  0
    4.9300   -2.8430   -0.2160 H   0  0  0  0  0  0  0  0  0  0  0  0
    4.1550   -1.9700   -1.5190 H   0  0  0  0  0  0  0  0  0  0  0  0
    4.6830   -0.8940    1.3400 H   0  0  0  0  0  0  0  0  0  0  0  0
    3.3770    2.4930    0.5070 H   0  0  0  0  0  0  0  0  0  0  0  0
    4.0850    1.5010    1.7650 H   0  0  0  0  0  0  0  0  0  0  0  0
    5.4720    2.3690   -0.8690 H   0  0  0  0  0  0  0  0  0  0  0  0
    5.7900    2.9910    0.7380 H   0  0  0  0  0  0  0  0  0  0  0  0
    6.7270   -1.1670   -0.1190 H   0  0  0  0  0  0  0  0  0  0  0  0
    5.9950   -0.1770   -1.3780 H   0  0  0  0  0  0  0  0  0  0  0  0
    8.1380    2.2000    0.2850 H   0  0  0  0  0  0  0  0  0  0  0  0
    8.4930    0.6050   -0.0230 H   0  0  0  0  0  0  0  0  0  0  0  0
    2.7780   -0.0290   -2.0540 H   0  0  0  0  0  0  0  0  0  0  0  0
    3.1400    1.6720   -1.7800 H   0  0  0  0  0  0  0  0  0  0  0  0
    4.4450    0.5340   -2.0810 H   0  0  0  0  0  0  0  0  0  0  0  0
   -1.4380   -1.2270   -1.7840 H   0  0  0  0  0  0  0  0  0  0  0  0
   -1.2040    0.5040   -1.5390 H   0  0  0  0  0  0  0  0  0  0  0  0
    0.1660   -0.5500   -1.8330 H   0  0  0  0  0  0  0  0  0  0  0  0
   -5.0390   -1.0750    1.0050 H   0  0  0  0  0  0  0  0  0  0  0  0
  1 36  1  0
  1 37  1  0
  1 38  1  0
  1  2  1  0
  2  3  1  0
  2  4  1  0
  2 39  1  1
  3 40  1  0
  3 42  1  0
  3 41  1  0
  4 43  1  6
  4  5  1  0
  4  6  1  0
  5 46  1  0
  5 45  1  0
  5 44  1  0
  6  7  2  0
  6 47  1  0
  7 48  1  0
  8  7  1  0
  8 33  1  0
  8  9  1  0
  8 35  1  1
  9 15  1  0
  9 11  1  0
  9 10  1  1
 11 32  1  0
 11 13  1  0
 11 12  1  1
 13 50  1  0
 13 49  1  0
 13 14  1  0
 14 19  1  0
 14 15  1  0
 14 51  1  1
 15 31  1  6
 15 16  1  0
 16 17  1  0
 16 52  1  0
 16 53  1  0
 17 54  1  0
 17 18  1  0
 17 55  1  0
 18 19  1  0
 18 23  1  0
 18 56  1  1
 19 57  1  6
 19 20  1  0
 20 21  1  0
 20 59  1  0
 20 58  1  0
 21 61  1  0
 21 60  1  0
 21 22  1  0
 22 28  1  0
 22 23  1  0
 22 62  1  1
 23 30  1  6
 23 24  1  0
 24 25  1  0
 24 63  1  0
 24 64  1  0
 25 65  1  0
 25 26  1  0
 25 66  1  0
 26 28  1  0
 26 29  1  0
 26 27  1  1
 28 68  1  0
 28 67  1  0
 29 70  1  0
 29 69  1  0
 30 73  1  0
 30 71  1  0
 30 72  1  0
 31 76  1  0
 31 74  1  0
 31 75  1  0
 32 33  1  0
 33 34  2  0
 35 77  1  0
M  END
>  <id>  (186) 
287

>  <scaffolds>  (186) 
['O=C1CC2C(CC3C2CCC2C4CCCCC4CCC23)O1', 'C1CCC(C2CCCC2)CC1', 'C1CCCCC1', 'O=C1CCCO1', 'C1CCC2C(C1)CCC1C3CCCC3CCC21', 'C1CCC2CCCCC2C1']

>  <name>  (186) 
Clionamine A

>  <formula>  (186) 
C28H45NO3

>  <SMILES>  (186) 
CC(C)C(C)/C=C/[C@@]1([C@H]2[C@H](CC3[C@@]2(CCC4C3CCC5[C@@]4(CC[C@@H](C5)N)C)C)OC1=O)O

>  <ChEMBL_id>  (186) 


>  <ZINC_id>  (186) 


>  <PubChem_id>  (186) 


>  <DrugBank_id>  (186) 


>  <CAS_no>  (186) 
1042138-27-1

>  <references>  (186) 
[{'journal': {'name': 'Organic Letters', 'id': 20}, 'title': 'Autophagy-Modulating Aminosteroids Isolated from the Sponge Cliona celata', 'year': 2008, 'start_page': 2959, 'volume': 10, 'issue': 14, 'doi': '10.1021/ol800937u', 'isbn': '', 'despositor': {'code': 'TMM', 'first_name': 'Thommas', 'last_name': 'Musyoka', 'id': 22}, 'refauthors_set': [{'author': {'first_name': '', 'initials': 'RA', 'last_name': 'Keyzers', 'id': 546}, 'first_author': True, 'id': 786}, {'author': {'first_name': '', 'initials': 'J', 'last_name': 'Daoust', 'id': 575}, 'first_author': False, 'id': 787}, {'author': {'first_name': 'Michael', 'initials': 'MT', 'last_name': 'Davies-Coleman', 'id': 449}, 'first_author': False, 'id': 788}, {'author': {'first_name': '', 'initials': 'RV', 'last_name': 'Soest', 'id': 576}, 'first_author': False, 'id': 789}, {'author': {'first_name': '', 'initials': 'A', 'last_name': 'Balgi', 'id': 577}, 'first_author': False, 'id': 790}, {'author': {'first_name': '', 'initials': 'E', 'last_name': 'Donohue', 'id': 578}, 'first_author': False, 'id': 791}, {'author': {'first_name': '', 'initials': 'M', 'last_name': 'Roberge', 'id': 579}, 'first_author': False, 'id': 792}, {'author': {'first_name': '', 'initials': 'RJ', 'last_name': 'Andersen', 'id': 580}, 'first_author': False, 'id': 793}], 'id': 277}]

>  <classifications>  (186) 
[{'classification': 'Aminosteroid', 'id': 742}, {'classification': 'Steroid', 'id': 835}, {'classification': 'Steroids and steroid derivatives (Classyfire)', 'id': 942}]

>  <molecular_mass>  (186) 
443.66

$$$$
SANC00288_minRM1.pdb
     RDKit          3D

 76 80  0  0  1  0  0  0  0  0999 V2000
    1.5810    3.5840    1.2270 H   0  0  0  0  0  0  0  0  0  0  0  0
    1.3740    2.7840    0.4760 C   0  0  1  0  0  0  0  0  0  0  0  0
   -0.0600    2.8580   -0.0830 C   0  0  0  0  0  0  0  0  0  0  0  0
   -0.7120    1.6030    0.4950 C   0  0  1  0  0  0  0  0  0  0  0  0
   -0.9550    1.8140    1.5720 H   0  0  0  0  0  0  0  0  0  0  0  0
   -1.9780    1.0890   -0.1770 C   0  0  2  0  0  0  0  0  0  0  0  0
   -1.7630    0.8040   -1.2440 H   0  0  0  0  0  0  0  0  0  0  0  0
   -3.0600    2.1660   -0.1650 C   0  0  0  0  0  0  0  0  0  0  0  0
   -4.3550    1.6250   -0.7560 C   0  0  0  0  0  0  0  0  0  0  0  0
   -4.8130    0.3930    0.0210 C   0  0  1  0  0  0  0  0  0  0  0  0
   -6.1430   -0.1170   -0.5330 C   0  0  0  0  0  0  0  0  0  0  0  0
   -6.6440   -1.2980    0.3130 C   0  0  1  0  0  0  0  0  0  0  0  0
   -6.7830   -0.9460    1.3790 H   0  0  0  0  0  0  0  0  0  0  0  0
   -7.8890   -1.8100   -0.2740 N   0  0  0  0  0  0  0  0  0  0  0  0
   -5.5910   -2.4180    0.3040 C   0  0  0  0  0  0  0  0  0  0  0  0
   -4.2560   -1.8920    0.8140 C   0  0  0  0  0  0  0  0  0  0  0  0
   -3.7440   -0.7140   -0.0290 C   0  0  1  0  0  0  0  0  0  0  0  0
   -3.4980   -1.1740   -1.4640 C   0  0  0  0  0  0  0  0  0  0  0  0
   -2.4460   -0.1560    0.5960 C   0  0  1  0  0  0  0  0  0  0  0  0
   -2.6680    0.1440    1.6550 H   0  0  0  0  0  0  0  0  0  0  0  0
   -1.3390   -1.2160    0.6410 C   0  0  0  0  0  0  0  0  0  0  0  0
   -0.0320   -0.6680    1.2160 C   0  0  0  0  0  0  0  0  0  0  0  0
    0.4200    0.5520    0.4190 C   0  0  1  0  0  0  0  0  0  0  0  0
    0.7050    0.1630   -1.0270 C   0  0  0  0  0  0  0  0  0  0  0  0
    1.5740    1.3500    1.0560 C   0  0  1  0  0  0  0  0  0  0  0  0
    1.4530    1.3420    2.1670 H   0  0  0  0  0  0  0  0  0  0  0  0
    3.0370    1.0420    0.6850 C   0  0  1  0  0  0  0  0  0  0  0  0
    3.7810    1.5910    1.7350 O   0  0  0  0  0  0  0  0  0  0  0  0
    3.3960   -0.4260    0.4710 C   0  0  0  0  0  0  0  0  0  0  0  0
    4.8700   -0.6220    0.1150 C   0  0  0  0  0  0  0  0  0  0  0  0
    5.2480   -2.0970    0.2310 C   0  0  0  0  0  0  0  0  0  0  0  0
    6.7240   -2.3350   -0.1070 C   0  0  1  0  0  0  0  0  0  0  0  0
    7.1010   -3.7710    0.2490 C   0  0  0  0  0  0  0  0  0  0  0  0
    6.9980   -2.0910   -1.5860 C   0  0  0  0  0  0  0  0  0  0  0  0
    3.2500    1.9590   -0.5260 C   0  0  0  0  0  0  0  0  0  0  0  0
    4.1140    1.9650   -1.3730 O   0  0  0  0  0  0  0  0  0  0  0  0
    2.3100    2.9480   -0.5740 O   0  0  0  0  0  0  0  0  0  0  0  0
   -0.5710    3.7890    0.2300 H   0  0  0  0  0  0  0  0  0  0  0  0
   -0.0940    2.8860   -1.1900 H   0  0  0  0  0  0  0  0  0  0  0  0
   -3.2320    2.5480    0.8630 H   0  0  0  0  0  0  0  0  0  0  0  0
   -2.7260    3.0570   -0.7390 H   0  0  0  0  0  0  0  0  0  0  0  0
   -5.1390    2.4130   -0.7290 H   0  0  0  0  0  0  0  0  0  0  0  0
   -4.2360    1.4050   -1.8370 H   0  0  0  0  0  0  0  0  0  0  0  0
   -4.9710    0.6980    1.0910 H   0  0  0  0  0  0  0  0  0  0  0  0
   -6.8940    0.7010   -0.5460 H   0  0  0  0  0  0  0  0  0  0  0  0
   -6.0360   -0.4190   -1.6000 H   0  0  0  0  0  0  0  0  0  0  0  0
   -8.2450   -2.6350    0.1930 H   0  0  0  0  0  0  0  0  0  0  0  0
   -8.6150   -1.1090   -0.3530 H   0  0  0  0  0  0  0  0  0  0  0  0
   -5.9230   -3.2710    0.9350 H   0  0  0  0  0  0  0  0  0  0  0  0
   -5.4900   -2.8580   -0.7110 H   0  0  0  0  0  0  0  0  0  0  0  0
   -4.3490   -1.5950    1.8820 H   0  0  0  0  0  0  0  0  0  0  0  0
   -3.5130   -2.7180    0.8290 H   0  0  0  0  0  0  0  0  0  0  0  0
   -4.4160   -1.1700   -2.0740 H   0  0  0  0  0  0  0  0  0  0  0  0
   -2.7760   -0.5350   -1.9980 H   0  0  0  0  0  0  0  0  0  0  0  0
   -3.1030   -2.1990   -1.5220 H   0  0  0  0  0  0  0  0  0  0  0  0
   -1.6690   -2.0820    1.2560 H   0  0  0  0  0  0  0  0  0  0  0  0
   -1.1560   -1.6600   -0.3590 H   0  0  0  0  0  0  0  0  0  0  0  0
   -0.1640   -0.4170    2.2900 H   0  0  0  0  0  0  0  0  0  0  0  0
    0.7480   -1.4570    1.2170 H   0  0  0  0  0  0  0  0  0  0  0  0
   -0.2170   -0.0110   -1.6070 H   0  0  0  0  0  0  0  0  0  0  0  0
    1.2520    0.9190   -1.6040 H   0  0  0  0  0  0  0  0  0  0  0  0
    1.2910   -0.7680   -1.1060 H   0  0  0  0  0  0  0  0  0  0  0  0
    4.7110    1.3660    1.5970 H   0  0  0  0  0  0  0  0  0  0  0  0
    3.1380   -0.9780    1.4010 H   0  0  0  0  0  0  0  0  0  0  0  0
    2.7650   -0.8860   -0.3180 H   0  0  0  0  0  0  0  0  0  0  0  0
    5.0730   -0.2490   -0.9100 H   0  0  0  0  0  0  0  0  0  0  0  0
    5.5220   -0.0060    0.7750 H   0  0  0  0  0  0  0  0  0  0  0  0
    5.0360   -2.4630    1.2590 H   0  0  0  0  0  0  0  0  0  0  0  0
    4.5980   -2.7140   -0.4240 H   0  0  0  0  0  0  0  0  0  0  0  0
    7.3580   -1.6380    0.5000 H   0  0  0  0  0  0  0  0  0  0  0  0
    6.5020   -4.5090   -0.3020 H   0  0  0  0  0  0  0  0  0  0  0  0
    8.1550   -3.9870    0.0230 H   0  0  0  0  0  0  0  0  0  0  0  0
    6.9640   -3.9850    1.3190 H   0  0  0  0  0  0  0  0  0  0  0  0
    6.8360   -1.0450   -1.8800 H   0  0  0  0  0  0  0  0  0  0  0  0
    8.0390   -2.3240   -1.8540 H   0  0  0  0  0  0  0  0  0  0  0  0
    6.3610   -2.7070   -2.2370 H   0  0  0  0  0  0  0  0  0  0  0  0
  2  1  1  1
  2 37  1  0
  2  3  1  0
  2 25  1  0
  3 39  1  0
  3 38  1  0
  3  4  1  0
  4  6  1  0
  4 23  1  0
  4  5  1  1
  6  7  1  6
  6  8  1  0
  6 19  1  0
  8  9  1  0
  8 41  1  0
  8 40  1  0
  9 43  1  0
  9 42  1  0
  9 10  1  0
 10 11  1  0
 10 17  1  0
 10 44  1  1
 11 46  1  0
 11 45  1  0
 11 12  1  0
 12 14  1  0
 12 15  1  0
 12 13  1  1
 14 48  1  0
 14 47  1  0
 15 50  1  0
 15 16  1  0
 15 49  1  0
 16 17  1  0
 16 52  1  0
 16 51  1  0
 17 18  1  6
 17 19  1  0
 18 53  1  0
 18 54  1  0
 18 55  1  0
 19 21  1  0
 19 20  1  1
 21 57  1  0
 21 22  1  0
 21 56  1  0
 22 23  1  0
 22 59  1  0
 22 58  1  0
 23 24  1  6
 23 25  1  0
 24 60  1  0
 24 61  1  0
 24 62  1  0
 25 27  1  0
 25 26  1  1
 27 35  1  0
 27 29  1  0
 27 28  1  1
 28 63  1  0
 29 65  1  0
 29 30  1  0
 29 64  1  0
 30 66  1  0
 30 31  1  0
 30 67  1  0
 31 69  1  0
 31 32  1  0
 31 68  1  0
 32 34  1  0
 32 33  1  0
 32 70  1  1
 33 71  1  0
 33 72  1  0
 33 73  1  0
 34 76  1  0
 34 74  1  0
 34 75  1  0
 35 36  2  0
 35 37  1  0
M  END
>  <id>  (187) 
288

>  <scaffolds>  (187) 
['O=C1CC2C(CC3C2CCC2C4CCCCC4CCC23)O1', 'C1CCC(C2CCCC2)CC1', 'C1CCCCC1', 'O=C1CCCO1', 'C1CCC2C(C1)CCC1C3CCCC3CCC21', 'C1CCC2CCCCC2C1']

>  <name>  (187) 
Clionamine B

>  <formula>  (187) 
C27H45NO3

>  <SMILES>  (187) 
[H][C@]45C[C@@]3([H])[C@]2([H])CCC1C[C@@H](N)CC[C@]1(C)[C@@]2([H])CC[C@]3(C)[C@@]4([H])[C@@](O)(CCCC(C)C)C(=O)O5

>  <ChEMBL_id>  (187) 


>  <ZINC_id>  (187) 


>  <PubChem_id>  (187) 


>  <DrugBank_id>  (187) 


>  <CAS_no>  (187) 
1042138-28-2

>  <references>  (187) 
[{'journal': {'name': 'Organic Letters', 'id': 20}, 'title': 'Autophagy-Modulating Aminosteroids Isolated from the Sponge Cliona celata', 'year': 2008, 'start_page': 2959, 'volume': 10, 'issue': 14, 'doi': '10.1021/ol800937u', 'isbn': '', 'despositor': {'code': 'TMM', 'first_name': 'Thommas', 'last_name': 'Musyoka', 'id': 22}, 'refauthors_set': [{'author': {'first_name': '', 'initials': 'RA', 'last_name': 'Keyzers', 'id': 546}, 'first_author': True, 'id': 786}, {'author': {'first_name': '', 'initials': 'J', 'last_name': 'Daoust', 'id': 575}, 'first_author': False, 'id': 787}, {'author': {'first_name': 'Michael', 'initials': 'MT', 'last_name': 'Davies-Coleman', 'id': 449}, 'first_author': False, 'id': 788}, {'author': {'first_name': '', 'initials': 'RV', 'last_name': 'Soest', 'id': 576}, 'first_author': False, 'id': 789}, {'author': {'first_name': '', 'initials': 'A', 'last_name': 'Balgi', 'id': 577}, 'first_author': False, 'id': 790}, {'author': {'first_name': '', 'initials': 'E', 'last_name': 'Donohue', 'id': 578}, 'first_author': False, 'id': 791}, {'author': {'first_name': '', 'initials': 'M', 'last_name': 'Roberge', 'id': 579}, 'first_author': False, 'id': 792}, {'author': {'first_name': '', 'initials': 'RJ', 'last_name': 'Andersen', 'id': 580}, 'first_author': False, 'id': 793}], 'id': 277}]

>  <classifications>  (187) 
[{'classification': 'Aminosteroid', 'id': 742}, {'classification': 'Steroid', 'id': 835}, {'classification': 'Steroids and steroid derivatives (Classyfire)', 'id': 942}]

>  <molecular_mass>  (187) 
431.65

$$$$
SANC00289_minRM1.pdb
     RDKit          3D

 77 81  0  0  1  0  0  0  0  0999 V2000
    1.4560    3.5870    1.2380 H   0  0  0  0  0  0  0  0  0  0  0  0
    1.2390    2.7980    0.4770 C   0  0  1  0  0  0  0  0  0  0  0  0
   -0.2010    2.8810   -0.0640 C   0  0  0  0  0  0  0  0  0  0  0  0
   -0.8470    1.6190    0.5050 C   0  0  1  0  0  0  0  0  0  0  0  0
   -1.0770    1.8140    1.5870 H   0  0  0  0  0  0  0  0  0  0  0  0
   -2.1220    1.1160   -0.1590 C   0  0  2  0  0  0  0  0  0  0  0  0
   -1.9200    0.8480   -1.2340 H   0  0  0  0  0  0  0  0  0  0  0  0
   -3.2030    2.1920   -0.1160 C   0  0  0  0  0  0  0  0  0  0  0  0
   -4.5060    1.6620   -0.7010 C   0  0  0  0  0  0  0  0  0  0  0  0
   -4.9550    0.4170    0.0600 C   0  0  1  0  0  0  0  0  0  0  0  0
   -6.2900   -0.0840   -0.4890 C   0  0  0  0  0  0  0  0  0  0  0  0
   -6.7830   -1.2780    0.3430 C   0  0  1  0  0  0  0  0  0  0  0  0
   -8.0350   -1.7800   -0.2390 N   0  0  0  0  0  0  0  0  0  0  0  0
   -5.7310   -2.3980    0.3030 C   0  0  0  0  0  0  0  0  0  0  0  0
   -4.3890   -1.8810    0.8060 C   0  0  0  0  0  0  0  0  0  0  0  0
   -3.8870   -0.6890   -0.0210 C   0  0  1  0  0  0  0  0  0  0  0  0
   -3.6570   -1.1230   -1.4670 C   0  0  0  0  0  0  0  0  0  0  0  0
   -2.5810   -0.1420    0.5990 C   0  0  1  0  0  0  0  0  0  0  0  0
   -2.7920    0.1420    1.6650 H   0  0  0  0  0  0  0  0  0  0  0  0
   -1.4740   -1.2020    0.6160 C   0  0  0  0  0  0  0  0  0  0  0  0
   -0.1600   -0.6630    1.1820 C   0  0  0  0  0  0  0  0  0  0  0  0
    0.2830    0.5680    0.3980 C   0  0  1  0  0  0  0  0  0  0  0  0
    0.5480    0.2010   -1.0580 C   0  0  0  0  0  0  0  0  0  0  0  0
    1.4450    1.3550    1.0320 C   0  0  1  0  0  0  0  0  0  0  0  0
    1.3370    1.3310    2.1450 H   0  0  0  0  0  0  0  0  0  0  0  0
    2.9040    1.0540    0.6410 C   0  0  1  0  0  0  0  0  0  0  0  0
    3.6590    1.5820    1.6940 O   0  0  0  0  0  0  0  0  0  0  0  0
    3.2640   -0.4090    0.3920 C   0  0  0  0  0  0  0  0  0  0  0  0
    4.7250   -0.5810   -0.0190 C   0  0  0  0  0  0  0  0  0  0  0  0
    5.1950   -2.0250    0.1990 C   0  0  1  0  0  0  0  0  0  0  0  0
    4.4640   -2.9920   -0.7260 C   0  0  0  0  0  0  0  0  0  0  0  0
    6.6740   -2.1390   -0.0340 C   0  0  0  0  0  0  0  0  0  0  0  0
    7.4630   -2.7640    0.8360 C   0  0  0  0  0  0  0  0  0  0  0  0
    7.2250   -1.5300   -1.2740 C   0  0  0  0  0  0  0  0  0  0  0  0
    3.1060    1.9910   -0.5550 C   0  0  0  0  0  0  0  0  0  0  0  0
    3.9640    2.0110   -1.4080 O   0  0  0  0  0  0  0  0  0  0  0  0
    2.1640    2.9790   -0.5810 O   0  0  0  0  0  0  0  0  0  0  0  0
   -0.7070    3.8080    0.2690 H   0  0  0  0  0  0  0  0  0  0  0  0
   -0.2480    2.9250   -1.1700 H   0  0  0  0  0  0  0  0  0  0  0  0
   -3.3640    2.5560    0.9210 H   0  0  0  0  0  0  0  0  0  0  0  0
   -2.8760    3.0930   -0.6780 H   0  0  0  0  0  0  0  0  0  0  0  0
   -5.2890    2.4500   -0.6510 H   0  0  0  0  0  0  0  0  0  0  0  0
   -4.3990    1.4610   -1.7870 H   0  0  0  0  0  0  0  0  0  0  0  0
   -5.1010    0.7030    1.1360 H   0  0  0  0  0  0  0  0  0  0  0  0
   -7.0410    0.7340   -0.4820 H   0  0  0  0  0  0  0  0  0  0  0  0
   -6.1940   -0.3690   -1.5610 H   0  0  0  0  0  0  0  0  0  0  0  0
   -6.9100   -0.9440    1.4160 H   0  0  0  0  0  0  0  0  0  0  0  0
   -8.3860   -2.6130    0.2180 H   0  0  0  0  0  0  0  0  0  0  0  0
   -8.7620   -1.0780   -0.2980 H   0  0  0  0  0  0  0  0  0  0  0  0
   -6.0560   -3.2610    0.9240 H   0  0  0  0  0  0  0  0  0  0  0  0
   -5.6420   -2.8200   -0.7200 H   0  0  0  0  0  0  0  0  0  0  0  0
   -4.4690   -1.6040    1.8800 H   0  0  0  0  0  0  0  0  0  0  0  0
   -3.6470   -2.7090    0.7970 H   0  0  0  0  0  0  0  0  0  0  0  0
   -4.5820   -1.1050   -2.0670 H   0  0  0  0  0  0  0  0  0  0  0  0
   -2.9390   -0.4770   -1.9970 H   0  0  0  0  0  0  0  0  0  0  0  0
   -3.2660   -2.1480   -1.5490 H   0  0  0  0  0  0  0  0  0  0  0  0
   -1.7970   -2.0760    1.2240 H   0  0  0  0  0  0  0  0  0  0  0  0
   -1.3040   -1.6330   -0.3920 H   0  0  0  0  0  0  0  0  0  0  0  0
   -0.2780   -0.4280    2.2620 H   0  0  0  0  0  0  0  0  0  0  0  0
    0.6200   -1.4520    1.1620 H   0  0  0  0  0  0  0  0  0  0  0  0
   -0.3820    0.0420   -1.6300 H   0  0  0  0  0  0  0  0  0  0  0  0
    1.0920    0.9650   -1.6280 H   0  0  0  0  0  0  0  0  0  0  0  0
    1.1280   -0.7310   -1.1590 H   0  0  0  0  0  0  0  0  0  0  0  0
    4.5880    1.3630    1.5380 H   0  0  0  0  0  0  0  0  0  0  0  0
    3.0360   -0.9780    1.3200 H   0  0  0  0  0  0  0  0  0  0  0  0
    2.6070   -0.8550   -0.3840 H   0  0  0  0  0  0  0  0  0  0  0  0
    4.8590   -0.2790   -1.0790 H   0  0  0  0  0  0  0  0  0  0  0  0
    5.3860    0.1070    0.5550 H   0  0  0  0  0  0  0  0  0  0  0  0
    4.9700   -2.3150    1.2610 H   0  0  0  0  0  0  0  0  0  0  0  0
    4.4700   -2.6690   -1.7770 H   0  0  0  0  0  0  0  0  0  0  0  0
    4.9150   -3.9950   -0.7020 H   0  0  0  0  0  0  0  0  0  0  0  0
    3.4100   -3.1210   -0.4430 H   0  0  0  0  0  0  0  0  0  0  0  0
    7.1150   -3.2170    1.7590 H   0  0  0  0  0  0  0  0  0  0  0  0
    8.5340   -2.8800    0.7020 H   0  0  0  0  0  0  0  0  0  0  0  0
    7.3420   -0.4410   -1.1640 H   0  0  0  0  0  0  0  0  0  0  0  0
    8.2190   -1.9230   -1.5390 H   0  0  0  0  0  0  0  0  0  0  0  0
    6.5880   -1.6990   -2.1540 H   0  0  0  0  0  0  0  0  0  0  0  0
  2  1  1  1
  2 37  1  0
  2  3  1  0
  2 24  1  0
  3 39  1  0
  3 38  1  0
  3  4  1  0
  4  6  1  0
  4 22  1  0
  4  5  1  1
  6  7  1  6
  6  8  1  0
  6 18  1  0
  8  9  1  0
  8 41  1  0
  8 40  1  0
  9 43  1  0
  9 42  1  0
  9 10  1  0
 10 11  1  0
 10 16  1  0
 10 44  1  1
 11 46  1  0
 11 45  1  0
 11 12  1  0
 12 13  1  0
 12 14  1  0
 12 47  1  1
 13 49  1  0
 13 48  1  0
 14 51  1  0
 14 15  1  0
 14 50  1  0
 15 16  1  0
 15 53  1  0
 15 52  1  0
 16 17  1  6
 16 18  1  0
 17 54  1  0
 17 55  1  0
 17 56  1  0
 18 20  1  0
 18 19  1  1
 20 58  1  0
 20 21  1  0
 20 57  1  0
 21 22  1  0
 21 60  1  0
 21 59  1  0
 22 23  1  6
 22 24  1  0
 23 61  1  0
 23 62  1  0
 23 63  1  0
 24 26  1  0
 24 25  1  1
 26 35  1  0
 26 28  1  0
 26 27  1  1
 27 64  1  0
 28 66  1  0
 28 29  1  0
 28 65  1  0
 29 67  1  0
 29 30  1  0
 29 68  1  0
 30 31  1  0
 30 32  1  0
 30 69  1  1
 31 70  1  0
 31 71  1  0
 31 72  1  0
 32 34  1  0
 32 33  2  0
 33 74  1  0
 33 73  1  0
 34 77  1  0
 34 76  1  0
 34 75  1  0
 35 36  2  0
 35 37  1  0
M  END
>  <id>  (188) 
289

>  <scaffolds>  (188) 
['O=C1CC2C(CC3C2CCC2C4CCCCC4CCC23)O1', 'C1CCC(C2CCCC2)CC1', 'C1CCCCC1', 'O=C1CCCO1', 'C1CCC2C(C1)CCC1C3CCCC3CCC21', 'C1CCC2CCCCC2C1']

>  <name>  (188) 
Clionamine C

>  <formula>  (188) 
C28H45NO3

>  <SMILES>  (188) 
[H][C@]45C[C@@]3([H])[C@]2([H])CCC1CC(N)CC[C@]1(C)[C@@]2([H])CC[C@]3(C)[C@@]4([H])[C@@](O)(CCC(C)C(=C)C)C(=O)O5

>  <ChEMBL_id>  (188) 


>  <ZINC_id>  (188) 


>  <PubChem_id>  (188) 


>  <DrugBank_id>  (188) 


>  <CAS_no>  (188) 
1042138-29-3

>  <references>  (188) 
[{'journal': {'name': 'Organic Letters', 'id': 20}, 'title': 'Autophagy-Modulating Aminosteroids Isolated from the Sponge Cliona celata', 'year': 2008, 'start_page': 2959, 'volume': 10, 'issue': 14, 'doi': '10.1021/ol800937u', 'isbn': '', 'despositor': {'code': 'TMM', 'first_name': 'Thommas', 'last_name': 'Musyoka', 'id': 22}, 'refauthors_set': [{'author': {'first_name': '', 'initials': 'RA', 'last_name': 'Keyzers', 'id': 546}, 'first_author': True, 'id': 786}, {'author': {'first_name': '', 'initials': 'J', 'last_name': 'Daoust', 'id': 575}, 'first_author': False, 'id': 787}, {'author': {'first_name': 'Michael', 'initials': 'MT', 'last_name': 'Davies-Coleman', 'id': 449}, 'first_author': False, 'id': 788}, {'author': {'first_name': '', 'initials': 'RV', 'last_name': 'Soest', 'id': 576}, 'first_author': False, 'id': 789}, {'author': {'first_name': '', 'initials': 'A', 'last_name': 'Balgi', 'id': 577}, 'first_author': False, 'id': 790}, {'author': {'first_name': '', 'initials': 'E', 'last_name': 'Donohue', 'id': 578}, 'first_author': False, 'id': 791}, {'author': {'first_name': '', 'initials': 'M', 'last_name': 'Roberge', 'id': 579}, 'first_author': False, 'id': 792}, {'author': {'first_name': '', 'initials': 'RJ', 'last_name': 'Andersen', 'id': 580}, 'first_author': False, 'id': 793}], 'id': 277}]

>  <classifications>  (188) 
[{'classification': 'Aminosteroid', 'id': 742}, {'classification': 'Steroid', 'id': 835}, {'classification': 'Steroids and steroid derivatives (Classyfire)', 'id': 942}]

>  <molecular_mass>  (188) 
443.66

$$$$
SANC00290_minRM1.pdb
     RDKit          3D

 64 69  0  0  1  0  0  0  0  0999 V2000
   -4.1690   -0.7570   -1.5120 H   0  0  0  0  0  0  0  0  0  0  0  0
   -4.1530   -0.7750   -0.3890 C   0  0  2  0  0  0  0  0  0  0  0  0
   -3.5200   -2.0930    0.0510 C   0  0  0  0  0  0  0  0  0  0  0  0
   -2.1030   -2.2030   -0.4980 C   0  0  0  0  0  0  0  0  0  0  0  0
   -1.2590   -1.0190   -0.0350 C   0  0  2  0  0  0  0  0  0  0  0  0
   -1.1860   -1.0440    1.0880 H   0  0  0  0  0  0  0  0  0  0  0  0
   -1.9050    0.3080   -0.4730 C   0  0  2  0  0  0  0  0  0  0  0  0
   -1.0290    1.5010   -0.0700 C   0  0  0  0  0  0  0  0  0  0  0  0
    0.3930    1.3810   -0.6180 C   0  0  0  0  0  0  0  0  0  0  0  0
    1.0190    0.0740   -0.1430 C   0  0  1  0  0  0  0  0  0  0  0  0
    1.1200    0.0630    1.3800 C   0  0  0  0  0  0  0  0  0  0  0  0
    0.1320   -1.0860   -0.6510 C   0  0  1  0  0  0  0  0  0  0  0  0
    0.0180   -1.0100   -1.7670 H   0  0  0  0  0  0  0  0  0  0  0  0
    0.9850   -2.3180   -0.3550 C   0  0  0  0  0  0  0  0  0  0  0  0
    2.4040   -1.8410   -0.7210 C   0  0  2  0  0  0  0  0  0  0  0  0
    2.7900   -2.3230   -1.6520 H   0  0  0  0  0  0  0  0  0  0  0  0
    3.3120   -2.1680    0.3170 O   0  0  0  0  0  0  0  0  0  0  0  0
    4.0340   -1.0690    0.6750 C   0  0  0  0  0  0  0  0  0  0  0  0
    4.8430   -1.1710    1.5660 O   0  0  0  0  0  0  0  0  0  0  0  0
    3.6620    0.1510   -0.1720 C   0  0  1  0  0  0  0  0  0  0  0  0
    3.6930    1.4820    0.5870 C   0  0  0  0  0  0  0  0  0  0  0  0
    4.9890    2.1530    0.1350 C   0  0  0  0  0  0  0  0  0  0  0  0
    5.4240    1.3280   -1.0420 C   0  0  0  0  0  0  0  0  0  0  0  0
    6.3080    1.4900   -1.8490 O   0  0  0  0  0  0  0  0  0  0  0  0
    4.6380    0.2120   -1.1930 O   0  0  0  0  0  0  0  0  0  0  0  0
    2.3500   -0.2850   -0.8280 C   0  0  2  0  0  0  0  0  0  0  0  0
    2.3220    0.0430   -1.8950 H   0  0  0  0  0  0  0  0  0  0  0  0
   -3.3290    0.4240    0.1150 C   0  0  2  0  0  0  0  0  0  0  0  0
   -3.2830    0.4540    1.6410 C   0  0  0  0  0  0  0  0  0  0  0  0
   -4.0000    1.7020   -0.4090 C   0  0  0  0  0  0  0  0  0  0  0  0
   -5.4450    1.8170    0.0580 C   0  0  0  0  0  0  0  0  0  0  0  0
   -6.2540    0.5980   -0.4120 C   0  0  2  0  0  0  0  0  0  0  0  0
   -6.2430    0.5740   -1.5430 H   0  0  0  0  0  0  0  0  0  0  0  0
   -7.6150    0.6900    0.1330 N   0  0  0  0  0  0  0  0  0  0  0  0
   -5.5940   -0.6880    0.1130 C   0  0  0  0  0  0  0  0  0  0  0  0
   -3.5250   -2.1990    1.1560 H   0  0  0  0  0  0  0  0  0  0  0  0
   -4.1290   -2.9530   -0.3030 H   0  0  0  0  0  0  0  0  0  0  0  0
   -1.6430   -3.1590   -0.1680 H   0  0  0  0  0  0  0  0  0  0  0  0
   -2.1210   -2.2720   -1.6060 H   0  0  0  0  0  0  0  0  0  0  0  0
   -1.9860    0.3110   -1.5930 H   0  0  0  0  0  0  0  0  0  0  0  0
   -1.4830    2.4460   -0.4420 H   0  0  0  0  0  0  0  0  0  0  0  0
   -1.0050    1.6350    1.0300 H   0  0  0  0  0  0  0  0  0  0  0  0
    0.3830    1.4440   -1.7270 H   0  0  0  0  0  0  0  0  0  0  0  0
    1.0160    2.2480   -0.3030 H   0  0  0  0  0  0  0  0  0  0  0  0
    0.1860   -0.2820    1.8590 H   0  0  0  0  0  0  0  0  0  0  0  0
    1.8930   -0.6050    1.7810 H   0  0  0  0  0  0  0  0  0  0  0  0
    1.3090    1.0560    1.8140 H   0  0  0  0  0  0  0  0  0  0  0  0
    0.9010   -2.6510    0.6990 H   0  0  0  0  0  0  0  0  0  0  0  0
    0.6870   -3.2030   -0.9490 H   0  0  0  0  0  0  0  0  0  0  0  0
    2.8080    2.1050    0.3360 H   0  0  0  0  0  0  0  0  0  0  0  0
    3.6630    1.3390    1.6840 H   0  0  0  0  0  0  0  0  0  0  0  0
    4.8610    3.2170   -0.1430 H   0  0  0  0  0  0  0  0  0  0  0  0
    5.7750    2.1490    0.9180 H   0  0  0  0  0  0  0  0  0  0  0  0
   -3.1110    1.4620    2.0450 H   0  0  0  0  0  0  0  0  0  0  0  0
   -4.2210    0.1010    2.1010 H   0  0  0  0  0  0  0  0  0  0  0  0
   -2.4840   -0.1830    2.0570 H   0  0  0  0  0  0  0  0  0  0  0  0
   -3.4330    2.6040   -0.0900 H   0  0  0  0  0  0  0  0  0  0  0  0
   -3.9560    1.7370   -1.5190 H   0  0  0  0  0  0  0  0  0  0  0  0
   -5.5040    1.9310    1.1610 H   0  0  0  0  0  0  0  0  0  0  0  0
   -5.8920    2.7560   -0.3350 H   0  0  0  0  0  0  0  0  0  0  0  0
   -8.0910    1.5480   -0.1160 H   0  0  0  0  0  0  0  0  0  0  0  0
   -8.1920   -0.1110   -0.0870 H   0  0  0  0  0  0  0  0  0  0  0  0
   -6.1690   -1.5820   -0.2090 H   0  0  0  0  0  0  0  0  0  0  0  0
   -5.6260   -0.7160    1.2260 H   0  0  0  0  0  0  0  0  0  0  0  0
  2  1  1  6
  2  3  1  0
  2 35  1  0
  2 28  1  0
  3  4  1  0
  3 37  1  0
  3 36  1  0
  4 39  1  0
  4 38  1  0
  4  5  1  0
  5 12  1  0
  5  7  1  0
  5  6  1  1
  7 40  1  6
  7  8  1  0
  7 28  1  0
  8  9  1  0
  8 41  1  0
  8 42  1  0
  9 43  1  0
  9 44  1  0
  9 10  1  0
 10 26  1  0
 10 12  1  0
 10 11  1  1
 11 46  1  0
 11 47  1  0
 11 45  1  0
 12 13  1  6
 12 14  1  0
 14 49  1  0
 14 15  1  0
 14 48  1  0
 15 16  1  6
 15 26  1  0
 15 17  1  0
 17 18  1  0
 18 19  2  0
 20 18  1  0
 20 25  1  6
 20 26  1  0
 20 21  1  0
 21 22  1  0
 21 50  1  0
 21 51  1  0
 22 23  1  0
 22 52  1  0
 22 53  1  0
 23 24  2  0
 23 25  1  0
 26 27  1  6
 28 30  1  0
 28 29  1  1
 29 54  1  0
 29 56  1  0
 29 55  1  0
 30 58  1  0
 30 57  1  0
 30 31  1  0
 31 32  1  0
 31 60  1  0
 31 59  1  0
 32 33  1  6
 32 35  1  0
 32 34  1  0
 34 61  1  0
 34 62  1  0
 35 63  1  0
 35 64  1  0
M  END
>  <id>  (189) 
290

>  <scaffolds>  (189) 
['O=C1CC2C(CC3C2CCC2C4CCCCC4CCC23)O1', 'C1CCC(C2CCCC2)CC1', 'C1CCCCC1', 'O=C1CCC2(O1)C(=O)OC1CC3C4CCC5CCCCC5C4CCC3C12', 'O=C1CCCO1', 'C1CCC2C(C1)CCC1C3CCCC3CCC21', 'C1CCC2C(C1)CCC1C2CCC2C(C3CCCO3)CCC21', 'C1CCC2CCCCC2C1']

>  <name>  (189) 
Clionamine D

>  <formula>  (189) 
C24H35NO4

>  <SMILES>  (189) 
[H][C@@]56CC[C@]1([H])C(CC[C@@]4(C)[C@@]1([H])C[C@]3([H])OC(=O)[C@]2(CCC(=O)O2)[C@@]34[H])[C@@]5(C)CC[C@H](N)C6

>  <ChEMBL_id>  (189) 


>  <ZINC_id>  (189) 


>  <PubChem_id>  (189) 


>  <DrugBank_id>  (189) 


>  <CAS_no>  (189) 
1042138-30-6

>  <references>  (189) 
[{'journal': {'name': 'Organic Letters', 'id': 20}, 'title': 'Autophagy-Modulating Aminosteroids Isolated from the Sponge Cliona celata', 'year': 2008, 'start_page': 2959, 'volume': 10, 'issue': 14, 'doi': '10.1021/ol800937u', 'isbn': '', 'despositor': {'code': 'TMM', 'first_name': 'Thommas', 'last_name': 'Musyoka', 'id': 22}, 'refauthors_set': [{'author': {'first_name': '', 'initials': 'RA', 'last_name': 'Keyzers', 'id': 546}, 'first_author': True, 'id': 786}, {'author': {'first_name': '', 'initials': 'J', 'last_name': 'Daoust', 'id': 575}, 'first_author': False, 'id': 787}, {'author': {'first_name': 'Michael', 'initials': 'MT', 'last_name': 'Davies-Coleman', 'id': 449}, 'first_author': False, 'id': 788}, {'author': {'first_name': '', 'initials': 'RV', 'last_name': 'Soest', 'id': 576}, 'first_author': False, 'id': 789}, {'author': {'first_name': '', 'initials': 'A', 'last_name': 'Balgi', 'id': 577}, 'first_author': False, 'id': 790}, {'author': {'first_name': '', 'initials': 'E', 'last_name': 'Donohue', 'id': 578}, 'first_author': False, 'id': 791}, {'author': {'first_name': '', 'initials': 'M', 'last_name': 'Roberge', 'id': 579}, 'first_author': False, 'id': 792}, {'author': {'first_name': '', 'initials': 'RJ', 'last_name': 'Andersen', 'id': 580}, 'first_author': False, 'id': 793}], 'id': 277}]

>  <classifications>  (189) 
[{'classification': 'Aminosteroid', 'id': 742}, {'classification': 'Steroid', 'id': 835}, {'classification': 'Steroids and steroid derivatives (Classyfire)', 'id': 942}]

>  <molecular_mass>  (189) 
401.54

$$$$
SANC00291_minRM1.pdb
     RDKit          3D

 52 55  0  0  1  0  0  0  0  0999 V2000
    1.0800   -3.1290    0.2740 C   0  0  0  0  0  0  0  0  0  0  0  0
    0.1010   -1.9710    0.4500 C   0  0  2  0  0  0  0  0  0  0  0  0
    0.2630   -1.5100    1.4610 H   0  0  0  0  0  0  0  0  0  0  0  0
   -1.3220   -2.5300    0.4140 C   0  0  0  0  0  0  0  0  0  0  0  0
   -2.4490   -1.5290    0.1970 C   0  0  2  0  0  0  0  0  0  0  0  0
   -3.3210   -2.1080   -0.2180 H   0  0  0  0  0  0  0  0  0  0  0  0
   -2.1230   -0.3260   -0.7020 C   0  0  1  0  0  0  0  0  0  0  0  0
   -2.2180   -0.6140   -1.7770 H   0  0  0  0  0  0  0  0  0  0  0  0
   -3.2210    0.6720   -0.3110 C   0  0  2  0  0  0  0  0  0  0  0  0
   -2.9180    2.1490   -0.5620 C   0  0  0  0  0  0  0  0  0  0  0  0
   -1.5130    2.5390   -1.0370 C   0  0  0  0  0  0  0  0  0  0  0  0
   -0.5750    1.3960   -1.4020 C   0  0  0  0  0  0  0  0  0  0  0  0
   -0.7310    0.2440   -0.4110 C   0  0  2  0  0  0  0  0  0  0  0  0
    0.3130   -0.8920   -0.6360 C   0  0  1  0  0  0  0  0  0  0  0  0
    1.7730   -0.3800   -0.7000 C   0  0  0  0  0  0  0  0  0  0  0  0
    2.4710   -0.1010    0.6280 C   0  0  0  0  0  0  0  0  0  0  0  0
    3.8500    0.3600    0.3650 C   0  0  0  0  0  0  0  0  0  0  0  0
    5.0230   -0.2940    0.6520 C   0  0  0  0  0  0  0  0  0  0  0  0
    6.0970    0.4650    0.2640 O   0  0  0  0  0  0  0  0  0  0  0  0
    5.5930    1.6190   -0.2790 C   0  0  0  0  0  0  0  0  0  0  0  0
    4.2220    1.6090   -0.2440 C   0  0  0  0  0  0  0  0  0  0  0  0
    0.0190   -1.4060   -1.9080 O   0  0  0  0  0  0  0  0  0  0  0  0
   -0.5600    0.7830    1.0080 C   0  0  0  0  0  0  0  0  0  0  0  0
   -3.3980    0.2950    1.1590 C   0  0  0  0  0  0  0  0  0  0  0  0
   -3.9110    0.8950    2.0750 O   0  0  0  0  0  0  0  0  0  0  0  0
   -2.9000   -0.9580    1.4200 O   0  0  0  0  0  0  0  0  0  0  0  0
   -4.5460    0.3120   -0.9910 C   0  0  0  0  0  0  0  0  0  0  0  0
    2.1140   -2.8550    0.5320 H   0  0  0  0  0  0  0  0  0  0  0  0
    0.8250   -3.9870    0.9130 H   0  0  0  0  0  0  0  0  0  0  0  0
    1.1070   -3.5060   -0.7630 H   0  0  0  0  0  0  0  0  0  0  0  0
   -1.4000   -3.2810   -0.4040 H   0  0  0  0  0  0  0  0  0  0  0  0
   -1.5170   -3.1080    1.3450 H   0  0  0  0  0  0  0  0  0  0  0  0
   -3.6380    2.5510   -1.3110 H   0  0  0  0  0  0  0  0  0  0  0  0
   -3.1730    2.7310    0.3510 H   0  0  0  0  0  0  0  0  0  0  0  0
   -1.6020    3.2220   -1.9110 H   0  0  0  0  0  0  0  0  0  0  0  0
   -1.0300    3.1830   -0.2690 H   0  0  0  0  0  0  0  0  0  0  0  0
   -0.7540    1.0530   -2.4440 H   0  0  0  0  0  0  0  0  0  0  0  0
    0.4800    1.7560   -1.4260 H   0  0  0  0  0  0  0  0  0  0  0  0
    2.3980   -1.1010   -1.2730 H   0  0  0  0  0  0  0  0  0  0  0  0
    1.7970    0.5440   -1.3260 H   0  0  0  0  0  0  0  0  0  0  0  0
    1.9360    0.6790    1.2170 H   0  0  0  0  0  0  0  0  0  0  0  0
    2.4950   -0.9950    1.2850 H   0  0  0  0  0  0  0  0  0  0  0  0
    5.2620   -1.2470    1.1060 H   0  0  0  0  0  0  0  0  0  0  0  0
    6.3320    2.3260   -0.6330 H   0  0  0  0  0  0  0  0  0  0  0  0
    3.5420    2.3740   -0.5920 H   0  0  0  0  0  0  0  0  0  0  0  0
    0.4630   -2.2580   -2.0010 H   0  0  0  0  0  0  0  0  0  0  0  0
   -1.3190    1.5050    1.3360 H   0  0  0  0  0  0  0  0  0  0  0  0
   -0.5600   -0.0040    1.7810 H   0  0  0  0  0  0  0  0  0  0  0  0
    0.3950    1.3250    1.1180 H   0  0  0  0  0  0  0  0  0  0  0  0
   -4.8700   -0.7220   -0.8040 H   0  0  0  0  0  0  0  0  0  0  0  0
   -5.3700    0.9550   -0.6440 H   0  0  0  0  0  0  0  0  0  0  0  0
   -4.4870    0.4240   -2.0840 H   0  0  0  0  0  0  0  0  0  0  0  0
  1 30  1  0
  1  2  1  0
  1 28  1  0
  1 29  1  0
  2 14  1  0
  2  4  1  0
  2  3  1  1
  4 31  1  0
  4  5  1  0
  4 32  1  0
  5  7  1  0
  5  6  1  6
  5 26  1  0
  7  8  1  6
  7 13  1  0
  7  9  1  0
  9 27  1  6
  9 10  1  0
  9 24  1  0
 10 33  1  0
 10 11  1  0
 10 34  1  0
 11 35  1  0
 11 12  1  0
 11 36  1  0
 12 37  1  0
 12 38  1  0
 12 13  1  0
 13 14  1  0
 13 23  1  1
 14 22  1  6
 14 15  1  0
 15 40  1  0
 15 39  1  0
 15 16  1  0
 16 17  1  0
 16 41  1  0
 16 42  1  0
 17 21  1  0
 17 18  2  0
 18 19  1  0
 18 43  1  0
 19 20  1  0
 20 44  1  0
 20 21  2  0
 21 45  1  0
 22 46  1  0
 23 49  1  0
 23 47  1  0
 23 48  1  0
 24 26  1  0
 24 25  2  0
 27 52  1  0
 27 50  1  0
 27 51  1  0
M  END
>  <id>  (190) 
291

>  <scaffolds>  (190) 
['c1ccoc1', 'C1CCCCC1', 'O=C1OC2CCC(CCc3ccoc3)C3CCCC1C23', 'O=C1CCCO1', 'C1CCC2CCCCC2C1']

>  <name>  (190) 
Marrubiin

>  <formula>  (190) 
C20H28O4

>  <SMILES>  (190) 
C[C@@H]1C[C@@H]2[C@H]3[C@](CCC[C@@]3([C@]1(CCC4=COC=C4)O)C)(C(=O)O2)C

>  <ChEMBL_id>  (190) 
CHEMBL1999372

>  <ZINC_id>  (190) 
ZINC03881918

>  <PubChem_id>  (190) 
 73401

>  <DrugBank_id>  (190) 


>  <CAS_no>  (190) 
465-92-9

>  <references>  (190) 
[{'journal': {'name': 'Journal of Ethnopharmacology', 'id': 7}, 'title': 'The cardioprotective effects of marrubiin, a diterpenoid found in Leonotis leonurus extracts', 'year': 2011, 'start_page': 67, 'volume': 138, 'issue': 1, 'doi': '10.1016/j.jep.2011.08.041', 'isbn': '', 'despositor': {'code': 'TMM', 'first_name': 'Thommas', 'last_name': 'Musyoka', 'id': 22}, 'refauthors_set': [{'author': {'first_name': '', 'initials': 'N', 'last_name': 'Mnonopia', 'id': 581}, 'first_author': True, 'id': 794}, {'author': {'first_name': '', 'initials': 'R', 'last_name': 'Levendala', 'id': 582}, 'first_author': False, 'id': 795}, {'author': {'first_name': 'Michael', 'initials': 'MT', 'last_name': 'Davies-Coleman', 'id': 449}, 'first_author': False, 'id': 796}, {'author': {'first_name': '', 'initials': 'CL', 'last_name': 'Frost', 'id': 583}, 'first_author': False, 'id': 797}], 'id': 278}]

>  <classifications>  (190) 
[{'classification': 'Diterpene', 'id': 771}, {'classification': 'Terpenoid', 'id': 839}, {'classification': 'Lactones (Classyfire)', 'id': 952}]

>  <molecular_mass>  (190) 
332.43

$$$$
SANC00292_minRM1.pdb
     RDKit          3D

 96 99  0  0  1  0  0  0  0  0999 V2000
    1.4380   -0.1580    3.6720 H   0  0  0  0  0  0  0  0  0  0  0  0
    2.0690   -0.3160    2.7530 C   0  0  1  0  0  0  0  0  0  0  0  0
    1.6460   -1.6380    2.0780 C   0  0  0  0  0  0  0  0  0  0  0  0
    0.4530   -1.4810    1.1980 C   0  0  0  0  0  0  0  0  0  0  0  0
   -0.7140   -2.0830    1.4420 C   0  0  0  0  0  0  0  0  0  0  0  0
   -1.7910   -1.9650    0.4510 C   0  0  0  0  0  0  0  0  0  0  0  0
   -1.7290   -1.4340   -0.6450 O   0  0  0  0  0  0  0  0  0  0  0  0
   -2.9460   -2.5440    0.8720 O   0  0  0  0  0  0  0  0  0  0  0  0
   -3.9990   -2.6900   -0.0650 C   0  0  1  0  0  0  0  0  0  0  0  0
   -3.6160   -2.9230   -1.0960 H   0  0  0  0  0  0  0  0  0  0  0  0
   -4.7930   -3.9010    0.4760 C   0  0  0  0  0  0  0  0  0  0  0  0
   -3.8680   -4.9520    0.4980 O   0  0  0  0  0  0  0  0  0  0  0  0
   -4.8310   -1.3970   -0.0660 C   0  0  0  0  0  0  0  0  0  0  0  0
   -5.8410   -1.3790   -1.2180 C   0  0  1  0  0  0  0  0  0  0  0  0
   -5.3570   -1.7470   -2.1680 H   0  0  0  0  0  0  0  0  0  0  0  0
   -6.8730   -2.2950   -1.0130 O   0  0  0  0  0  0  0  0  0  0  0  0
   -6.4420    0.0340   -1.4760 C   0  0  1  0  0  0  0  0  0  0  0  0
   -7.2450    0.6190   -0.3000 C   0  0  0  0  0  0  0  0  0  0  0  0
   -6.8440    2.0980   -0.2600 C   0  0  1  0  0  0  0  0  0  0  0  0
   -7.6950    2.7350   -0.6130 H   0  0  0  0  0  0  0  0  0  0  0  0
   -6.5020    2.5260    1.1570 C   0  0  0  0  0  0  0  0  0  0  0  0
   -5.6900    2.2110   -1.2900 C   0  0  1  0  0  0  0  0  0  0  0  0
   -6.0540    2.7930   -2.1810 H   0  0  0  0  0  0  0  0  0  0  0  0
   -4.3850    2.8190   -0.7610 C   0  0  0  0  0  0  0  0  0  0  0  0
   -3.4140    3.1010   -1.8620 C   0  0  0  0  0  0  0  0  0  0  0  0
   -2.0940    3.1660   -1.6680 C   0  0  0  0  0  0  0  0  0  0  0  0
   -1.4640    2.8740   -0.3890 C   0  0  0  0  0  0  0  0  0  0  0  0
   -0.3730    3.5180    0.0360 C   0  0  0  0  0  0  0  0  0  0  0  0
    0.2860    3.1860    1.3400 C   0  0  2  0  0  0  0  0  0  0  0  0
   -0.1910    2.2760    1.7900 H   0  0  0  0  0  0  0  0  0  0  0  0
    0.0990    4.3580    2.3000 C   0  0  0  0  0  0  0  0  0  0  0  0
    1.7770    2.9090    1.0950 C   0  0  0  0  0  0  0  0  0  0  0  0
    2.3510    1.9550    2.1560 C   0  0  2  0  0  0  0  0  0  0  0  0
    2.0250    2.2700    3.1860 H   0  0  0  0  0  0  0  0  0  0  0  0
    3.8880    1.9010    2.1000 C   0  0  0  0  0  0  0  0  0  0  0  0
    4.3950    0.4520    2.1300 C   0  0  2  0  0  0  0  0  0  0  0  0
    5.4800    0.4310    2.4220 H   0  0  0  0  0  0  0  0  0  0  0  0
    4.1700   -0.0530    0.8330 O   0  0  0  0  0  0  0  0  0  0  0  0
    5.1190   -0.9680    0.3570 C   0  0  2  0  0  0  0  0  0  0  0  0
    5.4360   -1.7440    1.1040 H   0  0  0  0  0  0  0  0  0  0  0  0
    6.2990   -0.2770    0.0920 O   0  0  0  0  0  0  0  0  0  0  0  0
    6.2470    0.6930   -0.9280 C   0  0  1  0  0  0  0  0  0  0  0  0
    5.5550    1.5330   -0.6490 H   0  0  0  0  0  0  0  0  0  0  0  0
    7.6800    1.2130   -1.0430 C   0  0  0  0  0  0  0  0  0  0  0  0
    5.7830    0.0460   -2.2550 C   0  0  2  0  0  0  0  0  0  0  0  0
    6.5060   -0.7430   -2.5950 H   0  0  0  0  0  0  0  0  0  0  0  0
    5.5910    1.0410   -3.2180 O   0  0  0  0  0  0  0  0  0  0  0  0
    4.3800   -0.5670   -2.0320 C   0  0  1  0  0  0  0  0  0  0  0  0
    3.6420    0.2320   -1.7420 H   0  0  0  0  0  0  0  0  0  0  0  0
    3.9630   -1.2770   -3.1570 O   0  0  0  0  0  0  0  0  0  0  0  0
    4.4720   -1.6120   -0.9000 C   0  0  1  0  0  0  0  0  0  0  0  0
    3.4400   -1.9820   -0.6590 H   0  0  0  0  0  0  0  0  0  0  0  0
    5.3570   -2.6180   -1.3210 O   0  0  0  0  0  0  0  0  0  0  0  0
    4.8910   -3.9240   -1.1040 C   0  0  0  0  0  0  0  0  0  0  0  0
    3.5600   -0.3460    3.1390 C   0  0  0  0  0  0  0  0  0  0  0  0
    1.7940    0.7040    1.8280 O   0  0  0  0  0  0  0  0  0  0  0  0
   -5.3710    0.9070   -1.7350 O   0  0  0  0  0  0  0  0  0  0  0  0
    2.4730   -2.0390    1.4450 H   0  0  0  0  0  0  0  0  0  0  0  0
    1.4990   -2.4140    2.8660 H   0  0  0  0  0  0  0  0  0  0  0  0
    0.6030   -0.8590    0.3030 H   0  0  0  0  0  0  0  0  0  0  0  0
   -0.9140   -2.6840    2.3310 H   0  0  0  0  0  0  0  0  0  0  0  0
   -5.2190   -3.6900    1.4840 H   0  0  0  0  0  0  0  0  0  0  0  0
   -5.6520   -4.1360   -0.1900 H   0  0  0  0  0  0  0  0  0  0  0  0
   -4.2950   -5.6980    0.9320 H   0  0  0  0  0  0  0  0  0  0  0  0
   -5.3210   -1.2540    0.9180 H   0  0  0  0  0  0  0  0  0  0  0  0
   -4.1460   -0.5210   -0.1640 H   0  0  0  0  0  0  0  0  0  0  0  0
   -7.4270   -1.9790   -0.2910 H   0  0  0  0  0  0  0  0  0  0  0  0
   -7.0860   -0.0170   -2.4000 H   0  0  0  0  0  0  0  0  0  0  0  0
   -8.3410    0.4880   -0.4430 H   0  0  0  0  0  0  0  0  0  0  0  0
   -7.0340    0.1090    0.6660 H   0  0  0  0  0  0  0  0  0  0  0  0
   -5.6680    1.9580    1.5920 H   0  0  0  0  0  0  0  0  0  0  0  0
   -6.2380    3.5910    1.2230 H   0  0  0  0  0  0  0  0  0  0  0  0
   -7.3600    2.3820    1.8340 H   0  0  0  0  0  0  0  0  0  0  0  0
   -4.5960    3.7830   -0.2410 H   0  0  0  0  0  0  0  0  0  0  0  0
   -3.9380    2.1500    0.0110 H   0  0  0  0  0  0  0  0  0  0  0  0
   -3.8360    3.2930   -2.8520 H   0  0  0  0  0  0  0  0  0  0  0  0
   -1.4200    3.4250   -2.4940 H   0  0  0  0  0  0  0  0  0  0  0  0
   -1.9320    2.0710    0.1980 H   0  0  0  0  0  0  0  0  0  0  0  0
    0.0930    4.3230   -0.5440 H   0  0  0  0  0  0  0  0  0  0  0  0
   -0.9650    4.5480    2.5030 H   0  0  0  0  0  0  0  0  0  0  0  0
    0.5780    4.1780    3.2730 H   0  0  0  0  0  0  0  0  0  0  0  0
    0.5160    5.2970    1.9090 H   0  0  0  0  0  0  0  0  0  0  0  0
    1.9330    2.4760    0.0820 H   0  0  0  0  0  0  0  0  0  0  0  0
    2.3550    3.8570    1.0870 H   0  0  0  0  0  0  0  0  0  0  0  0
    4.2850    2.4260    1.2060 H   0  0  0  0  0  0  0  0  0  0  0  0
    4.3180    2.4610    2.9560 H   0  0  0  0  0  0  0  0  0  0  0  0
    8.3820    0.4400   -1.3880 H   0  0  0  0  0  0  0  0  0  0  0  0
    7.7470    2.0590   -1.7410 H   0  0  0  0  0  0  0  0  0  0  0  0
    8.0630    1.5690   -0.0750 H   0  0  0  0  0  0  0  0  0  0  0  0
    6.4510    1.2570   -3.5860 H   0  0  0  0  0  0  0  0  0  0  0  0
    3.8310   -0.6380   -3.8650 H   0  0  0  0  0  0  0  0  0  0  0  0
    5.6960   -4.5650   -1.4920 H   0  0  0  0  0  0  0  0  0  0  0  0
    4.7320   -4.1550   -0.0350 H   0  0  0  0  0  0  0  0  0  0  0  0
    3.9610   -4.1560   -1.6570 H   0  0  0  0  0  0  0  0  0  0  0  0
    3.7080    0.0860    4.1510 H   0  0  0  0  0  0  0  0  0  0  0  0
    3.9340   -1.3850    3.2330 H   0  0  0  0  0  0  0  0  0  0  0  0
  2  1  1  1
  2 56  1  0
  2  3  1  0
  2 55  1  0
  3  4  1  0
  3 58  1  0
  3 59  1  0
  4 60  1  0
  4  5  2  0
  5  6  1  0
  5 61  1  0
  6  7  2  0
  6  8  1  0
  8  9  1  0
  9 10  1  6
  9 13  1  0
  9 11  1  0
 11 63  1  0
 11 12  1  0
 11 62  1  0
 12 64  1  0
 13 14  1  0
 13 66  1  0
 13 65  1  0
 14 15  1  6
 14 17  1  0
 14 16  1  0
 16 67  1  0
 17 68  1  6
 17 57  1  0
 17 18  1  0
 18 69  1  0
 18 19  1  0
 18 70  1  0
 19 22  1  0
 19 20  1  6
 19 21  1  0
 21 72  1  0
 21 71  1  0
 21 73  1  0
 22 23  1  6
 22 57  1  0
 22 24  1  0
 24 25  1  0
 24 74  1  0
 24 75  1  0
 25 76  1  0
 25 26  2  0
 26 77  1  0
 26 27  1  0
 27 28  2  0
 27 78  1  0
 28 79  1  0
 28 29  1  0
 29 32  1  0
 29 30  1  1
 29 31  1  0
 31 82  1  0
 31 80  1  0
 31 81  1  0
 32 83  1  0
 32 84  1  0
 32 33  1  0
 33 56  1  0
 33 35  1  0
 33 34  1  1
 35 85  1  0
 35 36  1  0
 35 86  1  0
 36 38  1  0
 36 37  1  1
 36 55  1  0
 38 39  1  0
 39 51  1  0
 39 41  1  0
 39 40  1  1
 41 42  1  0
 42 45  1  0
 42 44  1  0
 42 43  1  1
 44 88  1  0
 44 87  1  0
 44 89  1  0
 45 47  1  0
 45 46  1  6
 45 48  1  0
 47 90  1  0
 48 50  1  0
 48 49  1  1
 48 51  1  0
 50 91  1  0
 51 53  1  0
 51 52  1  1
 53 54  1  0
 54 94  1  0
 54 92  1  0
 54 93  1  0
 55 96  1  0
 55 95  1  0
M  END
>  <id>  (191) 
292

>  <scaffolds>  (191) 
['C1CCOCC1']

>  <name>  (191) 
Mandelalide A

>  <formula>  (191) 
C33H52O11

>  <SMILES>  (191) 
[H][C@]23CC=CC(=O)O[C@@H](CO)C[C@@H](O)C4C[C@@H](C)[C@@]([H])(CC=CC=C[C@H](C)C[C@]([H])(C[C@H](O[C@]1([H])O[C@@H](C)[C@H](O)[C@@H](O)[C@H]1OC)C2)O3)O4

>  <ChEMBL_id>  (191) 


>  <ZINC_id>  (191) 


>  <PubChem_id>  (191) 


>  <DrugBank_id>  (191) 


>  <CAS_no>  (191) 
1384352-14-0

>  <references>  (191) 
[{'journal': {'name': 'The Journal of Organic Chemistry', 'id': 21}, 'title': 'Mandelalides A-D, Cytotoxic Macrolides from a New Lissoclinum Species of South African Tunicate', 'year': 2012, 'start_page': 6066, 'volume': 77, 'issue': 14, 'doi': '10.1021/jo3008622', 'isbn': '', 'despositor': {'code': 'TMM', 'first_name': 'Thommas', 'last_name': 'Musyoka', 'id': 22}, 'refauthors_set': [{'author': {'first_name': '', 'initials': 'J', 'last_name': 'Sikorska', 'id': 571}, 'first_author': True, 'id': 798}, {'author': {'first_name': '', 'initials': 'AM', 'last_name': 'Hau', 'id': 584}, 'first_author': False, 'id': 799}, {'author': {'first_name': '', 'initials': 'C', 'last_name': 'Anklin', 'id': 585}, 'first_author': False, 'id': 800}, {'author': {'first_name': '', 'initials': 'S', 'last_name': 'Parker-Nance', 'id': 572}, 'first_author': False, 'id': 801}, {'author': {'first_name': 'Michael', 'initials': 'MT', 'last_name': 'Davies-Coleman', 'id': 449}, 'first_author': False, 'id': 802}, {'author': {'first_name': '', 'initials': 'JE', 'last_name': 'Ishmael', 'id': 586}, 'first_author': False, 'id': 803}, {'author': {'first_name': 'Kerry', 'initials': 'KL', 'last_name': 'McPhail', 'id': 483}, 'first_author': False, 'id': 804}], 'id': 279}]

>  <classifications>  (191) 
[{'classification': 'Polyketide', 'id': 810}, {'classification': 'Macrolides and analogues (Classyfire)', 'id': 945}]

>  <molecular_mass>  (191) 
624.76

$$$$
SANC00293_minRM1.pdb
     RDKit          3D

108112  0  0  1  0  0  0  0  0999 V2000
    3.0870   -1.3360    0.2900 H   0  0  0  0  0  0  0  0  0  0  0  0
   -1.1810    0.0830   -3.3670 H   0  0  0  0  0  0  0  0  0  0  0  0
   -0.6710   -1.8000   -1.8520 H   0  0  0  0  0  0  0  0  0  0  0  0
    6.0350    3.8930    2.3370 H   0  0  0  0  0  0  0  0  0  0  0  0
    6.3880    0.8980    2.7270 H   0  0  0  0  0  0  0  0  0  0  0  0
   -5.2050   -1.3730    0.4800 H   0  0  0  0  0  0  0  0  0  0  0  0
    3.2130   -4.5480   -4.3900 C   0  0  0  0  0  0  0  0  0  0  0  0
   -5.2950   -1.0660    3.3270 C   0  0  0  0  0  0  0  0  0  0  0  0
   -0.2220    3.5910   -3.8400 C   0  0  0  0  0  0  0  0  0  0  0  0
    7.0020    3.4290   -0.8840 C   0  0  0  0  0  0  0  0  0  0  0  0
   -7.6210    1.6750   -1.3520 C   0  0  0  0  0  0  0  0  0  0  0  0
    0.0320   -4.4240   -1.4720 O   0  0  0  0  0  0  0  0  0  0  0  0
    2.1360   -4.5500    2.2400 O   0  0  0  0  0  0  0  0  0  0  0  0
    4.8790    0.0590   -0.1850 O   0  0  0  0  0  0  0  0  0  0  0  0
   -7.3960    2.0870    1.4880 O   0  0  0  0  0  0  0  0  0  0  0  0
   -4.8700    2.6730    2.6570 O   0  0  0  0  0  0  0  0  0  0  0  0
    0.0050   -2.5880    2.9110 O   0  0  0  0  0  0  0  0  0  0  0  0
    2.5660    3.4960   -0.3590 C   0  0  0  0  0  0  0  0  0  0  0  0
    1.8230    2.8770   -1.4470 C   0  0  0  0  0  0  0  0  0  0  0  0
    3.9030    3.5790   -0.3790 C   0  0  0  0  0  0  0  0  0  0  0  0
    0.5010    3.0230   -1.5870 C   0  0  0  0  0  0  0  0  0  0  0  0
    2.1330   -4.7260   -3.3370 C   0  0  0  0  0  0  0  0  0  0  0  0
    2.1090   -3.5290   -2.3900 C   0  0  0  0  0  0  0  0  0  0  0  0
    4.6810    4.2620    0.6900 C   0  0  0  0  0  0  0  0  0  0  0  0
   -1.6630    2.0370   -2.4830 C   0  0  0  0  0  0  0  0  0  0  0  0
    7.1950    1.5320    0.7690 C   0  0  0  0  0  0  0  0  0  0  0  0
    4.0840   -0.4600    2.0630 C   0  0  0  0  0  0  0  0  0  0  0  0
   -3.2750    0.0690   -2.7760 C   0  0  0  0  0  0  0  0  0  0  0  0
   -2.7770   -1.9200   -1.3290 C   0  0  0  0  0  0  0  0  0  0  0  0
   -0.8700   -1.4930    0.3400 C   0  0  0  0  0  0  0  0  0  0  0  0
    1.6220   -1.0530    1.9110 C   0  0  0  0  0  0  0  0  0  0  0  0
   -5.6810    0.0660    2.5920 O   0  0  0  0  0  0  0  0  0  0  0  0
    1.0700   -2.7290   -0.4290 O   0  0  0  0  0  0  0  0  0  0  0  0
    3.2930   -2.7230    1.7820 O   0  0  0  0  0  0  0  0  0  0  0  0
   -6.1880    0.1340   -0.3400 O   0  0  0  0  0  0  0  0  0  0  0  0
   -3.9360    0.0140   -0.5190 O   0  0  0  0  0  0  0  0  0  0  0  0
   -1.3460    0.0630   -1.2940 O   0  0  0  0  0  0  0  0  0  0  0  0
    5.1200    2.1700    1.7220 O   0  0  0  0  0  0  0  0  0  0  0  0
    0.9720   -3.6540   -1.4250 C   0  0  0  0  0  0  0  0  0  0  0  0
    2.1100   -3.3700    1.9830 C   0  0  0  0  0  0  0  0  0  0  0  0
   -0.2190    2.4780   -2.7860 C   0  0  1  0  0  0  0  0  0  0  0  0
    7.0250    3.0470    0.5840 C   0  0  2  0  0  0  0  0  0  0  0  0
   -6.2960    1.5110   -0.6120 C   0  0  2  0  0  0  0  0  0  0  0  0
    5.2700   -0.1290    1.1360 C   0  0  2  0  0  0  0  0  0  0  0  0
   -3.7990   -0.8240   -1.6460 C   0  0  1  0  0  0  0  0  0  0  0  0
   -6.2800    2.3190    0.7040 C   0  0  2  0  0  0  0  0  0  0  0  0
   -4.9580    2.0020    1.4490 C   0  0  2  0  0  0  0  0  0  0  0  0
    0.0850   -2.6720    0.5800 C   0  0  1  0  0  0  0  0  0  0  0  0
   -4.7410    0.4830    1.6350 C   0  0  2  0  0  0  0  0  0  0  0  0
    3.0440   -1.3720    1.4110 C   0  0  2  0  0  0  0  0  0  0  0  0
   -1.8180    0.5040   -2.5390 C   0  0  2  0  0  0  0  0  0  0  0  0
   -1.3710   -1.3340   -1.1090 C   0  0  2  0  0  0  0  0  0  0  0  0
    5.7420    3.3860    1.3760 C   0  0  1  0  0  0  0  0  0  0  0  0
    6.0380    1.1050    1.6840 C   0  0  1  0  0  0  0  0  0  0  0  0
   -5.0250   -0.2770    0.3110 C   0  0  1  0  0  0  0  0  0  0  0  0
    0.9120   -2.4160    1.8790 C   0  0  1  0  0  0  0  0  0  0  0  0
    3.2670   -5.4160   -5.0630 H   0  0  0  0  0  0  0  0  0  0  0  0
    3.0310   -3.6700   -5.0280 H   0  0  0  0  0  0  0  0  0  0  0  0
    4.2120   -4.4210   -3.9510 H   0  0  0  0  0  0  0  0  0  0  0  0
   -6.1740   -1.2920    3.9510 H   0  0  0  0  0  0  0  0  0  0  0  0
   -5.0700   -1.9480    2.7050 H   0  0  0  0  0  0  0  0  0  0  0  0
   -4.4310   -0.8750    3.9840 H   0  0  0  0  0  0  0  0  0  0  0  0
    0.7970    3.9380   -4.0710 H   0  0  0  0  0  0  0  0  0  0  0  0
   -0.6670    3.2630   -4.7910 H   0  0  0  0  0  0  0  0  0  0  0  0
   -0.7890    4.4750   -3.5110 H   0  0  0  0  0  0  0  0  0  0  0  0
    6.1770    2.9480   -1.4360 H   0  0  0  0  0  0  0  0  0  0  0  0
    6.8990    4.5130   -1.0360 H   0  0  0  0  0  0  0  0  0  0  0  0
    7.9310    3.1320   -1.3920 H   0  0  0  0  0  0  0  0  0  0  0  0
   -8.4760    1.2930   -0.7740 H   0  0  0  0  0  0  0  0  0  0  0  0
   -7.8230    2.7320   -1.5710 H   0  0  0  0  0  0  0  0  0  0  0  0
   -7.6220    1.1310   -2.3080 H   0  0  0  0  0  0  0  0  0  0  0  0
    4.4770    0.9430   -0.2690 H   0  0  0  0  0  0  0  0  0  0  0  0
   -7.4880    1.1360    1.6500 H   0  0  0  0  0  0  0  0  0  0  0  0
   -5.6400    2.4600    3.1920 H   0  0  0  0  0  0  0  0  0  0  0  0
    0.4840   -2.6070    3.7470 H   0  0  0  0  0  0  0  0  0  0  0  0
    1.9790    3.9120    0.4660 H   0  0  0  0  0  0  0  0  0  0  0  0
    2.4100    2.2920   -2.1680 H   0  0  0  0  0  0  0  0  0  0  0  0
    4.4950    3.1690   -1.2100 H   0  0  0  0  0  0  0  0  0  0  0  0
   -0.0970    3.5990   -0.8720 H   0  0  0  0  0  0  0  0  0  0  0  0
    1.1400   -4.8610   -3.8170 H   0  0  0  0  0  0  0  0  0  0  0  0
    2.2950   -5.6620   -2.7630 H   0  0  0  0  0  0  0  0  0  0  0  0
    3.0710   -3.4330   -1.8440 H   0  0  0  0  0  0  0  0  0  0  0  0
    2.0030   -2.5730   -2.9460 H   0  0  0  0  0  0  0  0  0  0  0  0
    5.1680    5.1740    0.2730 H   0  0  0  0  0  0  0  0  0  0  0  0
    4.0020    4.6670    1.4700 H   0  0  0  0  0  0  0  0  0  0  0  0
   -2.0190    2.4180   -1.5000 H   0  0  0  0  0  0  0  0  0  0  0  0
   -2.3660    2.4930   -3.2130 H   0  0  0  0  0  0  0  0  0  0  0  0
    7.1910    0.9870   -0.1980 H   0  0  0  0  0  0  0  0  0  0  0  0
    8.1790    1.2740    1.2090 H   0  0  0  0  0  0  0  0  0  0  0  0
    4.4730   -0.9070    3.0040 H   0  0  0  0  0  0  0  0  0  0  0  0
    3.5790    0.4720    2.3930 H   0  0  0  0  0  0  0  0  0  0  0  0
   -3.3550   -0.4830   -3.7360 H   0  0  0  0  0  0  0  0  0  0  0  0
   -3.9480    0.9410   -2.9100 H   0  0  0  0  0  0  0  0  0  0  0  0
   -3.1080   -2.5250   -0.4620 H   0  0  0  0  0  0  0  0  0  0  0  0
   -2.7570   -2.6520   -2.1640 H   0  0  0  0  0  0  0  0  0  0  0  0
   -1.7180   -1.5790    1.0510 H   0  0  0  0  0  0  0  0  0  0  0  0
   -0.3820   -0.5370    0.6480 H   0  0  0  0  0  0  0  0  0  0  0  0
    1.6150   -0.6120    2.9280 H   0  0  0  0  0  0  0  0  0  0  0  0
    1.1400   -0.2810    1.2760 H   0  0  0  0  0  0  0  0  0  0  0  0
    0.3550    1.6070   -3.1980 H   0  0  0  0  0  0  0  0  0  0  0  0
    7.8830    3.5880    1.0580 H   0  0  0  0  0  0  0  0  0  0  0  0
   -5.4540    1.8680   -1.2660 H   0  0  0  0  0  0  0  0  0  0  0  0
    5.9650   -1.0090    1.0680 H   0  0  0  0  0  0  0  0  0  0  0  0
   -4.7740   -1.2890   -1.9610 H   0  0  0  0  0  0  0  0  0  0  0  0
   -6.3430    3.4180    0.4890 H   0  0  0  0  0  0  0  0  0  0  0  0
   -4.0940    2.4100    0.8560 H   0  0  0  0  0  0  0  0  0  0  0  0
   -0.4940   -3.6280    0.7000 H   0  0  0  0  0  0  0  0  0  0  0  0
   -3.6830    0.2960    1.9630 H   0  0  0  0  0  0  0  0  0  0  0  0
  7 57  1  0
  7 58  1  0
  7 59  1  0
  7 22  1  0
  8 32  1  0
  8 61  1  0
  8 60  1  0
  8 62  1  0
  9 64  1  0
  9 63  1  0
  9 65  1  0
  9 41  1  0
 10 66  1  0
 10 68  1  0
 10 67  1  0
 10 42  1  0
 11 71  1  0
 11 70  1  0
 11 69  1  0
 11 43  1  0
 12 39  2  0
 13 40  2  0
 14 72  1  0
 14 44  1  0
 15 46  1  0
 15 73  1  0
 16 47  1  0
 16 74  1  0
 17 75  1  0
 18 19  1  0
 18 20  2  0
 18 76  1  0
 19 77  1  0
 19 21  2  0
 20 78  1  0
 20 24  1  0
 21 41  1  0
 21 79  1  0
 22 80  1  0
 22 81  1  0
 22 23  1  0
 23 83  1  0
 23 82  1  0
 23 39  1  0
 24 84  1  0
 24 53  1  0
 24 85  1  0
 25 87  1  0
 25 41  1  0
 25 51  1  0
 25 86  1  0
 26 88  1  0
 26 42  1  0
 26 89  1  0
 26 54  1  0
 27 44  1  0
 27 50  1  0
 27 91  1  0
 27 90  1  0
 28 92  1  0
 28 93  1  0
 28 51  1  0
 28 45  1  0
 29 95  1  0
 29 45  1  0
 29 52  1  0
 29 94  1  0
 30 52  1  0
 30 48  1  0
 30 97  1  0
 30 96  1  0
 31 99  1  0
 31 50  1  0
 31 56  1  0
 31 98  1  0
 32 49  1  0
 33 39  1  0
 33 48  1  0
 34 50  1  0
 34 40  1  0
 35 43  1  0
 35 55  1  0
 36 45  1  0
 36 55  1  0
 37 51  1  0
 37 52  1  0
 38 53  1  0
 38 54  1  0
 40 56  1  0
 41100  1  6
 42101  1  1
 42 53  1  0
 43102  1  6
 43 46  1  0
 44103  1  6
 44 54  1  0
 45104  1  6
 46105  1  6
 46 47  1  0
 47106  1  6
 47 49  1  0
 48107  1  1
 48 56  1  0
 49 55  1  0
 49108  1  1
 50  1  1  6
 51  2  1  6
 52  3  1  6
 53  4  1  1
 54  5  1  1
 55  6  1  1
 56 17  1  1
M  END
>  <id>  (192) 
293

>  <scaffolds>  (192) 
['C1CCOCC1', 'O=C1OC2CCC3CCC(CC=CC=CCCC4CCCC(CCC1C2)O4)O3', 'O=C1CCCO1', 'O=C1OC2CCC3CCC(CC=CC=CCCC4CC(OC5CCCCO5)CC(CCC1C2)O4)O3']

>  <name>  (192) 
Mandelalide B

>  <formula>  (192) 
C37H58O13

>  <SMILES>  (192) 
[H][C@@]23C[C@@H](O)[C@@]5([H])C[C@@H](C)[C@@]([H])(CC=CC=C[C@H](C)C[C@]4([H])C[C@H](O[C@]1([H])O[C@@H](C)[C@@H](O)[C@@H](O)[C@H]1OC)C[C@]([H])(C[C@@H](OC(=O)CCC)[C@](O)(C2)C(=O)O3)O4)O5

>  <ChEMBL_id>  (192) 


>  <ZINC_id>  (192) 


>  <PubChem_id>  (192) 


>  <DrugBank_id>  (192) 


>  <CAS_no>  (192) 
1384352-15-1

>  <references>  (192) 
[{'journal': {'name': 'The Journal of Organic Chemistry', 'id': 21}, 'title': 'Mandelalides A-D, Cytotoxic Macrolides from a New Lissoclinum Species of South African Tunicate', 'year': 2012, 'start_page': 6066, 'volume': 77, 'issue': 14, 'doi': '10.1021/jo3008622', 'isbn': '', 'despositor': {'code': 'TMM', 'first_name': 'Thommas', 'last_name': 'Musyoka', 'id': 22}, 'refauthors_set': [{'author': {'first_name': '', 'initials': 'J', 'last_name': 'Sikorska', 'id': 571}, 'first_author': True, 'id': 798}, {'author': {'first_name': '', 'initials': 'AM', 'last_name': 'Hau', 'id': 584}, 'first_author': False, 'id': 799}, {'author': {'first_name': '', 'initials': 'C', 'last_name': 'Anklin', 'id': 585}, 'first_author': False, 'id': 800}, {'author': {'first_name': '', 'initials': 'S', 'last_name': 'Parker-Nance', 'id': 572}, 'first_author': False, 'id': 801}, {'author': {'first_name': 'Michael', 'initials': 'MT', 'last_name': 'Davies-Coleman', 'id': 449}, 'first_author': False, 'id': 802}, {'author': {'first_name': '', 'initials': 'JE', 'last_name': 'Ishmael', 'id': 586}, 'first_author': False, 'id': 803}, {'author': {'first_name': 'Kerry', 'initials': 'KL', 'last_name': 'McPhail', 'id': 483}, 'first_author': False, 'id': 804}], 'id': 279}]

>  <classifications>  (192) 
[{'classification': 'Polyketide', 'id': 810}, {'classification': 'Macrolides and analogues (Classyfire)', 'id': 945}]

>  <molecular_mass>  (192) 
710.85

$$$$
SANC00294_minRM1.pdb
     RDKit          3D

 86 89  0  0  1  0  0  0  0  0999 V2000
   -1.4190   -3.2930    1.2870 H   0  0  0  0  0  0  0  0  0  0  0  0
   -1.8900   -0.7420    0.7170 H   0  0  0  0  0  0  0  0  0  0  0  0
    6.5240    1.3290   -1.1990 H   0  0  0  0  0  0  0  0  0  0  0  0
    4.5130    3.4020   -0.1800 H   0  0  0  0  0  0  0  0  0  0  0  0
   -1.0760    1.4800    1.1740 H   0  0  0  0  0  0  0  0  0  0  0  0
    0.5120    3.2210    1.2590 H   0  0  0  0  0  0  0  0  0  0  0  0
   -6.7460    2.6840    3.1140 C   0  0  0  0  0  0  0  0  0  0  0  0
    1.3290   -5.5970    0.8610 C   0  0  0  0  0  0  0  0  0  0  0  0
    6.7830    0.2660    1.9980 C   0  0  0  0  0  0  0  0  0  0  0  0
   -5.1830    1.6000   -0.7890 O   0  0  0  0  0  0  0  0  0  0  0  0
   -1.4510    3.4850   -2.3830 O   0  0  0  0  0  0  0  0  0  0  0  0
   -4.6660   -2.9950   -1.1790 O   0  0  0  0  0  0  0  0  0  0  0  0
    2.7230    1.1350    1.5850 O   0  0  0  0  0  0  0  0  0  0  0  0
    0.4010    0.2460    0.3880 O   0  0  0  0  0  0  0  0  0  0  0  0
   -0.3720    0.6980   -2.0230 O   0  0  0  0  0  0  0  0  0  0  0  0
    3.7590   -1.9820   -0.4940 C   0  0  0  0  0  0  0  0  0  0  0  0
    2.6900   -2.6290    0.2500 C   0  0  0  0  0  0  0  0  0  0  0  0
    4.7370   -1.3130    0.1150 C   0  0  0  0  0  0  0  0  0  0  0  0
    1.8810   -3.5300   -0.3170 C   0  0  0  0  0  0  0  0  0  0  0  0
   -6.3620    2.3240    1.6890 C   0  0  0  0  0  0  0  0  0  0  0  0
   -4.8520    2.1780    1.5650 C   0  0  0  0  0  0  0  0  0  0  0  0
    5.8390   -0.6410   -0.6300 C   0  0  0  0  0  0  0  0  0  0  0  0
   -0.4890   -4.3640   -0.3840 C   0  0  0  0  0  0  0  0  0  0  0  0
   -2.9940   -4.2410    0.1100 C   0  0  0  0  0  0  0  0  0  0  0  0
   -3.7160   -1.9080    0.7300 C   0  0  0  0  0  0  0  0  0  0  0  0
    5.4270    2.3270    1.5100 C   0  0  0  0  0  0  0  0  0  0  0  0
   -2.9140   -0.4640   -1.2220 C   0  0  0  0  0  0  0  0  0  0  0  0
    1.9390    2.4780   -0.2530 C   0  0  0  0  0  0  0  0  0  0  0  0
   -3.1250    1.5400    0.0960 O   0  0  0  0  0  0  0  0  0  0  0  0
   -0.1430    3.5660   -0.6130 O   0  0  0  0  0  0  0  0  0  0  0  0
   -1.6810   -2.3420   -0.5530 O   0  0  0  0  0  0  0  0  0  0  0  0
    4.6000    1.3750   -0.5070 O   0  0  0  0  0  0  0  0  0  0  0  0
   -4.4680    1.7550    0.1770 C   0  0  0  0  0  0  0  0  0  0  0  0
   -0.9410    2.8760   -1.4720 C   0  0  0  0  0  0  0  0  0  0  0  0
    0.7990   -4.2220    0.4510 C   0  0  1  0  0  0  0  0  0  0  0  0
    6.4800    1.3480    0.9800 C   0  0  2  0  0  0  0  0  0  0  0  0
   -4.1570   -3.2330    0.0970 C   0  0  1  0  0  0  0  0  0  0  0  0
    2.9320    2.3280    0.9060 C   0  0  2  0  0  0  0  0  0  0  0  0
   -2.5890    1.0260   -1.1010 C   0  0  1  0  0  0  0  0  0  0  0  0
   -1.6370   -3.5240    0.2070 C   0  0  2  0  0  0  0  0  0  0  0  0
   -2.5020   -1.3280   -0.0170 C   0  0  2  0  0  0  0  0  0  0  0  0
    5.9110    0.8700   -0.3740 C   0  0  1  0  0  0  0  0  0  0  0  0
    4.3890    2.4420    0.3860 C   0  0  1  0  0  0  0  0  0  0  0  0
   -0.3570    1.3950    0.3170 C   0  0  1  0  0  0  0  0  0  0  0  0
    0.5160    2.6910    0.2760 C   0  0  1  0  0  0  0  0  0  0  0  0
   -1.0800    1.4000   -1.0630 C   0  0  1  0  0  0  0  0  0  0  0  0
   -6.2820    3.6190    3.4430 H   0  0  0  0  0  0  0  0  0  0  0  0
   -7.8300    2.8140    3.2260 H   0  0  0  0  0  0  0  0  0  0  0  0
   -6.4520    1.9160    3.8380 H   0  0  0  0  0  0  0  0  0  0  0  0
    2.2500   -5.5150    1.4590 H   0  0  0  0  0  0  0  0  0  0  0  0
    0.6030   -6.1570    1.4680 H   0  0  0  0  0  0  0  0  0  0  0  0
    1.5710   -6.2290   -0.0060 H   0  0  0  0  0  0  0  0  0  0  0  0
    5.9100   -0.3660    2.2260 H   0  0  0  0  0  0  0  0  0  0  0  0
    7.5950   -0.4030    1.6770 H   0  0  0  0  0  0  0  0  0  0  0  0
    7.1060    0.7030    2.9570 H   0  0  0  0  0  0  0  0  0  0  0  0
   -3.9520   -3.0310   -1.8100 H   0  0  0  0  0  0  0  0  0  0  0  0
    2.9420    0.4070    0.9910 H   0  0  0  0  0  0  0  0  0  0  0  0
    0.5740    0.0680    1.3160 H   0  0  0  0  0  0  0  0  0  0  0  0
   -0.2760   -0.2200   -1.7310 H   0  0  0  0  0  0  0  0  0  0  0  0
    3.7160   -2.0640   -1.5800 H   0  0  0  0  0  0  0  0  0  0  0  0
    2.5730   -2.3350    1.2960 H   0  0  0  0  0  0  0  0  0  0  0  0
    4.7890   -1.2290    1.2120 H   0  0  0  0  0  0  0  0  0  0  0  0
    2.0000   -3.8310   -1.3600 H   0  0  0  0  0  0  0  0  0  0  0  0
   -6.8670    1.3890    1.3810 H   0  0  0  0  0  0  0  0  0  0  0  0
   -6.7310    3.0870    0.9790 H   0  0  0  0  0  0  0  0  0  0  0  0
   -4.3370    3.1240    1.8150 H   0  0  0  0  0  0  0  0  0  0  0  0
   -4.4680    1.4410    2.2940 H   0  0  0  0  0  0  0  0  0  0  0  0
    6.8120   -1.1140   -0.3750 H   0  0  0  0  0  0  0  0  0  0  0  0
    5.7440   -0.8120   -1.7240 H   0  0  0  0  0  0  0  0  0  0  0  0
   -0.3190   -4.0880   -1.4490 H   0  0  0  0  0  0  0  0  0  0  0  0
   -0.8000   -5.4310   -0.4420 H   0  0  0  0  0  0  0  0  0  0  0  0
   -3.1020   -4.9380    0.9590 H   0  0  0  0  0  0  0  0  0  0  0  0
   -3.0430   -4.8930   -0.7900 H   0  0  0  0  0  0  0  0  0  0  0  0
   -4.5540   -1.1800    0.7440 H   0  0  0  0  0  0  0  0  0  0  0  0
   -3.4860   -2.0690    1.8060 H   0  0  0  0  0  0  0  0  0  0  0  0
    4.9790    1.9870    2.4630 H   0  0  0  0  0  0  0  0  0  0  0  0
    5.8670    3.3100    1.7580 H   0  0  0  0  0  0  0  0  0  0  0  0
   -4.0080   -0.5620   -1.4150 H   0  0  0  0  0  0  0  0  0  0  0  0
   -2.4720   -0.8510   -2.1690 H   0  0  0  0  0  0  0  0  0  0  0  0
    2.2410    3.3410   -0.8900 H   0  0  0  0  0  0  0  0  0  0  0  0
    1.9970    1.6090   -0.9440 H   0  0  0  0  0  0  0  0  0  0  0  0
    0.5670   -3.6460    1.3870 H   0  0  0  0  0  0  0  0  0  0  0  0
    7.4370    1.8900    0.7760 H   0  0  0  0  0  0  0  0  0  0  0  0
   -5.0430   -3.6450    0.6530 H   0  0  0  0  0  0  0  0  0  0  0  0
    2.7650    3.1170    1.6860 H   0  0  0  0  0  0  0  0  0  0  0  0
   -3.0370    1.5370   -2.0030 H   0  0  0  0  0  0  0  0  0  0  0  0
  7 20  1  0
  7 48  1  0
  7 47  1  0
  7 49  1  0
  8 52  1  0
  8 35  1  0
  8 50  1  0
  8 51  1  0
  9 36  1  0
  9 54  1  0
  9 53  1  0
  9 55  1  0
 10 33  2  0
 11 34  2  0
 12 56  1  0
 12 37  1  0
 13 38  1  0
 13 57  1  0
 14 44  1  0
 14 58  1  0
 15 59  1  0
 16 60  1  0
 16 18  2  0
 16 17  1  0
 17 19  2  0
 17 61  1  0
 18 22  1  0
 18 62  1  0
 19 63  1  0
 19 35  1  0
 20 65  1  0
 20 64  1  0
 20 21  1  0
 21 33  1  0
 21 66  1  0
 21 67  1  0
 22 69  1  0
 22 68  1  0
 22 42  1  0
 23 70  1  0
 23 71  1  0
 23 40  1  0
 23 35  1  0
 24 73  1  0
 24 37  1  0
 24 40  1  0
 24 72  1  0
 25 41  1  0
 25 37  1  0
 25 74  1  0
 25 75  1  0
 26 43  1  0
 26 36  1  0
 26 77  1  0
 26 76  1  0
 27 79  1  0
 27 78  1  0
 27 39  1  0
 27 41  1  0
 28 81  1  0
 28 80  1  0
 28 45  1  0
 28 38  1  0
 29 39  1  0
 29 33  1  0
 30 34  1  0
 30 45  1  0
 31 41  1  0
 31 40  1  0
 32 42  1  0
 32 43  1  0
 34 46  1  0
 35 82  1  1
 36 42  1  0
 36 83  1  6
 37 84  1  1
 38 43  1  0
 38 85  1  1
 39 86  1  6
 39 46  1  0
 40  1  1  1
 41  2  1  1
 42  3  1  6
 43  4  1  6
 44  5  1  1
 44 46  1  0
 44 45  1  0
 45  6  1  1
 46 15  1  6
M  END
>  <id>  (193) 
294

>  <scaffolds>  (193) 
['C1CCOCC1', 'O=C1OC2CCC3CCC(CC=CC=CCCC4CCCC(CCC1C2)O4)O3', 'O=C1CCCO1']

>  <name>  (193) 
Mandelalide C

>  <formula>  (193) 
C30H46O10

>  <SMILES>  (193) 
[H][C@@]23C[C@@H](C)C=CC=CC[C@@]1([H])O[C@]([H])(C[C@H]1C)[C@H](O)C[C@@]4([H])OC(=O)[C@](O)([C@H](OC(=O)CCC)C[C@@]([H])(C[C@@H](O)C2)O3)[C@@]4([H])O

>  <ChEMBL_id>  (193) 


>  <ZINC_id>  (193) 


>  <PubChem_id>  (193) 


>  <DrugBank_id>  (193) 


>  <CAS_no>  (193) 
1384352-16-2

>  <references>  (193) 
[{'journal': {'name': 'The Journal of Organic Chemistry', 'id': 21}, 'title': 'Mandelalides A-D, Cytotoxic Macrolides from a New Lissoclinum Species of South African Tunicate', 'year': 2012, 'start_page': 6066, 'volume': 77, 'issue': 14, 'doi': '10.1021/jo3008622', 'isbn': '', 'despositor': {'code': 'TMM', 'first_name': 'Thommas', 'last_name': 'Musyoka', 'id': 22}, 'refauthors_set': [{'author': {'first_name': '', 'initials': 'J', 'last_name': 'Sikorska', 'id': 571}, 'first_author': True, 'id': 798}, {'author': {'first_name': '', 'initials': 'AM', 'last_name': 'Hau', 'id': 584}, 'first_author': False, 'id': 799}, {'author': {'first_name': '', 'initials': 'C', 'last_name': 'Anklin', 'id': 585}, 'first_author': False, 'id': 800}, {'author': {'first_name': '', 'initials': 'S', 'last_name': 'Parker-Nance', 'id': 572}, 'first_author': False, 'id': 801}, {'author': {'first_name': 'Michael', 'initials': 'MT', 'last_name': 'Davies-Coleman', 'id': 449}, 'first_author': False, 'id': 802}, {'author': {'first_name': '', 'initials': 'JE', 'last_name': 'Ishmael', 'id': 586}, 'first_author': False, 'id': 803}, {'author': {'first_name': 'Kerry', 'initials': 'KL', 'last_name': 'McPhail', 'id': 483}, 'first_author': False, 'id': 804}], 'id': 279}]

>  <classifications>  (193) 
[{'classification': 'Polyketide', 'id': 810}, {'classification': 'Macrolides and analogues (Classyfire)', 'id': 945}]

>  <molecular_mass>  (193) 
566.68

$$$$
SANC00295_minRM1.pdb
     RDKit          3D

 97100  0  0  1  0  0  0  0  0999 V2000
    1.8280    3.3790    1.5320 H   0  0  0  0  0  0  0  0  0  0  0  0
    2.1870    0.7910    0.6600 H   0  0  0  0  0  0  0  0  0  0  0  0
   -6.5340   -0.8900   -2.0920 H   0  0  0  0  0  0  0  0  0  0  0  0
   -4.5380   -3.1660   -1.2650 H   0  0  0  0  0  0  0  0  0  0  0  0
   -0.6980   -3.7970   -0.7600 H   0  0  0  0  0  0  0  0  0  0  0  0
    1.2000   -2.6330    0.0170 H   0  0  0  0  0  0  0  0  0  0  0  0
    6.3570   -2.9720    2.9170 C   0  0  0  0  0  0  0  0  0  0  0  0
   -0.6960    0.0400    5.1820 C   0  0  0  0  0  0  0  0  0  0  0  0
   -1.2930    5.0590    1.6900 C   0  0  0  0  0  0  0  0  0  0  0  0
   -6.9840   -0.3950    1.1470 C   0  0  0  0  0  0  0  0  0  0  0  0
    5.1920   -1.2810   -0.9030 O   0  0  0  0  0  0  0  0  0  0  0  0
   -0.4590   -2.7600    1.8750 O   0  0  0  0  0  0  0  0  0  0  0  0
    1.3670   -1.9640   -3.8840 O   0  0  0  0  0  0  0  0  0  0  0  0
    4.7190    3.2090   -1.3420 O   0  0  0  0  0  0  0  0  0  0  0  0
   -2.6350   -1.1190    0.6270 O   0  0  0  0  0  0  0  0  0  0  0  0
    0.3380    0.0460   -1.8740 O   0  0  0  0  0  0  0  0  0  0  0  0
   -3.6820    2.1320   -0.6750 C   0  0  0  0  0  0  0  0  0  0  0  0
   -2.6350    2.5760    0.2340 C   0  0  0  0  0  0  0  0  0  0  0  0
   -4.7110    1.3900   -0.2540 C   0  0  0  0  0  0  0  0  0  0  0  0
   -1.7340    3.4930   -0.1250 C   0  0  0  0  0  0  0  0  0  0  0  0
    6.1210   -2.3610    1.5470 C   0  0  0  0  0  0  0  0  0  0  0  0
   -0.5910   -1.0610    4.1460 C   0  0  0  0  0  0  0  0  0  0  0  0
    4.6270   -2.1440    1.3200 C   0  0  0  0  0  0  0  0  0  0  0  0
   -0.5880   -0.4670    2.7400 C   0  0  0  0  0  0  0  0  0  0  0  0
   -5.7850    0.9200   -1.1710 C   0  0  0  0  0  0  0  0  0  0  0  0
    0.5750    4.4770    0.1060 C   0  0  0  0  0  0  0  0  0  0  0  0
    3.1100    4.3920    0.0820 C   0  0  0  0  0  0  0  0  0  0  0  0
    3.9610    2.0540    0.5510 C   0  0  0  0  0  0  0  0  0  0  0  0
   -5.3250   -2.2000    0.5450 C   0  0  0  0  0  0  0  0  0  0  0  0
    2.9620    0.7790   -1.4160 C   0  0  0  0  0  0  0  0  0  0  0  0
   -1.9600   -2.1400   -1.4580 C   0  0  0  0  0  0  0  0  0  0  0  0
    3.0540   -1.3180   -0.2270 O   0  0  0  0  0  0  0  0  0  0  0  0
   -0.0750   -1.0440    0.4940 O   0  0  0  0  0  0  0  0  0  0  0  0
    0.0030   -2.9950   -2.4850 O   0  0  0  0  0  0  0  0  0  0  0  0
    1.7220    2.4870   -0.3610 O   0  0  0  0  0  0  0  0  0  0  0  0
   -4.6100   -1.1180   -1.4420 O   0  0  0  0  0  0  0  0  0  0  0  0
    4.3830   -1.5470   -0.0380 C   0  0  0  0  0  0  0  0  0  0  0  0
   -0.3890   -1.5540    1.7240 C   0  0  0  0  0  0  0  0  0  0  0  0
    0.8780   -1.9920   -2.7800 C   0  0  0  0  0  0  0  0  0  0  0  0
   -0.6770    3.9570    0.8300 C   0  0  1  0  0  0  0  0  0  0  0  0
   -6.4740   -1.3120    0.0530 C   0  0  2  0  0  0  0  0  0  0  0  0
    4.3100    3.4330   -0.0270 C   0  0  1  0  0  0  0  0  0  0  0  0
   -2.8660   -2.1950   -0.2190 C   0  0  2  0  0  0  0  0  0  0  0  0
    2.6240   -0.7220   -1.4340 C   0  0  1  0  0  0  0  0  0  0  0  0
    1.8210    3.6390    0.4380 C   0  0  2  0  0  0  0  0  0  0  0  0
    2.6770    1.4870   -0.0760 C   0  0  2  0  0  0  0  0  0  0  0  0
   -5.9060   -0.6110   -1.2020 C   0  0  1  0  0  0  0  0  0  0  0  0
   -4.3570   -2.2490   -0.6440 C   0  0  1  0  0  0  0  0  0  0  0  0
   -0.5920   -2.7790   -1.2140 C   0  0  1  0  0  0  0  0  0  0  0  0
    0.4600   -1.9270   -0.4470 C   0  0  1  0  0  0  0  0  0  0  0  0
    1.1080   -1.0630   -1.5720 C   0  0  1  0  0  0  0  0  0  0  0  0
    5.9950   -2.3270    3.7280 H   0  0  0  0  0  0  0  0  0  0  0  0
    5.8580   -3.9440    3.0330 H   0  0  0  0  0  0  0  0  0  0  0  0
    7.4290   -3.1400    3.1050 H   0  0  0  0  0  0  0  0  0  0  0  0
    0.1530    0.7380    5.1380 H   0  0  0  0  0  0  0  0  0  0  0  0
   -1.6070    0.6460    5.0630 H   0  0  0  0  0  0  0  0  0  0  0  0
   -0.7160   -0.3680    6.2020 H   0  0  0  0  0  0  0  0  0  0  0  0
   -2.1850    4.7060    2.2260 H   0  0  0  0  0  0  0  0  0  0  0  0
   -0.5940    5.4270    2.4540 H   0  0  0  0  0  0  0  0  0  0  0  0
   -1.6070    5.9260    1.0930 H   0  0  0  0  0  0  0  0  0  0  0  0
   -6.2190    0.3120    1.5080 H   0  0  0  0  0  0  0  0  0  0  0  0
   -7.8490    0.2010    0.8240 H   0  0  0  0  0  0  0  0  0  0  0  0
   -7.3170   -0.9700    2.0260 H   0  0  0  0  0  0  0  0  0  0  0  0
    4.4960    3.9750   -1.8790 H   0  0  0  0  0  0  0  0  0  0  0  0
   -2.7580   -0.3000    0.1320 H   0  0  0  0  0  0  0  0  0  0  0  0
    0.3210    0.6400   -1.1140 H   0  0  0  0  0  0  0  0  0  0  0  0
   -3.5860    2.4330   -1.7240 H   0  0  0  0  0  0  0  0  0  0  0  0
   -2.6190    2.1180    1.2330 H   0  0  0  0  0  0  0  0  0  0  0  0
   -4.8270    1.0850    0.7970 H   0  0  0  0  0  0  0  0  0  0  0  0
   -1.7540    3.9610   -1.1150 H   0  0  0  0  0  0  0  0  0  0  0  0
    6.6720   -1.4020    1.4480 H   0  0  0  0  0  0  0  0  0  0  0  0
    6.5480   -3.0090    0.7500 H   0  0  0  0  0  0  0  0  0  0  0  0
    0.3240   -1.6660    4.3140 H   0  0  0  0  0  0  0  0  0  0  0  0
   -1.4240   -1.7840    4.2580 H   0  0  0  0  0  0  0  0  0  0  0  0
    4.0640   -3.1000    1.4120 H   0  0  0  0  0  0  0  0  0  0  0  0
    4.1960   -1.4790    2.1020 H   0  0  0  0  0  0  0  0  0  0  0  0
   -1.5400    0.0700    2.5320 H   0  0  0  0  0  0  0  0  0  0  0  0
    0.1980    0.3100    2.6330 H   0  0  0  0  0  0  0  0  0  0  0  0
   -6.7560    1.3780   -0.8880 H   0  0  0  0  0  0  0  0  0  0  0  0
   -5.6120    1.2790   -2.2100 H   0  0  0  0  0  0  0  0  0  0  0  0
    0.4290    4.5190   -0.9960 H   0  0  0  0  0  0  0  0  0  0  0  0
    0.7810    5.5330    0.3760 H   0  0  0  0  0  0  0  0  0  0  0  0
    3.3060    5.1720    0.8480 H   0  0  0  0  0  0  0  0  0  0  0  0
    2.9760    4.9700   -0.8540 H   0  0  0  0  0  0  0  0  0  0  0  0
    4.8060    1.3470    0.4130 H   0  0  0  0  0  0  0  0  0  0  0  0
    3.8600    2.1350    1.6540 H   0  0  0  0  0  0  0  0  0  0  0  0
   -4.8520   -1.8000    1.4630 H   0  0  0  0  0  0  0  0  0  0  0  0
   -5.6680   -3.2110    0.8390 H   0  0  0  0  0  0  0  0  0  0  0  0
    4.0350    0.8850   -1.6950 H   0  0  0  0  0  0  0  0  0  0  0  0
    2.4520    1.2830   -2.2680 H   0  0  0  0  0  0  0  0  0  0  0  0
   -2.4480   -2.6730   -2.3060 H   0  0  0  0  0  0  0  0  0  0  0  0
   -1.8590   -1.1020   -1.8360 H   0  0  0  0  0  0  0  0  0  0  0  0
   -0.3930    3.1030    1.4990 H   0  0  0  0  0  0  0  0  0  0  0  0
   -7.3300   -1.9600   -0.2710 H   0  0  0  0  0  0  0  0  0  0  0  0
    5.1860    3.8620    0.5350 H   0  0  0  0  0  0  0  0  0  0  0  0
   -2.6500   -3.0910    0.4230 H   0  0  0  0  0  0  0  0  0  0  0  0
    3.1650   -1.1780   -2.3140 H   0  0  0  0  0  0  0  0  0  0  0  0
  7 21  1  0
  7 53  1  0
  7 54  1  0
  7 52  1  0
  8 22  1  0
  8 56  1  0
  8 55  1  0
  8 57  1  0
  9 40  1  0
  9 60  1  0
  9 58  1  0
  9 59  1  0
 10 41  1  0
 10 62  1  0
 10 61  1  0
 10 63  1  0
 11 37  2  0
 12 38  2  0
 13 39  2  0
 14 64  1  0
 14 42  1  0
 15 43  1  0
 15 65  1  0
 16 66  1  0
 17 67  1  0
 17 19  2  0
 17 18  1  0
 18 20  2  0
 18 68  1  0
 19 25  1  0
 19 69  1  0
 20 70  1  0
 20 40  1  0
 21 72  1  0
 21 23  1  0
 21 71  1  0
 22 24  1  0
 22 74  1  0
 22 73  1  0
 23 37  1  0
 23 75  1  0
 23 76  1  0
 24 38  1  0
 24 77  1  0
 24 78  1  0
 25 80  1  0
 25 47  1  0
 25 79  1  0
 26 81  1  0
 26 82  1  0
 26 45  1  0
 26 40  1  0
 27 84  1  0
 27 42  1  0
 27 45  1  0
 27 83  1  0
 28 46  1  0
 28 42  1  0
 28 85  1  0
 28 86  1  0
 29 48  1  0
 29 41  1  0
 29 88  1  0
 29 87  1  0
 30 90  1  0
 30 89  1  0
 30 44  1  0
 30 46  1  0
 31 91  1  0
 31 92  1  0
 31 49  1  0
 31 43  1  0
 32 44  1  0
 32 37  1  0
 33 50  1  0
 33 38  1  0
 34 39  1  0
 34 49  1  0
 35 46  1  0
 35 45  1  0
 36 47  1  0
 36 48  1  0
 39 51  1  0
 40 93  1  1
 41 47  1  0
 41 94  1  6
 42 95  1  1
 43 48  1  0
 43 96  1  1
 44 97  1  6
 44 51  1  0
 45  1  1  1
 46  2  1  1
 47  3  1  6
 48  4  1  6
 49  5  1  1
 49 50  1  0
 50  6  1  1
 50 51  1  0
 51 16  1  6
M  END
>  <id>  (194) 
295

>  <scaffolds>  (194) 
['C1CCOCC1', 'O=C1OC2CCC3CCC(CC=CC=CCCC4CCCC(CCC1C2)O4)O3', 'O=C1CCCO1']

>  <name>  (194) 
Mandelalide D

>  <formula>  (194) 
C34H52O11

>  <SMILES>  (194) 
[H][C@@]23C[C@@H](C)C=CC=CC[C@@]1([H])O[C@]([H])(C[C@H]1C)[C@H](O)C[C@@]4([H])OC(=O)[C@](O)([C@H](OC(=O)CCC)C[C@@]([H])(C[C@@H](O)C2)O3)[C@@]4([H])OC(=O)CCC

>  <ChEMBL_id>  (194) 


>  <ZINC_id>  (194) 


>  <PubChem_id>  (194) 


>  <DrugBank_id>  (194) 


>  <CAS_no>  (194) 
1384352-17-3

>  <references>  (194) 
[{'journal': {'name': 'The Journal of Organic Chemistry', 'id': 21}, 'title': 'Mandelalides A-D, Cytotoxic Macrolides from a New Lissoclinum Species of South African Tunicate', 'year': 2012, 'start_page': 6066, 'volume': 77, 'issue': 14, 'doi': '10.1021/jo3008622', 'isbn': '', 'despositor': {'code': 'TMM', 'first_name': 'Thommas', 'last_name': 'Musyoka', 'id': 22}, 'refauthors_set': [{'author': {'first_name': '', 'initials': 'J', 'last_name': 'Sikorska', 'id': 571}, 'first_author': True, 'id': 798}, {'author': {'first_name': '', 'initials': 'AM', 'last_name': 'Hau', 'id': 584}, 'first_author': False, 'id': 799}, {'author': {'first_name': '', 'initials': 'C', 'last_name': 'Anklin', 'id': 585}, 'first_author': False, 'id': 800}, {'author': {'first_name': '', 'initials': 'S', 'last_name': 'Parker-Nance', 'id': 572}, 'first_author': False, 'id': 801}, {'author': {'first_name': 'Michael', 'initials': 'MT', 'last_name': 'Davies-Coleman', 'id': 449}, 'first_author': False, 'id': 802}, {'author': {'first_name': '', 'initials': 'JE', 'last_name': 'Ishmael', 'id': 586}, 'first_author': False, 'id': 803}, {'author': {'first_name': 'Kerry', 'initials': 'KL', 'last_name': 'McPhail', 'id': 483}, 'first_author': False, 'id': 804}], 'id': 279}]

>  <classifications>  (194) 
[{'classification': 'Polyketide', 'id': 810}, {'classification': 'Macrolides and analogues (Classyfire)', 'id': 945}]

>  <molecular_mass>  (194) 
636.77

$$$$
SANC00296_minRM1.pdb
     RDKit          3D

113119  0  0  1  0  0  0  0  0999 V2000
    1.8560   -0.4880   -4.0860 H   0  0  0  0  0  0  0  0  0  0  0  0
    2.6840   -0.5120   -3.3400 C   0  0  2  0  0  0  0  0  0  0  0  0
    3.5020    0.7500   -3.4270 C   0  0  0  0  0  0  0  0  0  0  0  0
    4.5670    0.7670   -2.3350 C   0  0  2  0  0  0  0  0  0  0  0  0
    5.2370    1.6620   -2.4880 H   0  0  0  0  0  0  0  0  0  0  0  0
    5.3780   -0.3710   -2.3820 O   0  0  0  0  0  0  0  0  0  0  0  0
    3.9520    0.8340   -0.8940 C   0  0  1  0  0  0  0  0  0  0  0  0
    5.1210    0.4670    0.0190 C   0  0  0  0  0  0  0  0  0  0  0  0
    3.5800    2.3060   -0.6420 C   0  0  0  0  0  0  0  0  0  0  0  0
    3.5280    3.0970   -1.5670 O   0  0  0  0  0  0  0  0  0  0  0  0
    3.1870    2.8910    0.7360 C   0  0  2  0  0  0  0  0  0  0  0  0
    2.7890    3.9470    0.5630 H   0  0  0  0  0  0  0  0  0  0  0  0
    4.3200    2.9460    1.5620 O   0  0  0  0  0  0  0  0  0  0  0  0
    5.0670    4.0900    1.5530 C   0  0  0  0  0  0  0  0  0  0  0  0
    6.2090    4.0290    2.5120 C   0  0  0  0  0  0  0  0  0  0  0  0
    4.7940    5.0180    0.8170 O   0  0  0  0  0  0  0  0  0  0  0  0
    2.0450    2.1150    1.3170 C   0  0  0  0  0  0  0  0  0  0  0  0
    0.8450    2.3320    0.7380 C   0  0  0  0  0  0  0  0  0  0  0  0
    0.5920    3.3700   -0.2960 C   0  0  0  0  0  0  0  0  0  0  0  0
   -0.3150    1.4600    1.1180 C   0  0  1  0  0  0  0  0  0  0  0  0
   -0.7320    1.8180    2.1040 H   0  0  0  0  0  0  0  0  0  0  0  0
   -1.2980    1.4760    0.0920 O   0  0  0  0  0  0  0  0  0  0  0  0
   -2.3800    2.2730    0.2400 C   0  0  0  0  0  0  0  0  0  0  0  0
   -2.6180    2.8970    1.2560 O   0  0  0  0  0  0  0  0  0  0  0  0
   -3.2600    2.2580   -1.0020 C   0  0  2  0  0  0  0  0  0  0  0  0
   -2.6450    2.2680   -1.9420 H   0  0  0  0  0  0  0  0  0  0  0  0
   -3.9730    3.4420   -1.0950 O   0  0  0  0  0  0  0  0  0  0  0  0
   -4.1350    0.9720   -0.9610 C   0  0  1  0  0  0  0  0  0  0  0  0
   -3.4390    0.1080   -1.1690 H   0  0  0  0  0  0  0  0  0  0  0  0
   -4.7240    0.7780    0.3650 N   0  0  0  0  0  0  0  0  0  0  0  0
   -4.9800   -0.5030    0.8560 C   0  0  0  0  0  0  0  0  0  0  0  0
   -4.6340   -1.4940    0.2200 O   0  0  0  0  0  0  0  0  0  0  0  0
   -5.6880   -0.6030    2.1580 C   0  0  0  0  0  0  0  0  0  0  0  0
   -5.9580    0.5080    2.9550 C   0  0  0  0  0  0  0  0  0  0  0  0
   -6.6360    0.3540    4.1560 C   0  0  0  0  0  0  0  0  0  0  0  0
   -7.0330   -0.9110    4.5790 C   0  0  0  0  0  0  0  0  0  0  0  0
   -6.7400   -2.0220    3.8000 C   0  0  0  0  0  0  0  0  0  0  0  0
   -6.0750   -1.8720    2.5880 C   0  0  0  0  0  0  0  0  0  0  0  0
   -5.1840    1.0670   -2.0350 C   0  0  0  0  0  0  0  0  0  0  0  0
   -6.3520    1.7950   -1.8370 C   0  0  0  0  0  0  0  0  0  0  0  0
   -7.3010    1.8740   -2.8500 C   0  0  0  0  0  0  0  0  0  0  0  0
   -7.0870    1.2240   -4.0590 C   0  0  0  0  0  0  0  0  0  0  0  0
   -5.9250    0.4850   -4.2510 C   0  0  0  0  0  0  0  0  0  0  0  0
   -4.9690    0.4150   -3.2460 C   0  0  0  0  0  0  0  0  0  0  0  0
    0.1120   -0.0140    1.2350 C   0  0  0  0  0  0  0  0  0  0  0  0
    1.5510   -0.2040    1.7560 C   0  0  1  0  0  0  0  0  0  0  0  0
    1.5640   -1.1520    2.7850 O   0  0  0  0  0  0  0  0  0  0  0  0
    2.5560   -0.7510    0.6580 C   0  0  1  0  0  0  0  0  0  0  0  0
    3.5680   -0.7640    1.1450 H   0  0  0  0  0  0  0  0  0  0  0  0
    2.0870   -2.0650    0.4010 O   0  0  0  0  0  0  0  0  0  0  0  0
    2.7330   -3.1260    0.9640 C   0  0  0  0  0  0  0  0  0  0  0  0
    3.7670   -2.9630    1.5890 O   0  0  0  0  0  0  0  0  0  0  0  0
    2.0890   -4.4260    0.7090 C   0  0  0  0  0  0  0  0  0  0  0  0
    1.0930   -4.5970   -0.2480 C   0  0  0  0  0  0  0  0  0  0  0  0
    0.5730   -5.8650   -0.4810 C   0  0  0  0  0  0  0  0  0  0  0  0
    1.0440   -6.9570    0.2370 C   0  0  0  0  0  0  0  0  0  0  0  0
    2.0210   -6.7800    1.2100 C   0  0  0  0  0  0  0  0  0  0  0  0
    2.5510   -5.5180    1.4450 C   0  0  0  0  0  0  0  0  0  0  0  0
    2.6350    0.0030   -0.7080 C   0  0  2  0  0  0  0  0  0  0  0  0
    1.7980    0.7500   -0.7370 H   0  0  0  0  0  0  0  0  0  0  0  0
    2.3030   -0.9400   -1.8810 C   0  0  1  0  0  0  0  0  0  0  0  0
    0.9320   -1.1900   -1.7290 O   0  0  0  0  0  0  0  0  0  0  0  0
    0.2100   -1.9230   -2.6150 C   0  0  0  0  0  0  0  0  0  0  0  0
   -1.2510   -1.7920   -2.3310 C   0  0  0  0  0  0  0  0  0  0  0  0
    0.7200   -2.6000   -3.4840 O   0  0  0  0  0  0  0  0  0  0  0  0
    3.2120   -2.1740   -2.1710 C   0  0  0  0  0  0  0  0  0  0  0  0
    3.4830   -1.6890   -3.4930 O   0  0  0  0  0  0  0  0  0  0  0  0
    2.1170    1.0950    2.4170 C   0  0  1  0  0  0  0  0  0  0  0  0
    3.4800    0.8180    3.0540 C   0  0  0  0  0  0  0  0  0  0  0  0
    1.2670    1.5650    3.6110 C   0  0  0  0  0  0  0  0  0  0  0  0
    3.9730    0.8340   -4.4310 H   0  0  0  0  0  0  0  0  0  0  0  0
    2.8410    1.6370   -3.3640 H   0  0  0  0  0  0  0  0  0  0  0  0
    5.6010   -0.5540   -3.3000 H   0  0  0  0  0  0  0  0  0  0  0  0
    6.0710    0.9160   -0.3130 H   0  0  0  0  0  0  0  0  0  0  0  0
    5.0190    0.7990    1.0600 H   0  0  0  0  0  0  0  0  0  0  0  0
    5.2910   -0.6210    0.0610 H   0  0  0  0  0  0  0  0  0  0  0  0
    6.2760    3.0860    3.0740 H   0  0  0  0  0  0  0  0  0  0  0  0
    7.1640    4.1880    1.9900 H   0  0  0  0  0  0  0  0  0  0  0  0
    6.1040    4.8370    3.2550 H   0  0  0  0  0  0  0  0  0  0  0  0
    0.6410    2.9440   -1.3100 H   0  0  0  0  0  0  0  0  0  0  0  0
   -0.3940    3.8470   -0.1900 H   0  0  0  0  0  0  0  0  0  0  0  0
    1.3140    4.2060   -0.2690 H   0  0  0  0  0  0  0  0  0  0  0  0
   -4.4930    3.5770   -0.2940 H   0  0  0  0  0  0  0  0  0  0  0  0
   -5.0450    1.5900    0.8810 H   0  0  0  0  0  0  0  0  0  0  0  0
   -5.6660    1.5160    2.6430 H   0  0  0  0  0  0  0  0  0  0  0  0
   -6.8590    1.2300    4.7730 H   0  0  0  0  0  0  0  0  0  0  0  0
   -7.5540   -1.0310    5.5330 H   0  0  0  0  0  0  0  0  0  0  0  0
   -7.0400   -3.0200    4.1340 H   0  0  0  0  0  0  0  0  0  0  0  0
   -5.8550   -2.7580    1.9800 H   0  0  0  0  0  0  0  0  0  0  0  0
   -6.5440    2.3160   -0.8950 H   0  0  0  0  0  0  0  0  0  0  0  0
   -8.2260    2.4320   -2.6840 H   0  0  0  0  0  0  0  0  0  0  0  0
   -7.8420    1.2740   -4.8470 H   0  0  0  0  0  0  0  0  0  0  0  0
   -5.7430   -0.0050   -5.2130 H   0  0  0  0  0  0  0  0  0  0  0  0
   -4.0480   -0.1490   -3.4210 H   0  0  0  0  0  0  0  0  0  0  0  0
   -0.6240   -0.5170    1.9040 H   0  0  0  0  0  0  0  0  0  0  0  0
   -0.0290   -0.5510    0.2740 H   0  0  0  0  0  0  0  0  0  0  0  0
    0.9880   -1.8900    2.5520 H   0  0  0  0  0  0  0  0  0  0  0  0
    0.7240   -3.7500   -0.8340 H   0  0  0  0  0  0  0  0  0  0  0  0
   -0.1810   -6.0070   -1.2610 H   0  0  0  0  0  0  0  0  0  0  0  0
    0.6280   -7.9540    0.0530 H   0  0  0  0  0  0  0  0  0  0  0  0
    2.3500   -7.6320    1.8140 H   0  0  0  0  0  0  0  0  0  0  0  0
    3.3030   -5.3840    2.2300 H   0  0  0  0  0  0  0  0  0  0  0  0
   -1.5710   -0.7390   -2.3640 H   0  0  0  0  0  0  0  0  0  0  0  0
   -1.8550   -2.3460   -3.0650 H   0  0  0  0  0  0  0  0  0  0  0  0
   -1.5100   -2.1760   -1.3320 H   0  0  0  0  0  0  0  0  0  0  0  0
    4.1210   -2.2610   -1.5490 H   0  0  0  0  0  0  0  0  0  0  0  0
    2.7340   -3.1690   -2.1800 H   0  0  0  0  0  0  0  0  0  0  0  0
    4.2230    0.4130    2.3550 H   0  0  0  0  0  0  0  0  0  0  0  0
    3.9170    1.7050    3.5280 H   0  0  0  0  0  0  0  0  0  0  0  0
    3.4160    0.0640    3.8540 H   0  0  0  0  0  0  0  0  0  0  0  0
    1.3120    0.8550    4.4510 H   0  0  0  0  0  0  0  0  0  0  0  0
    1.6270    2.5330    3.9880 H   0  0  0  0  0  0  0  0  0  0  0  0
    0.1950    1.6990    3.4240 H   0  0  0  0  0  0  0  0  0  0  0  0
  2  1  1  6
  2 67  1  0
  2  3  1  0
  2 61  1  0
  3 71  1  0
  3 72  1  0
  3  4  1  0
  4  5  1  6
  4  6  1  0
  4  7  1  0
  6 73  1  0
  7 59  1  0
  7  9  1  0
  7  8  1  1
  8 74  1  0
  8 76  1  0
  8 75  1  0
  9 10  2  0
  9 11  1  0
 11 12  1  6
 11 17  1  0
 11 13  1  0
 13 14  1  0
 14 16  2  0
 14 15  1  0
 15 78  1  0
 15 77  1  0
 15 79  1  0
 17 18  2  0
 17 68  1  0
 18 19  1  0
 18 20  1  0
 19 80  1  0
 19 82  1  0
 19 81  1  0
 20 22  1  0
 20 45  1  0
 20 21  1  1
 22 23  1  0
 23 25  1  0
 23 24  2  0
 25 26  1  6
 25 27  1  0
 25 28  1  0
 27 83  1  0
 28 39  1  0
 28 29  1  6
 28 30  1  0
 30 31  1  0
 30 84  1  0
 31 32  2  0
 31 33  1  0
 33 38  2  0
 33 34  1  0
 34 85  1  0
 34 35  2  0
 35 36  1  0
 35 86  1  0
 36 37  2  0
 36 87  1  0
 37 38  1  0
 37 88  1  0
 38 89  1  0
 39 44  2  0
 39 40  1  0
 40 41  2  0
 40 90  1  0
 41 42  1  0
 41 91  1  0
 42 92  1  0
 42 43  2  0
 43 93  1  0
 43 44  1  0
 44 94  1  0
 45 96  1  0
 45 46  1  0
 45 95  1  0
 46 48  1  0
 46 68  1  0
 46 47  1  1
 47 97  1  0
 48 59  1  0
 48 50  1  0
 48 49  1  1
 50 51  1  0
 51 53  1  0
 51 52  2  0
 53 54  2  0
 53 58  1  0
 54 98  1  0
 54 55  1  0
 55 99  1  0
 55 56  2  0
 56100  1  0
 56 57  1  0
 57 58  2  0
 57101  1  0
 58102  1  0
 59 61  1  0
 59 60  1  1
 61 66  1  0
 61 62  1  6
 62 63  1  0
 63 65  2  0
 63 64  1  0
 64104  1  0
 64103  1  0
 64105  1  0
 66 67  1  0
 66107  1  0
 66106  1  0
 68 69  1  1
 68 70  1  0
 69108  1  0
 69109  1  0
 69110  1  0
 70113  1  0
 70112  1  0
 70111  1  0
M  END
>  <id>  (195) 
296

>  <scaffolds>  (195) 
['c1ccccc1', 'C1=CCCCC1', 'C1CCCCC1']

>  <name>  (195) 
Paclitaxel

>  <formula>  (195) 
C47H51NO14

>  <SMILES>  (195) 
[H][C@@]56C[C@H](O)[C@@]4(C)C(=O)[C@H](OC(C)=O)C7=C(C)[C@@H](OC(=O)[C@H](O)[C@@H](NC(=O)c1ccccc1)c2ccccc2)C[C@@](O)([C@@H](OC(=O)c3ccccc3)[C@]4([H])[C@]5(OC(C)=O)CO6)C7(C)C

>  <ChEMBL_id>  (195) 
CHEMBL428647

>  <ZINC_id>  (195) 


>  <PubChem_id>  (195) 
 36314

>  <DrugBank_id>  (195) 
DB01229

>  <CAS_no>  (195) 
33069-62-4

>  <references>  (195) 
[{'journal': {'name': 'Cancer Cell International', 'id': 22}, 'title': 'Assessment of potential anti-cancer stem cell activity of marine algal compounds using an in vitro mammosphere assay', 'year': 2013, 'start_page': 1, 'volume': 13, 'issue': 39, 'doi': '10.1186/1475-2867-13-39', 'isbn': '', 'despositor': {'code': 'DLP', 'first_name': 'David', 'last_name': 'Penkler', 'id': 23}, 'refauthors_set': [{'author': {'first_name': 'Jo-Anne', 'initials': 'J', 'last_name': 'de la Mare', 'id': 587}, 'first_author': True, 'id': 805}, {'author': {'first_name': 'Jason', 'initials': 'JN', 'last_name': 'Sterrenberg', 'id': 588}, 'first_author': False, 'id': 806}, {'author': {'first_name': 'Mugdha', 'initials': 'MG', 'last_name': 'Sukhthankar', 'id': 589}, 'first_author': False, 'id': 807}, {'author': {'first_name': 'Maynard', 'initials': 'MT', 'last_name': 'Chiwakata', 'id': 552}, 'first_author': False, 'id': 808}, {'author': {'first_name': 'Denzil', 'initials': 'DR', 'last_name': 'Beukes', 'id': 453}, 'first_author': False, 'id': 809}, {'author': {'first_name': 'Gregory', 'initials': 'GL', 'last_name': 'Blatch', 'id': 590}, 'first_author': False, 'id': 810}, {'author': {'first_name': 'Adrienne', 'initials': 'AL', 'last_name': 'Edkins', 'id': 591}, 'first_author': False, 'id': 811}], 'id': 280}]

>  <classifications>  (195) 
[{'classification': 'Taxane', 'id': 838}, {'classification': 'Phenol lipids (Classyfire)', 'id': 951}]

>  <molecular_mass>  (195) 
853.9

$$$$
SANC00297_minRM1.pdb
     RDKit          3D

 38 39  0  0  1  0  0  0  0  0999 V2000
   -0.9010   -0.7330   -1.5330 H   0  0  0  0  0  0  0  0  0  0  0  0
   -0.9670   -0.8130   -0.4140 C   0  0  2  0  0  0  0  0  0  0  0  0
   -0.2850   -2.1180    0.0040 C   0  0  0  0  0  0  0  0  0  0  0  0
    1.1960   -2.0580   -0.0430 C   0  0  0  0  0  0  0  0  0  0  0  0
    1.8870   -0.9250   -0.1650 C   0  0  0  0  0  0  0  0  0  0  0  0
    3.3650   -0.9480   -0.1910 C   0  0  0  0  0  0  0  0  0  0  0  0
    3.9990   -0.1020   -0.7950 O   0  0  0  0  0  0  0  0  0  0  0  0
    1.2190    0.4080   -0.3350 C   0  0  2  0  0  0  0  0  0  0  0  0
    1.1440    0.7210   -1.6940 O   0  0  0  0  0  0  0  0  0  0  0  0
    1.9990    1.5130    0.3950 C   0  0  0  0  0  0  0  0  0  0  0  0
    2.5550    1.2990    1.4500 O   0  0  0  0  0  0  0  0  0  0  0  0
   -0.2370    0.3880    0.2140 C   0  0  2  0  0  0  0  0  0  0  0  0
   -0.1960    0.2410    1.7340 C   0  0  0  0  0  0  0  0  0  0  0  0
   -0.9470    1.6940   -0.1640 C   0  0  0  0  0  0  0  0  0  0  0  0
   -2.4190    1.6540    0.2220 C   0  0  0  0  0  0  0  0  0  0  0  0
   -3.1080    0.4840   -0.4840 C   0  0  2  0  0  0  0  0  0  0  0  0
   -2.9750    0.5840   -1.5950 H   0  0  0  0  0  0  0  0  0  0  0  0
   -4.6040    0.5260   -0.1980 C   0  0  0  0  0  0  0  0  0  0  0  0
   -2.4270   -0.7830   -0.0530 C   0  0  0  0  0  0  0  0  0  0  0  0
   -3.0610   -1.7780    0.5570 C   0  0  0  0  0  0  0  0  0  0  0  0
   -0.5670   -2.4160    1.0400 H   0  0  0  0  0  0  0  0  0  0  0  0
   -0.6460   -2.9530   -0.6370 H   0  0  0  0  0  0  0  0  0  0  0  0
    1.7090   -3.0240    0.0530 H   0  0  0  0  0  0  0  0  0  0  0  0
    3.8590   -1.7710    0.3570 H   0  0  0  0  0  0  0  0  0  0  0  0
    2.0310    0.6720   -2.0670 H   0  0  0  0  0  0  0  0  0  0  0  0
    2.0140    2.5020   -0.1010 H   0  0  0  0  0  0  0  0  0  0  0  0
   -0.0070    1.1950    2.2490 H   0  0  0  0  0  0  0  0  0  0  0  0
   -1.1440   -0.1420    2.1410 H   0  0  0  0  0  0  0  0  0  0  0  0
    0.5880   -0.4470    2.0820 H   0  0  0  0  0  0  0  0  0  0  0  0
   -0.4520    2.5640    0.3170 H   0  0  0  0  0  0  0  0  0  0  0  0
   -0.8650    1.9010   -1.2520 H   0  0  0  0  0  0  0  0  0  0  0  0
   -2.5530    1.5880    1.3210 H   0  0  0  0  0  0  0  0  0  0  0  0
   -2.9060    2.6140   -0.0530 H   0  0  0  0  0  0  0  0  0  0  0  0
   -5.0570    1.4590   -0.5650 H   0  0  0  0  0  0  0  0  0  0  0  0
   -5.1470   -0.2920   -0.6930 H   0  0  0  0  0  0  0  0  0  0  0  0
   -4.8360    0.4720    0.8750 H   0  0  0  0  0  0  0  0  0  0  0  0
   -4.1150   -1.7820    0.8120 H   0  0  0  0  0  0  0  0  0  0  0  0
   -2.6000   -2.7080    0.8750 H   0  0  0  0  0  0  0  0  0  0  0  0
  2  1  1  6
  2 19  1  0
  2  3  1  0
  2 12  1  0
  3 22  1  0
  3  4  1  0
  3 21  1  0
  4  5  2  0
  4 23  1  0
  5  8  1  0
  5  6  1  0
  6  7  2  0
  6 24  1  0
  8  9  1  6
  8 12  1  0
  8 10  1  0
  9 25  1  0
 10 26  1  0
 10 11  2  0
 12 14  1  0
 12 13  1  1
 13 29  1  0
 13 28  1  0
 13 27  1  0
 14 31  1  0
 14 15  1  0
 14 30  1  0
 15 16  1  0
 15 33  1  0
 15 32  1  0
 16 17  1  6
 16 18  1  0
 16 19  1  0
 18 35  1  0
 18 34  1  0
 18 36  1  0
 19 20  2  0
 20 37  1  0
 20 38  1  0
M  END
>  <id>  (196) 
297

>  <scaffolds>  (196) 
['C1=CCCCC1', 'C1=CCC2CCCCC2C1', 'C1CCCCC1', 'C=C1CCCC2CC=CCC12']

>  <name>  (196) 
Muzigadial

>  <formula>  (196) 
C15H20O3

>  <SMILES>  (196) 
[H][C@@]12CC=C(C=O)[C@](O)(C=O)[C@@]1(C)CC[C@H](C)C2=C

>  <ChEMBL_id>  (196) 


>  <ZINC_id>  (196) 


>  <PubChem_id>  (196) 
442346

>  <DrugBank_id>  (196) 


>  <CAS_no>  (196) 
66550-09-2

>  <references>  (196) 
[{'journal': {'name': 'Journal of Ethnopharmacology', 'id': 7}, 'title': 'Isolation of an antibacterial sesquiterpenoid from Warburgia salutaris', 'year': 2000, 'start_page': 171, 'volume': 73, 'issue': None, 'doi': '10.1016/S0378-8741(00)00293-2', 'isbn': '', 'despositor': {'code': 'DLP', 'first_name': 'David', 'last_name': 'Penkler', 'id': 23}, 'refauthors_set': [{'author': {'first_name': 'T', 'initials': 'T', 'last_name': 'Rabe', 'id': 592}, 'first_author': True, 'id': 812}, {'author': {'first_name': 'Johannes', 'initials': 'J', 'last_name': 'Van Staden', 'id': 489}, 'first_author': False, 'id': 813}], 'id': 281}]

>  <classifications>  (196) 
[{'classification': 'Sesquiterpene', 'id': 828}, {'classification': 'Terpenoid', 'id': 839}, {'classification': 'Phenol lipids (Classyfire)', 'id': 951}]

>  <molecular_mass>  (196) 
248.32

$$$$
SANC00298_minRM1.pdb
     RDKit          3D

 50 53  0  0  1  0  0  0  0  0999 V2000
   -0.4040   -1.4220    1.6590 H   0  0  0  0  0  0  0  0  0  0  0  0
   -0.4240   -1.8280    0.6160 C   0  0  2  0  0  0  0  0  0  0  0  0
   -1.7760   -1.8360   -0.0130 C   0  0  0  0  0  0  0  0  0  0  0  0
   -2.8150   -1.1350    0.4380 C   0  0  0  0  0  0  0  0  0  0  0  0
   -4.0510   -1.0120   -0.3920 C   0  0  0  0  0  0  0  0  0  0  0  0
   -4.0660    0.4050   -0.9680 C   0  0  0  0  0  0  0  0  0  0  0  0
   -2.6700    0.7880   -1.3980 C   0  0  1  0  0  0  0  0  0  0  0  0
   -2.3280    0.2260   -2.2930 H   0  0  0  0  0  0  0  0  0  0  0  0
   -2.3660    2.1690   -1.3780 O   0  0  0  0  0  0  0  0  0  0  0  0
   -1.6220    1.3660   -0.4750 C   0  0  2  0  0  0  0  0  0  0  0  0
   -0.1550    1.2990   -0.8570 C   0  0  0  0  0  0  0  0  0  0  0  0
    0.7280    0.3880    0.0190 C   0  0  2  0  0  0  0  0  0  0  0  0
    0.5470    0.5450    1.1150 H   0  0  0  0  0  0  0  0  0  0  0  0
    2.0730    0.7140   -0.3110 O   0  0  0  0  0  0  0  0  0  0  0  0
    2.6280    1.8130    0.2660 C   0  0  0  0  0  0  0  0  0  0  0  0
    1.9750    2.4990    1.0350 O   0  0  0  0  0  0  0  0  0  0  0  0
    4.0270    2.0450   -0.1360 C   0  0  0  0  0  0  0  0  0  0  0  0
    4.6270    3.1700    0.2530 C   0  0  0  0  0  0  0  0  0  0  0  0
    4.7030    1.0120   -0.9610 C   0  0  0  0  0  0  0  0  0  0  0  0
    0.5840   -1.1060   -0.3310 C   0  0  1  0  0  0  0  0  0  0  0  0
    1.8560   -1.9530   -0.1600 C   0  0  2  0  0  0  0  0  0  0  0  0
    2.5340   -1.5330    0.6250 H   0  0  0  0  0  0  0  0  0  0  0  0
    2.6200   -2.1610   -1.4540 C   0  0  0  0  0  0  0  0  0  0  0  0
    1.3150   -3.2750    0.3340 C   0  0  0  0  0  0  0  0  0  0  0  0
    1.8490   -4.3560    0.4250 O   0  0  0  0  0  0  0  0  0  0  0  0
    0.0090   -3.1770    0.7230 O   0  0  0  0  0  0  0  0  0  0  0  0
   -1.8380    1.6910    1.0000 C   0  0  1  0  0  0  0  0  0  0  0  0
   -3.0690    2.3160    1.1320 O   0  0  0  0  0  0  0  0  0  0  0  0
   -1.8090    0.5690    1.8340 O   0  0  0  0  0  0  0  0  0  0  0  0
   -2.8370   -0.3790    1.7300 C   0  0  0  0  0  0  0  0  0  0  0  0
   -1.8570   -2.4490   -0.9190 H   0  0  0  0  0  0  0  0  0  0  0  0
   -4.0870   -1.7690   -1.2040 H   0  0  0  0  0  0  0  0  0  0  0  0
   -4.9670   -1.2160    0.2010 H   0  0  0  0  0  0  0  0  0  0  0  0
   -4.7450    0.4670   -1.8460 H   0  0  0  0  0  0  0  0  0  0  0  0
   -4.5080    1.1280   -0.2530 H   0  0  0  0  0  0  0  0  0  0  0  0
   -0.0430    1.0180   -1.9270 H   0  0  0  0  0  0  0  0  0  0  0  0
    0.2290    2.3450   -0.8290 H   0  0  0  0  0  0  0  0  0  0  0  0
    4.1460    3.9380    0.8550 H   0  0  0  0  0  0  0  0  0  0  0  0
    5.6540    3.4140   -0.0010 H   0  0  0  0  0  0  0  0  0  0  0  0
    4.2450    0.9400   -1.9600 H   0  0  0  0  0  0  0  0  0  0  0  0
    5.7730    1.2210   -1.1140 H   0  0  0  0  0  0  0  0  0  0  0  0
    4.6370    0.0140   -0.4990 H   0  0  0  0  0  0  0  0  0  0  0  0
    0.2350   -1.1950   -1.3910 H   0  0  0  0  0  0  0  0  0  0  0  0
    2.9450   -1.2070   -1.8930 H   0  0  0  0  0  0  0  0  0  0  0  0
    3.5220   -2.7710   -1.2950 H   0  0  0  0  0  0  0  0  0  0  0  0
    2.0240   -2.6780   -2.2210 H   0  0  0  0  0  0  0  0  0  0  0  0
   -0.9790    2.3100    1.3970 H   0  0  0  0  0  0  0  0  0  0  0  0
   -3.1020    2.7400    1.9950 H   0  0  0  0  0  0  0  0  0  0  0  0
   -3.8350    0.0710    1.9360 H   0  0  0  0  0  0  0  0  0  0  0  0
   -2.6330   -1.0580    2.5900 H   0  0  0  0  0  0  0  0  0  0  0  0
  2  1  1  1
  2 20  1  0
  2  3  1  0
  2 26  1  0
  3 31  1  0
  3  4  2  0
  4  5  1  0
  4 30  1  0
  5 32  1  0
  5  6  1  0
  5 33  1  0
  6 34  1  0
  6  7  1  0
  6 35  1  0
  7  8  1  6
  7  9  1  0
  7 10  1  0
 10  9  1  6
 10 11  1  0
 10 27  1  0
 11 36  1  0
 11 37  1  0
 11 12  1  0
 12 20  1  0
 12 14  1  0
 12 13  1  1
 14 15  1  0
 15 17  1  0
 15 16  2  0
 17 19  1  0
 17 18  2  0
 18 39  1  0
 18 38  1  0
 19 40  1  0
 19 41  1  0
 19 42  1  0
 20 43  1  6
 20 21  1  0
 21 23  1  0
 21 24  1  0
 21 22  1  1
 23 46  1  0
 23 44  1  0
 23 45  1  0
 24 25  2  0
 24 26  1  0
 27 28  1  0
 27 47  1  1
 27 29  1  0
 28 48  1  0
 29 30  1  0
 30 49  1  0
 30 50  1  0
M  END
>  <id>  (197) 
298

>  <scaffolds>  (197) 
['O=C1CCCO1', 'O=C1CC2CCC34COCC(=CC2O1)CCC3O4']

>  <name>  (197) 
11[beta],13-Dihydrovernolide

>  <formula>  (197) 
C19H24O7

>  <SMILES>  (197) 
[H][C@@]23C=C4CC[C@H]1OC1(C[C@H](OC(=O)C(=C)C)C2[C@H](C)C(=O)O3)C(O)OC4

>  <ChEMBL_id>  (197) 


>  <ZINC_id>  (197) 


>  <PubChem_id>  (197) 


>  <DrugBank_id>  (197) 


>  <CAS_no>  (197) 
105229-54-7

>  <references>  (197) 
[{'journal': {'name': 'Journal of Ethnopharmacology', 'id': 7}, 'title': 'Isolation and identification of antibacterial compounds from Vernonia colorata leaves', 'year': 2002, 'start_page': 91, 'volume': 80, 'issue': 1, 'doi': '10.1016/S0378-8741(02)00010-7', 'isbn': '', 'despositor': {'code': 'DLP', 'first_name': 'David', 'last_name': 'Penkler', 'id': 23}, 'refauthors_set': [{'author': {'first_name': 'T', 'initials': 'T', 'last_name': 'Rabe', 'id': 592}, 'first_author': True, 'id': 814}, {'author': {'first_name': 'Dulcie', 'initials': 'DA', 'last_name': 'Mulholland', 'id': 525}, 'first_author': False, 'id': 815}, {'author': {'first_name': 'Johannes', 'initials': 'J', 'last_name': 'Van Staden', 'id': 489}, 'first_author': False, 'id': 816}], 'id': 282}]

>  <classifications>  (197) 
[{'classification': 'Sesquiterpene', 'id': 828}, {'classification': 'Terpenoid', 'id': 839}, {'classification': 'Lactones (Classyfire)', 'id': 952}]

>  <molecular_mass>  (197) 
364.39

$$$$
SANC00299_minRM1.pdb
     RDKit          3D

 46 48  0  0  1  0  0  0  0  0999 V2000
   -0.4470   -0.9440    1.5090 H   0  0  0  0  0  0  0  0  0  0  0  0
   -0.2610   -1.0360    0.4050 C   0  0  1  0  0  0  0  0  0  0  0  0
   -0.6340   -2.4260    0.0250 C   0  0  0  0  0  0  0  0  0  0  0  0
   -1.7850   -2.9230   -0.3910 C   0  0  0  0  0  0  0  0  0  0  0  0
    0.6080   -3.2060    0.2540 C   0  0  0  0  0  0  0  0  0  0  0  0
    0.8050   -4.3940    0.3180 O   0  0  0  0  0  0  0  0  0  0  0  0
    1.6820   -2.3590    0.4430 O   0  0  0  0  0  0  0  0  0  0  0  0
    1.2500   -1.0590    0.0800 C   0  0  2  0  0  0  0  0  0  0  0  0
    1.4480   -0.9440   -1.0260 H   0  0  0  0  0  0  0  0  0  0  0  0
    1.9440    0.0590    0.8480 C   0  0  1  0  0  0  0  0  0  0  0  0
    1.7520   -0.0520    1.9460 H   0  0  0  0  0  0  0  0  0  0  0  0
    3.4120   -0.0190    0.5910 C   0  0  0  0  0  0  0  0  0  0  0  0
    4.1710   -0.8920    1.2480 C   0  0  0  0  0  0  0  0  0  0  0  0
    4.0260    0.8680   -0.4150 C   0  0  0  0  0  0  0  0  0  0  0  0
    5.2120    0.9220   -0.6820 O   0  0  0  0  0  0  0  0  0  0  0  0
    3.2670    1.7390   -1.1410 O   0  0  0  0  0  0  0  0  0  0  0  0
    1.8720    1.5680   -1.1050 C   0  0  0  0  0  0  0  0  0  0  0  0
    1.3580    1.3920    0.3310 C   0  0  2  0  0  0  0  0  0  0  0  0
    1.8150    2.4900    1.2480 C   0  0  0  0  0  0  0  0  0  0  0  0
    2.2760    3.6730    0.8650 C   0  0  0  0  0  0  0  0  0  0  0  0
   -0.1810    1.4270    0.3220 C   0  0  0  0  0  0  0  0  0  0  0  0
   -0.8370    0.1820   -0.3060 C   0  0  2  0  0  0  0  0  0  0  0  0
   -0.6790    0.1330   -1.4150 H   0  0  0  0  0  0  0  0  0  0  0  0
   -2.2150    0.1720    0.0140 O   0  0  0  0  0  0  0  0  0  0  0  0
   -3.0540    0.9840   -0.6860 C   0  0  0  0  0  0  0  0  0  0  0  0
   -2.6100    1.6940   -1.5700 O   0  0  0  0  0  0  0  0  0  0  0  0
   -4.4600    0.8700   -0.2650 C   0  0  0  0  0  0  0  0  0  0  0  0
   -5.3940    1.4870   -0.9880 C   0  0  0  0  0  0  0  0  0  0  0  0
   -4.7270    0.0670    0.9730 C   0  0  0  0  0  0  0  0  0  0  0  0
   -6.0980    0.1460    1.2500 O   0  0  0  0  0  0  0  0  0  0  0  0
   -2.6740   -2.3220   -0.5390 H   0  0  0  0  0  0  0  0  0  0  0  0
   -1.9260   -3.9780   -0.6160 H   0  0  0  0  0  0  0  0  0  0  0  0
    3.7780   -1.5680    2.0020 H   0  0  0  0  0  0  0  0  0  0  0  0
    5.2400   -0.9980    1.0850 H   0  0  0  0  0  0  0  0  0  0  0  0
    1.4740    2.4750   -1.6070 H   0  0  0  0  0  0  0  0  0  0  0  0
    1.5790    0.7020   -1.7520 H   0  0  0  0  0  0  0  0  0  0  0  0
    1.7200    2.2630    2.3170 H   0  0  0  0  0  0  0  0  0  0  0  0
    2.4090    4.0100   -0.1580 H   0  0  0  0  0  0  0  0  0  0  0  0
    2.5860    4.4350    1.5750 H   0  0  0  0  0  0  0  0  0  0  0  0
   -0.5570    1.5580    1.3600 H   0  0  0  0  0  0  0  0  0  0  0  0
   -0.5240    2.3410   -0.2070 H   0  0  0  0  0  0  0  0  0  0  0  0
   -6.4550    1.4680   -0.7510 H   0  0  0  0  0  0  0  0  0  0  0  0
   -5.1750    2.0740   -1.8780 H   0  0  0  0  0  0  0  0  0  0  0  0
   -4.4070   -0.9910    0.8090 H   0  0  0  0  0  0  0  0  0  0  0  0
   -4.1070    0.4540    1.8180 H   0  0  0  0  0  0  0  0  0  0  0  0
   -6.2440   -0.3380    2.0710 H   0  0  0  0  0  0  0  0  0  0  0  0
  2  1  1  1
  2 22  1  0
  2  3  1  0
  2  8  1  0
  3  4  2  0
  3  5  1  0
  4 32  1  0
  4 31  1  0
  5  6  2  0
  5  7  1  0
  7  8  1  0
  8  9  1  6
  8 10  1  0
 10 18  1  0
 10 12  1  0
 10 11  1  1
 12 14  1  0
 12 13  2  0
 13 34  1  0
 13 33  1  0
 14 16  1  0
 14 15  2  0
 16 17  1  0
 17 36  1  0
 17 35  1  0
 17 18  1  0
 18 21  1  0
 18 19  1  1
 19 20  2  0
 19 37  1  0
 20 38  1  0
 20 39  1  0
 21 22  1  0
 21 41  1  0
 21 40  1  0
 22 23  1  6
 22 24  1  0
 24 25  1  0
 25 26  2  0
 25 27  1  0
 27 28  2  0
 27 29  1  0
 28 43  1  0
 28 42  1  0
 29 44  1  0
 29 30  1  0
 29 45  1  0
 30 46  1  0
M  END
>  <id>  (198) 
299

>  <scaffolds>  (198) 
['C1CCOCC1', 'C1CCCCC1', 'C=C1C(=O)OCC2CCCCC12', 'O=C1CCCO1', 'C=C1C(=O)OC2CCCCC12', 'C=C1C(=O)OC2C1CCC1COC(=O)C(=C)C12']

>  <name>  (198) 
Vernodalin

>  <formula>  (198) 
C19H20O7

>  <SMILES>  (198) 
[H][C@]13C(=C)C(=O)O[C@]1([H])[C@@]2([H])C(=C)C(=O)OC[C@@]2(C=C)C[C@@H]3OC(=O)C(=C)CO

>  <ChEMBL_id>  (198) 
CHEMBL251225

>  <ZINC_id>  (198) 


>  <PubChem_id>  (198) 
179375

>  <DrugBank_id>  (198) 


>  <CAS_no>  (198) 
21871-10-3

>  <references>  (198) 
[{'journal': {'name': 'Journal of Ethnopharmacology', 'id': 7}, 'title': 'Isolation and identification of antibacterial compounds from Vernonia colorata leaves', 'year': 2002, 'start_page': 91, 'volume': 80, 'issue': 1, 'doi': '10.1016/S0378-8741(02)00010-7', 'isbn': '', 'despositor': {'code': 'DLP', 'first_name': 'David', 'last_name': 'Penkler', 'id': 23}, 'refauthors_set': [{'author': {'first_name': 'T', 'initials': 'T', 'last_name': 'Rabe', 'id': 592}, 'first_author': True, 'id': 814}, {'author': {'first_name': 'Dulcie', 'initials': 'DA', 'last_name': 'Mulholland', 'id': 525}, 'first_author': False, 'id': 815}, {'author': {'first_name': 'Johannes', 'initials': 'J', 'last_name': 'Van Staden', 'id': 489}, 'first_author': False, 'id': 816}], 'id': 282}]

>  <classifications>  (198) 
[{'classification': 'Sesquiterpene', 'id': 828}, {'classification': 'Terpenoid', 'id': 839}, {'classification': 'Carboxylic acids and derivatives (Classyfire)', 'id': 950}]

>  <molecular_mass>  (198) 
360.36

$$$$
SANC00300_minRM1.pdb
     RDKit          3D

 48 51  0  0  1  0  0  0  0  0999 V2000
   -0.4040   -1.3750    1.6710 H   0  0  0  0  0  0  0  0  0  0  0  0
   -0.4200   -1.8250    0.6470 C   0  0  2  0  0  0  0  0  0  0  0  0
   -1.7700   -1.8780    0.0170 C   0  0  0  0  0  0  0  0  0  0  0  0
   -2.8110   -1.1540    0.4240 C   0  0  0  0  0  0  0  0  0  0  0  0
   -4.0200   -1.0340   -0.4450 C   0  0  0  0  0  0  0  0  0  0  0  0
   -4.0090    0.3810   -1.0280 C   0  0  0  0  0  0  0  0  0  0  0  0
   -2.6000    0.7640   -1.4190 C   0  0  1  0  0  0  0  0  0  0  0  0
   -2.2260    0.1950   -2.2970 H   0  0  0  0  0  0  0  0  0  0  0  0
   -2.3130    2.1490   -1.4070 O   0  0  0  0  0  0  0  0  0  0  0  0
   -1.5840    1.3650   -0.4750 C   0  0  2  0  0  0  0  0  0  0  0  0
   -0.1060    1.3180   -0.8160 C   0  0  0  0  0  0  0  0  0  0  0  0
    0.7480    0.3690    0.0500 C   0  0  2  0  0  0  0  0  0  0  0  0
    0.5450    0.5070    1.1460 H   0  0  0  0  0  0  0  0  0  0  0  0
    2.1000    0.6770   -0.2410 O   0  0  0  0  0  0  0  0  0  0  0  0
    2.6710    1.7560    0.3540 C   0  0  0  0  0  0  0  0  0  0  0  0
    2.0380    2.4360    1.1430 O   0  0  0  0  0  0  0  0  0  0  0  0
    4.0730    1.9640   -0.0540 C   0  0  0  0  0  0  0  0  0  0  0  0
    4.8850    2.6210    0.7740 C   0  0  0  0  0  0  0  0  0  0  0  0
    4.4960    1.4520   -1.3820 C   0  0  0  0  0  0  0  0  0  0  0  0
    0.5590   -1.1100   -0.3480 C   0  0  1  0  0  0  0  0  0  0  0  0
    0.1520   -1.1550   -1.3910 H   0  0  0  0  0  0  0  0  0  0  0  0
    1.7470   -2.0170   -0.3250 C   0  0  0  0  0  0  0  0  0  0  0  0
    2.9380   -1.9010   -0.8930 C   0  0  0  0  0  0  0  0  0  0  0  0
    1.3340   -3.2510    0.3730 C   0  0  0  0  0  0  0  0  0  0  0  0
    1.9290   -4.2870    0.5690 O   0  0  0  0  0  0  0  0  0  0  0  0
    0.0490   -3.1530    0.8270 O   0  0  0  0  0  0  0  0  0  0  0  0
   -1.8470    1.6920    0.9910 C   0  0  1  0  0  0  0  0  0  0  0  0
   -3.0790    2.3200    1.0800 O   0  0  0  0  0  0  0  0  0  0  0  0
   -1.8460    0.5730    1.8290 O   0  0  0  0  0  0  0  0  0  0  0  0
   -2.8710   -0.3750    1.7010 C   0  0  0  0  0  0  0  0  0  0  0  0
   -1.8410   -2.5300   -0.8630 H   0  0  0  0  0  0  0  0  0  0  0  0
   -4.0360   -1.7950   -1.2540 H   0  0  0  0  0  0  0  0  0  0  0  0
   -4.9560   -1.2280    0.1190 H   0  0  0  0  0  0  0  0  0  0  0  0
   -4.6620    0.4420   -1.9250 H   0  0  0  0  0  0  0  0  0  0  0  0
   -4.4680    1.1090   -0.3300 H   0  0  0  0  0  0  0  0  0  0  0  0
    0.0400    1.0850   -1.8940 H   0  0  0  0  0  0  0  0  0  0  0  0
    0.2770    2.3630   -0.7310 H   0  0  0  0  0  0  0  0  0  0  0  0
    4.5770    3.0100    1.7420 H   0  0  0  0  0  0  0  0  0  0  0  0
    5.9280    2.8230    0.5480 H   0  0  0  0  0  0  0  0  0  0  0  0
    3.9610    1.9660   -2.1960 H   0  0  0  0  0  0  0  0  0  0  0  0
    5.5720    1.5880   -1.5680 H   0  0  0  0  0  0  0  0  0  0  0  0
    4.2900    0.3730   -1.4960 H   0  0  0  0  0  0  0  0  0  0  0  0
    3.2790   -1.0380   -1.4630 H   0  0  0  0  0  0  0  0  0  0  0  0
    3.6900   -2.6870   -0.8240 H   0  0  0  0  0  0  0  0  0  0  0  0
   -1.0000    2.3070    1.4170 H   0  0  0  0  0  0  0  0  0  0  0  0
   -3.1520    2.7240    1.9510 H   0  0  0  0  0  0  0  0  0  0  0  0
   -3.8750    0.0780    1.8670 H   0  0  0  0  0  0  0  0  0  0  0  0
   -2.6950   -1.0420    2.5770 H   0  0  0  0  0  0  0  0  0  0  0  0
  2  1  1  1
  2 20  1  0
  2  3  1  0
  2 26  1  0
  3 31  1  0
  3  4  2  0
  4  5  1  0
  4 30  1  0
  5 32  1  0
  5  6  1  0
  5 33  1  0
  6 34  1  0
  6  7  1  0
  6 35  1  0
  7  8  1  6
  7  9  1  0
  7 10  1  0
 10  9  1  6
 10 11  1  0
 10 27  1  0
 11 36  1  0
 11 37  1  0
 11 12  1  0
 12 20  1  0
 12 14  1  0
 12 13  1  1
 14 15  1  0
 15 17  1  0
 15 16  2  0
 17 19  1  0
 17 18  2  0
 18 39  1  0
 18 38  1  0
 19 40  1  0
 19 41  1  0
 19 42  1  0
 20 21  1  6
 20 22  1  0
 22 23  2  0
 22 24  1  0
 23 43  1  0
 23 44  1  0
 24 25  2  0
 24 26  1  0
 27 28  1  0
 27 45  1  1
 27 29  1  0
 28 46  1  0
 29 30  1  0
 30 47  1  0
 30 48  1  0
M  END
>  <id>  (199) 
300

>  <scaffolds>  (199) 
['O=C1CCCO1', 'C=C1C(=O)OC2C=C3CCC4OC4(CCC12)COC3', 'O=C1CC2CCC34COCC(=CC2O1)CCC3O4']

>  <name>  (199) 
Vernolide

>  <formula>  (199) 
C19H22O7

>  <SMILES>  (199) 
[H][C@@]23C=C4CC[C@H]1OC1(C[C@H](OC(=O)C(=C)C)[C@@]2([H])C(=C)C(=O)O3)C(O)OC4

>  <ChEMBL_id>  (199) 


>  <ZINC_id>  (199) 


>  <PubChem_id>  (199) 
 5381813

>  <DrugBank_id>  (199) 


>  <CAS_no>  (199) 
27428-86-0

>  <references>  (199) 
[{'journal': {'name': 'Journal of Ethnopharmacology', 'id': 7}, 'title': 'Isolation and identification of antibacterial compounds from Vernonia colorata leaves', 'year': 2002, 'start_page': 91, 'volume': 80, 'issue': 1, 'doi': '10.1016/S0378-8741(02)00010-7', 'isbn': '', 'despositor': {'code': 'DLP', 'first_name': 'David', 'last_name': 'Penkler', 'id': 23}, 'refauthors_set': [{'author': {'first_name': 'T', 'initials': 'T', 'last_name': 'Rabe', 'id': 592}, 'first_author': True, 'id': 814}, {'author': {'first_name': 'Dulcie', 'initials': 'DA', 'last_name': 'Mulholland', 'id': 525}, 'first_author': False, 'id': 815}, {'author': {'first_name': 'Johannes', 'initials': 'J', 'last_name': 'Van Staden', 'id': 489}, 'first_author': False, 'id': 816}], 'id': 282}, {'journal': {'name': 'Journal of Ethnopharmacology', 'id': 7}, 'title': 'Bioactive sesquiterpene lactones from the leaves of Vernonia amygdalina', 'year': 2006, 'start_page': 117, 'volume': 106, 'issue': None, 'doi': '10.1016/j.jep.2005.12.016', 'isbn': '', 'despositor': {'code': 'DLP', 'first_name': 'David', 'last_name': 'Penkler', 'id': 23}, 'refauthors_set': [{'author': {'first_name': '', 'initials': 'P', 'last_name': 'Erasto', 'id': 611}, 'first_author': True, 'id': 836}, {'author': {'first_name': '', 'initials': 'DS', 'last_name': 'Grierson', 'id': 612}, 'first_author': False, 'id': 837}, {'author': {'first_name': 'Anthonia ', 'initials': 'AF', 'last_name': 'Afolayan', 'id': 548}, 'first_author': False, 'id': 838}], 'id': 289}]

>  <classifications>  (199) 
[{'classification': 'Sesquiterpene', 'id': 828}, {'classification': 'Terpenoid', 'id': 839}, {'classification': 'Lactones (Classyfire)', 'id': 952}]

>  <molecular_mass>  (199) 
362.37

$$$$
SANC00302_minRM1.pdb
     RDKit          3D

 16 17  0  0  0  0  0  0  0  0999 V2000
    3.9030   -0.2500    0.0030 Br  0  0  0  0  0  0  0  0  0  0  0  0
    1.9640   -0.0760   -0.0010 C   0  0  0  0  0  0  0  0  0  0  0  0
    1.2200   -1.2610   -0.0050 C   0  0  0  0  0  0  0  0  0  0  0  0
   -0.1580   -1.1970   -0.0000 C   0  0  0  0  0  0  0  0  0  0  0  0
   -0.7640    0.0610   -0.0040 C   0  0  0  0  0  0  0  0  0  0  0  0
   -2.1160    0.4970   -0.0040 C   0  0  0  0  0  0  0  0  0  0  0  0
   -3.6180   -0.6430    0.0080 Br  0  0  0  0  0  0  0  0  0  0  0  0
   -2.1480    1.8720   -0.0010 C   0  0  0  0  0  0  0  0  0  0  0  0
   -0.8270    2.3410    0.0000 N   0  0  0  0  0  0  0  0  0  0  0  0
   -0.5420    3.3070   -0.0080 H   0  0  0  0  0  0  0  0  0  0  0  0
    0.0330    1.2410   -0.0020 C   0  0  0  0  0  0  0  0  0  0  0  0
    1.4350    1.1860    0.0030 C   0  0  0  0  0  0  0  0  0  0  0  0
    1.7360   -2.2260   -0.0040 H   0  0  0  0  0  0  0  0  0  0  0  0
   -0.7760   -2.1000    0.0030 H   0  0  0  0  0  0  0  0  0  0  0  0
   -3.0030    2.5460   -0.0020 H   0  0  0  0  0  0  0  0  0  0  0  0
    2.0510    2.0870    0.0180 H   0  0  0  0  0  0  0  0  0  0  0  0
  1  2  1  0
  2  3  2  0
  2 12  1  0
  3 13  1  0
  3  4  1  0
  4  5  2  0
  4 14  1  0
  5  6  1  0
  5 11  1  0
  6  8  2  0
  6  7  1  0
  8 15  1  0
  8  9  1  0
  9 10  1  0
  9 11  1  0
 11 12  2  0
 12 16  1  0
M  END
>  <id>  (200) 
302

>  <scaffolds>  (200) 
['c1ccccc1', 'c1ccc2[nH]ccc2c1']

>  <name>  (200) 
3,6-Dibromoindole

>  <formula>  (200) 
C8H5Br2N

>  <SMILES>  (200) 
Brc2ccc1c(Br)c[nH]c1c2

>  <ChEMBL_id>  (200) 


>  <ZINC_id>  (200) 


>  <PubChem_id>  (200) 


>  <DrugBank_id>  (200) 


>  <CAS_no>  (200) 
74076-56-5

>  <references>  (200) 
[{'journal': {'name': 'South African Journal of Chemistry', 'id': 19}, 'title': 'Halogenated oxindole and indoles from the South African marine ascidian Distaplia skoogi', 'year': 2013, 'start_page': 64, 'volume': 66, 'issue': None, 'doi': '', 'isbn': '', 'despositor': {'code': 'TMM', 'first_name': 'Thommas', 'last_name': 'Musyoka', 'id': 22}, 'refauthors_set': [{'author': {'first_name': 'Candice', 'initials': 'CL', 'last_name': 'Bromley', 'id': 454}, 'first_author': True, 'id': 817}, {'author': {'first_name': '', 'initials': 'S', 'last_name': 'Parker-Nance', 'id': 572}, 'first_author': False, 'id': 818}, {'author': {'first_name': 'Jo-Anne', 'initials': 'J', 'last_name': 'de la Mare', 'id': 587}, 'first_author': False, 'id': 819}, {'author': {'first_name': 'Adrienne', 'initials': 'AL', 'last_name': 'Edkins', 'id': 591}, 'first_author': False, 'id': 820}, {'author': {'first_name': 'Denzil', 'initials': 'DR', 'last_name': 'Beukes', 'id': 453}, 'first_author': False, 'id': 821}, {'author': {'first_name': 'Michael', 'initials': 'MT', 'last_name': 'Davies-Coleman', 'id': 449}, 'first_author': False, 'id': 822}], 'id': 283}]

>  <classifications>  (200) 
[{'classification': 'Alkaloid', 'id': 738}, {'classification': 'Indole', 'id': 786}, {'classification': 'Indoles and derivatives (Classyfire)', 'id': 947}]

>  <molecular_mass>  (200) 
274.94

$$$$
SANC00303_minRM1.pdb
     RDKit          3D

 16 17  0  0  0  0  0  0  0  0999 V2000
    4.1040    0.9880   -0.0000 Cl  0  0  0  0  0  0  0  0  0  0  0  0
    2.8690   -0.1250   -0.0010 C   0  0  0  0  0  0  0  0  0  0  0  0
    3.0110   -1.4980    0.0000 C   0  0  0  0  0  0  0  0  0  0  0  0
    1.7350   -2.0740   -0.0030 N   0  0  0  0  0  0  0  0  0  0  0  0
    1.5340   -3.0620    0.0020 H   0  0  0  0  0  0  0  0  0  0  0  0
    0.7870   -1.0520   -0.0020 C   0  0  0  0  0  0  0  0  0  0  0  0
   -0.6160   -1.1160   -0.0000 C   0  0  0  0  0  0  0  0  0  0  0  0
   -1.2500    0.0990    0.0010 C   0  0  0  0  0  0  0  0  0  0  0  0
   -3.1960    0.1070   -0.0000 Br  0  0  0  0  0  0  0  0  0  0  0  0
   -0.6090    1.3430    0.0020 C   0  0  0  0  0  0  0  0  0  0  0  0
    0.7700    1.3940    0.0020 C   0  0  0  0  0  0  0  0  0  0  0  0
    1.4750    0.1900    0.0010 C   0  0  0  0  0  0  0  0  0  0  0  0
    3.9230   -2.0900    0.0010 H   0  0  0  0  0  0  0  0  0  0  0  0
   -1.1550   -2.0650    0.0020 H   0  0  0  0  0  0  0  0  0  0  0  0
   -1.2030    2.2600   -0.0010 H   0  0  0  0  0  0  0  0  0  0  0  0
    1.3120    2.3420   -0.0000 H   0  0  0  0  0  0  0  0  0  0  0  0
  1  2  1  0
  2  3  2  0
  2 12  1  0
  3  4  1  0
  3 13  1  0
  4  6  1  0
  4  5  1  0
  6  7  2  0
  6 12  1  0
  7  8  1  0
  7 14  1  0
  8  9  1  0
  8 10  2  0
 10 15  1  0
 10 11  1  0
 11 16  1  0
 11 12  2  0
M  END
>  <id>  (201) 
303

>  <scaffolds>  (201) 
['c1ccccc1', 'c1ccc2[nH]ccc2c1']

>  <name>  (201) 
6-bromo-3-chloroindole

>  <formula>  (201) 
C8H5BrClN

>  <SMILES>  (201) 
Clc1c[nH]c2cc(Br)ccc12

>  <ChEMBL_id>  (201) 


>  <ZINC_id>  (201) 


>  <PubChem_id>  (201) 


>  <DrugBank_id>  (201) 


>  <CAS_no>  (201) 
57916-08-2

>  <references>  (201) 
[{'journal': {'name': 'South African Journal of Chemistry', 'id': 19}, 'title': 'Halogenated oxindole and indoles from the South African marine ascidian Distaplia skoogi', 'year': 2013, 'start_page': 64, 'volume': 66, 'issue': None, 'doi': '', 'isbn': '', 'despositor': {'code': 'TMM', 'first_name': 'Thommas', 'last_name': 'Musyoka', 'id': 22}, 'refauthors_set': [{'author': {'first_name': 'Candice', 'initials': 'CL', 'last_name': 'Bromley', 'id': 454}, 'first_author': True, 'id': 817}, {'author': {'first_name': '', 'initials': 'S', 'last_name': 'Parker-Nance', 'id': 572}, 'first_author': False, 'id': 818}, {'author': {'first_name': 'Jo-Anne', 'initials': 'J', 'last_name': 'de la Mare', 'id': 587}, 'first_author': False, 'id': 819}, {'author': {'first_name': 'Adrienne', 'initials': 'AL', 'last_name': 'Edkins', 'id': 591}, 'first_author': False, 'id': 820}, {'author': {'first_name': 'Denzil', 'initials': 'DR', 'last_name': 'Beukes', 'id': 453}, 'first_author': False, 'id': 821}, {'author': {'first_name': 'Michael', 'initials': 'MT', 'last_name': 'Davies-Coleman', 'id': 449}, 'first_author': False, 'id': 822}], 'id': 283}]

>  <classifications>  (201) 
[{'classification': 'Alkaloid', 'id': 738}, {'classification': 'Indole', 'id': 786}, {'classification': 'Indoles and derivatives (Classyfire)', 'id': 947}]

>  <molecular_mass>  (201) 
230.49

$$$$
SANC00304_minRM1.pdb
     RDKit          3D

 17 18  0  0  0  0  0  0  0  0999 V2000
    4.7270    0.8430    0.0030 O   0  0  0  0  0  0  0  0  0  0  0  0
    3.5960    0.3980    0.0020 C   0  0  0  0  0  0  0  0  0  0  0  0
    3.1440   -1.0590   -0.0010 C   0  0  0  0  0  0  0  0  0  0  0  0
    1.6560   -0.9480    0.0000 C   0  0  0  0  0  0  0  0  0  0  0  0
    0.6980   -1.9330    0.0010 C   0  0  0  0  0  0  0  0  0  0  0  0
   -0.6510   -1.5530    0.0010 C   0  0  0  0  0  0  0  0  0  0  0  0
   -0.9660   -0.2110   -0.0000 C   0  0  0  0  0  0  0  0  0  0  0  0
   -2.8450    0.2850   -0.0020 Br  0  0  0  0  0  0  0  0  0  0  0  0
   -0.0360    0.8190   -0.0000 C   0  0  0  0  0  0  0  0  0  0  0  0
    1.2910    0.4200    0.0010 C   0  0  0  0  0  0  0  0  0  0  0  0
    2.4450    1.2200    0.0010 N   0  0  0  0  0  0  0  0  0  0  0  0
    3.5350   -1.5960   -0.8870 H   0  0  0  0  0  0  0  0  0  0  0  0
    3.5370   -1.6000    0.8830 H   0  0  0  0  0  0  0  0  0  0  0  0
    0.9770   -2.9890    0.0020 H   0  0  0  0  0  0  0  0  0  0  0  0
   -1.4370   -2.3130    0.0020 H   0  0  0  0  0  0  0  0  0  0  0  0
   -0.3360    1.8680   -0.0010 H   0  0  0  0  0  0  0  0  0  0  0  0
    2.4410    2.2290    0.0030 H   0  0  0  0  0  0  0  0  0  0  0  0
  1  2  2  0
  2  3  1  0
  2 11  1  0
  3 12  1  0
  3  4  1  0
  3 13  1  0
  4 10  2  0
  4  5  1  0
  5  6  2  0
  5 14  1  0
  6  7  1  0
  6 15  1  0
  7  8  1  0
  7  9  2  0
  9 16  1  0
  9 10  1  0
 10 11  1  0
 11 17  1  0
M  END
>  <id>  (202) 
304

>  <scaffolds>  (202) 
['c1ccccc1']

>  <name>  (202) 
6-bromo-2-oxindole

>  <formula>  (202) 
C8H6BrNO

>  <SMILES>  (202) 
O=C2Cc1ccc(Br)cc1N2

>  <ChEMBL_id>  (202) 


>  <ZINC_id>  (202) 


>  <PubChem_id>  (202) 


>  <DrugBank_id>  (202) 


>  <CAS_no>  (202) 
99365-40-9

>  <references>  (202) 
[{'journal': {'name': 'South African Journal of Chemistry', 'id': 19}, 'title': 'Halogenated oxindole and indoles from the South African marine ascidian Distaplia skoogi', 'year': 2013, 'start_page': 64, 'volume': 66, 'issue': None, 'doi': '', 'isbn': '', 'despositor': {'code': 'TMM', 'first_name': 'Thommas', 'last_name': 'Musyoka', 'id': 22}, 'refauthors_set': [{'author': {'first_name': 'Candice', 'initials': 'CL', 'last_name': 'Bromley', 'id': 454}, 'first_author': True, 'id': 817}, {'author': {'first_name': '', 'initials': 'S', 'last_name': 'Parker-Nance', 'id': 572}, 'first_author': False, 'id': 818}, {'author': {'first_name': 'Jo-Anne', 'initials': 'J', 'last_name': 'de la Mare', 'id': 587}, 'first_author': False, 'id': 819}, {'author': {'first_name': 'Adrienne', 'initials': 'AL', 'last_name': 'Edkins', 'id': 591}, 'first_author': False, 'id': 820}, {'author': {'first_name': 'Denzil', 'initials': 'DR', 'last_name': 'Beukes', 'id': 453}, 'first_author': False, 'id': 821}, {'author': {'first_name': 'Michael', 'initials': 'MT', 'last_name': 'Davies-Coleman', 'id': 449}, 'first_author': False, 'id': 822}], 'id': 283}]

>  <classifications>  (202) 
[{'classification': 'Alkaloid', 'id': 738}, {'classification': 'Indole', 'id': 786}, {'classification': 'Indoles and derivatives (Classyfire)', 'id': 947}]

>  <molecular_mass>  (202) 
212.04

$$$$
SANC00305_minRM1.pdb
     RDKit          3D

 48 51  0  0  1  0  0  0  0  0999 V2000
    1.4400   -0.9820   -1.5190 H   0  0  0  0  0  0  0  0  0  0  0  0
    1.4590   -0.9640   -0.3970 C   0  0  1  0  0  0  0  0  0  0  0  0
    0.7520   -2.2150    0.1270 C   0  0  0  0  0  0  0  0  0  0  0  0
   -0.6570   -2.3030   -0.4360 C   0  0  0  0  0  0  0  0  0  0  0  0
   -1.4690   -1.0680   -0.0940 C   0  0  2  0  0  0  0  0  0  0  0  0
   -1.9380   -1.0210    1.3410 C   0  0  0  0  0  0  0  0  0  0  0  0
   -3.1420   -0.4460    1.4170 C   0  0  0  0  0  0  0  0  0  0  0  0
   -3.6150   -0.0660    0.0360 C   0  0  2  0  0  0  0  0  0  0  0  0
   -5.1130   -0.1450   -0.1390 C   0  0  0  0  0  0  0  0  0  0  0  0
   -2.8250   -1.0500   -0.8490 C   0  0  0  0  0  0  0  0  0  0  0  0
   -3.0400    1.3010   -0.2750 C   0  0  0  0  0  0  0  0  0  0  0  0
   -3.7220    2.2260   -0.6690 O   0  0  0  0  0  0  0  0  0  0  0  0
   -1.5540    1.4550   -0.0500 C   0  0  0  0  0  0  0  0  0  0  0  0
   -0.7350    0.2280   -0.4710 C   0  0  1  0  0  0  0  0  0  0  0  0
   -0.6540    0.2440   -1.5920 H   0  0  0  0  0  0  0  0  0  0  0  0
    0.7050    0.2860    0.0920 C   0  0  1  0  0  0  0  0  0  0  0  0
    0.7190    0.3800    1.6150 C   0  0  0  0  0  0  0  0  0  0  0  0
    1.3970    1.5360   -0.4710 C   0  0  0  0  0  0  0  0  0  0  0  0
    2.8530    1.5410   -0.1050 C   0  0  0  0  0  0  0  0  0  0  0  0
    3.3950    2.4970    0.4150 O   0  0  0  0  0  0  0  0  0  0  0  0
    3.6390    0.2950   -0.4780 C   0  0  1  0  0  0  0  0  0  0  0  0
    3.7190    0.2650   -1.6010 H   0  0  0  0  0  0  0  0  0  0  0  0
    4.9010    0.2900    0.1170 O   0  0  0  0  0  0  0  0  0  0  0  0
    2.9270   -0.9650    0.0520 C   0  0  2  0  0  0  0  0  0  0  0  0
    2.9900   -0.9810    1.1700 H   0  0  0  0  0  0  0  0  0  0  0  0
    3.6500   -2.1960   -0.4910 C   0  0  0  0  0  0  0  0  0  0  0  0
    1.3240   -3.1320   -0.1400 H   0  0  0  0  0  0  0  0  0  0  0  0
    0.7370   -2.2190    1.2390 H   0  0  0  0  0  0  0  0  0  0  0  0
   -0.6260   -2.4430   -1.5380 H   0  0  0  0  0  0  0  0  0  0  0  0
   -1.1670   -3.2140   -0.0560 H   0  0  0  0  0  0  0  0  0  0  0  0
   -1.3600   -1.4350    2.1600 H   0  0  0  0  0  0  0  0  0  0  0  0
   -3.7460   -0.2580    2.2970 H   0  0  0  0  0  0  0  0  0  0  0  0
   -5.6370    0.5820    0.4980 H   0  0  0  0  0  0  0  0  0  0  0  0
   -5.4130    0.0650   -1.1760 H   0  0  0  0  0  0  0  0  0  0  0  0
   -5.5020   -1.1400    0.1190 H   0  0  0  0  0  0  0  0  0  0  0  0
   -2.7580   -0.7440   -1.9080 H   0  0  0  0  0  0  0  0  0  0  0  0
   -3.3000   -2.0490   -0.8730 H   0  0  0  0  0  0  0  0  0  0  0  0
   -1.1920    2.3630   -0.5790 H   0  0  0  0  0  0  0  0  0  0  0  0
   -1.4040    1.6830    1.0320 H   0  0  0  0  0  0  0  0  0  0  0  0
    0.6300   -0.6020    2.1060 H   0  0  0  0  0  0  0  0  0  0  0  0
    1.6420    0.8270    2.0140 H   0  0  0  0  0  0  0  0  0  0  0  0
   -0.1030    1.0050    2.0030 H   0  0  0  0  0  0  0  0  0  0  0  0
    1.3150    1.5910   -1.5770 H   0  0  0  0  0  0  0  0  0  0  0  0
    0.9090    2.4650   -0.1040 H   0  0  0  0  0  0  0  0  0  0  0  0
    5.3430    1.1190   -0.0970 H   0  0  0  0  0  0  0  0  0  0  0  0
    4.6940   -2.2440   -0.1500 H   0  0  0  0  0  0  0  0  0  0  0  0
    3.1700   -3.1320   -0.1620 H   0  0  0  0  0  0  0  0  0  0  0  0
    3.6730   -2.2260   -1.5900 H   0  0  0  0  0  0  0  0  0  0  0  0
  2  1  1  6
  2 24  1  0
  2 16  1  0
  2  3  1  0
  3  4  1  0
  3 27  1  0
  3 28  1  0
  4 29  1  0
  4  5  1  0
  4 30  1  0
  5 10  1  0
  5 14  1  0
  5  6  1  1
  6  7  2  0
  6 31  1  0
  7  8  1  0
  7 32  1  0
  8 10  1  0
  8 11  1  0
  8  9  1  1
  9 34  1  0
  9 35  1  0
  9 33  1  0
 10 36  1  0
 10 37  1  0
 11 12  2  0
 11 13  1  0
 13 38  1  0
 13 14  1  0
 13 39  1  0
 14 15  1  6
 14 16  1  0
 16 18  1  0
 16 17  1  1
 17 42  1  0
 17 41  1  0
 17 40  1  0
 18 43  1  0
 18 19  1  0
 18 44  1  0
 19 21  1  0
 19 20  2  0
 21 22  1  6
 21 24  1  0
 21 23  1  0
 23 45  1  0
 24 26  1  0
 24 25  1  1
 26 48  1  0
 26 47  1  0
 26 46  1  0
M  END
>  <id>  (203) 
305

>  <scaffolds>  (203) 
['C1CCCCC1', 'C1=CC23CCC4CCCCC4C2CCC1C3', 'C1CCC2CCCCC2C1']

>  <name>  (203) 
ent-3[beta]-Hydroxy-19-nor-beyer15-ene-2,12-dione

>  <formula>  (203) 
C19H26O3

>  <SMILES>  (203) 
[H][C@]34CC[C@]12C=C[C@](C)(C1)C(=O)C[C@@]2([H])[C@]3(C)CC(=O)[C@@H](O)[C@@H]4C

>  <ChEMBL_id>  (203) 


>  <ZINC_id>  (203) 


>  <PubChem_id>  (203) 


>  <DrugBank_id>  (203) 


>  <CAS_no>  (203) 
140670-97-9

>  <references>  (203) 
[{'journal': {'name': 'Phytochemistry', 'id': 10}, 'title': 'Diterpenoids from Spirostachys africana', 'year': 1992, 'start_page': 699, 'volume': 31, 'issue': 2, 'doi': '10.1016/0031-9422(92)90065-X', 'isbn': '', 'despositor': {'code': 'rah', 'first_name': 'Rowan', 'last_name': 'Hatherley', 'id': 20}, 'refauthors_set': [{'author': {'first_name': 'Zvitendo', 'initials': 'ZJ', 'last_name': 'Duri', 'id': 835}, 'first_author': True, 'id': 1356}, {'author': {'first_name': 'Neil', 'initials': 'NA', 'last_name': 'Hughes', 'id': 836}, 'first_author': None, 'id': 1357}, {'author': {'first_name': 'Namboole', 'initials': 'NM', 'last_name': 'Munkombwe', 'id': 837}, 'first_author': None, 'id': 1358}], 'id': 388}]

>  <classifications>  (203) 
[{'classification': 'Diterpene', 'id': 771}, {'classification': 'Terpenoid', 'id': 839}, {'classification': 'Organooxygen compounds (Classyfire)', 'id': 954}]

>  <molecular_mass>  (203) 
302.41

$$$$
SANC00306_minRM1.pdb
     RDKit          3D

 36 38  0  0  0  0  0  0  0  0999 V2000
    4.9660    3.4310    0.0100 C   0  0  0  0  0  0  0  0  0  0  0  0
    4.6110    2.0710    0.0480 O   0  0  0  0  0  0  0  0  0  0  0  0
    3.2880    1.7680    0.0530 C   0  0  0  0  0  0  0  0  0  0  0  0
    2.9840    0.4100    0.0750 C   0  0  0  0  0  0  0  0  0  0  0  0
    1.6810   -0.0530    0.0660 C   0  0  0  0  0  0  0  0  0  0  0  0
    0.6290    0.8680    0.0410 C   0  0  0  0  0  0  0  0  0  0  0  0
    0.9290    2.2360    0.0380 C   0  0  0  0  0  0  0  0  0  0  0  0
    2.2400    2.6940    0.0500 C   0  0  0  0  0  0  0  0  0  0  0  0
   -0.7660    0.4830    0.0500 C   0  0  0  0  0  0  0  0  0  0  0  0
   -1.2750   -0.7520   -0.0390 C   0  0  0  0  0  0  0  0  0  0  0  0
   -2.6870   -1.1780   -0.0260 C   0  0  0  0  0  0  0  0  0  0  0  0
   -2.7240   -2.5250   -0.0470 C   0  0  0  0  0  0  0  0  0  0  0  0
   -1.3220   -2.9940   -0.1080 C   0  0  0  0  0  0  0  0  0  0  0  0
   -0.8190   -4.0870   -0.1690 O   0  0  0  0  0  0  0  0  0  0  0  0
   -0.4850   -1.8810   -0.1240 O   0  0  0  0  0  0  0  0  0  0  0  0
   -3.8100   -0.2660   -0.0070 C   0  0  0  0  0  0  0  0  0  0  0  0
   -3.9520    0.7060   -0.9970 C   0  0  0  0  0  0  0  0  0  0  0  0
   -5.0920    1.4940   -1.0400 C   0  0  0  0  0  0  0  0  0  0  0  0
   -6.0750    1.3030   -0.0620 C   0  0  0  0  0  0  0  0  0  0  0  0
   -5.9330    0.3550    0.9540 C   0  0  0  0  0  0  0  0  0  0  0  0
   -4.7920   -0.4350    0.9700 C   0  0  0  0  0  0  0  0  0  0  0  0
   -7.1530    2.1290   -0.1500 O   0  0  0  0  0  0  0  0  0  0  0  0
    4.3870   -0.9190    0.0830 Br  0  0  0  0  0  0  0  0  0  0  0  0
    4.6170    3.9380   -0.9080 H   0  0  0  0  0  0  0  0  0  0  0  0
    4.6480    3.9990    0.8960 H   0  0  0  0  0  0  0  0  0  0  0  0
    6.0700    3.3880   -0.0260 H   0  0  0  0  0  0  0  0  0  0  0  0
    1.5150   -1.1360    0.0910 H   0  0  0  0  0  0  0  0  0  0  0  0
    0.1220    2.9770    0.0470 H   0  0  0  0  0  0  0  0  0  0  0  0
    2.4190    3.7720    0.0490 H   0  0  0  0  0  0  0  0  0  0  0  0
   -1.4980    1.3040    0.1110 H   0  0  0  0  0  0  0  0  0  0  0  0
   -3.5760   -3.1900   -0.0470 H   0  0  0  0  0  0  0  0  0  0  0  0
   -3.1830    0.8110   -1.7680 H   0  0  0  0  0  0  0  0  0  0  0  0
   -5.2320    2.2340   -1.8310 H   0  0  0  0  0  0  0  0  0  0  0  0
   -6.7040    0.2280    1.7190 H   0  0  0  0  0  0  0  0  0  0  0  0
   -4.6660   -1.1870    1.7570 H   0  0  0  0  0  0  0  0  0  0  0  0
   -7.9160    1.6350    0.1660 H   0  0  0  0  0  0  0  0  0  0  0  0
  1 24  1  0
  1 26  1  0
  1  2  1  0
  1 25  1  0
  2  3  1  0
  3  8  2  0
  3  4  1  0
  4  5  2  0
  4 23  1  0
  5  6  1  0
  5 27  1  0
  6  7  2  0
  6  9  1  0
  7 28  1  0
  7  8  1  0
  8 29  1  0
  9 10  2  0
  9 30  1  0
 10 15  1  0
 10 11  1  0
 11 12  2  0
 11 16  1  0
 12 13  1  0
 12 31  1  0
 13 14  2  0
 13 15  1  0
 16 17  2  0
 16 21  1  0
 17 32  1  0
 17 18  1  0
 18 33  1  0
 18 19  2  0
 19 22  1  0
 19 20  1  0
 20 21  2  0
 20 34  1  0
 21 35  1  0
 22 36  1  0
M  END
>  <id>  (204) 
306

>  <scaffolds>  (204) 
['c1ccccc1', 'O=C1C=C(c2ccccc2)C(=Cc2ccccc2)O1', 'C(=Cc1ccccc1)Cc1ccccc1']

>  <name>  (204) 
3"-bromorubrolide F

>  <formula>  (204) 
C18H13BrO4

>  <SMILES>  (204) 
COC1=C(C=C(C=C1)/C=C\2/C(=CC(=O)O2)C3=CC=C(C=C3)O)Br

>  <ChEMBL_id>  (204) 
CHEMBL2152501

>  <ZINC_id>  (204) 


>  <PubChem_id>  (204) 


>  <DrugBank_id>  (204) 


>  <CAS_no>  (204) 
1403355-35-0

>  <references>  (204) 
[{'journal': {'name': 'Journal of Natural Products', 'id': 5}, 'title': 'Antimicrobial Rubrolides from a South African Species of Synoicum Tunicate', 'year': 2012, 'start_page': 1824, 'volume': 75, 'issue': 10, 'doi': '10.1021/np300580z', 'isbn': '', 'despositor': {'code': 'TMM', 'first_name': 'Thommas', 'last_name': 'Musyoka', 'id': 22}, 'refauthors_set': [{'author': {'first_name': '', 'initials': 'J', 'last_name': 'Sikorska', 'id': 571}, 'first_author': True, 'id': 780}, {'author': {'first_name': '', 'initials': 'S', 'last_name': 'Parker-Nance', 'id': 572}, 'first_author': False, 'id': 781}, {'author': {'first_name': 'Michael', 'initials': 'MT', 'last_name': 'Davies-Coleman', 'id': 449}, 'first_author': False, 'id': 782}, {'author': {'first_name': '', 'initials': 'OB', 'last_name': 'Vining', 'id': 573}, 'first_author': False, 'id': 783}, {'author': {'first_name': '', 'initials': 'AE', 'last_name': 'Sikora', 'id': 574}, 'first_author': False, 'id': 784}, {'author': {'first_name': 'Kerry', 'initials': 'KL', 'last_name': 'McPhail', 'id': 483}, 'first_author': False, 'id': 785}], 'id': 276}]

>  <classifications>  (204) 
[{'classification': 'Furanone', 'id': 777}, {'classification': 'Rubrolide', 'id': 825}, {'classification': 'Phenol ethers (Classyfire)', 'id': 969}]

>  <molecular_mass>  (204) 
373.2

$$$$
SANC00307_minRM1.pdb
     RDKit          3D

 33 35  0  0  0  0  0  0  0  0999 V2000
   -1.7340    4.2090    0.4680 O   0  0  0  0  0  0  0  0  0  0  0  0
   -1.2880    3.0880    0.4640 C   0  0  0  0  0  0  0  0  0  0  0  0
    0.0720    2.5260    0.5850 C   0  0  0  0  0  0  0  0  0  0  0  0
   -0.0480    1.1860    0.4980 C   0  0  0  0  0  0  0  0  0  0  0  0
    1.0120    0.2100    0.5990 C   0  0  0  0  0  0  0  0  0  0  0  0
    0.8880   -0.8860    1.4590 C   0  0  0  0  0  0  0  0  0  0  0  0
    1.9170   -1.8020    1.5830 C   0  0  0  0  0  0  0  0  0  0  0  0
    3.0900   -1.6210    0.8340 C   0  0  0  0  0  0  0  0  0  0  0  0
    4.0360   -2.5700    0.9850 O   0  0  0  0  0  0  0  0  0  0  0  0
    3.2020   -0.5180   -0.0060 C   0  0  0  0  0  0  0  0  0  0  0  0
    4.8170   -0.2370   -1.0260 Br  0  0  0  0  0  0  0  0  0  0  0  0
    2.1820    0.4050   -0.1290 C   0  0  0  0  0  0  0  0  0  0  0  0
   -1.4700    0.8610    0.2860 C   0  0  0  0  0  0  0  0  0  0  0  0
   -2.0350   -0.3280    0.0470 C   0  0  0  0  0  0  0  0  0  0  0  0
   -3.4420   -0.6190   -0.1470 C   0  0  0  0  0  0  0  0  0  0  0  0
   -3.8220   -1.9680   -0.2110 C   0  0  0  0  0  0  0  0  0  0  0  0
   -5.1490   -2.3340   -0.3440 C   0  0  0  0  0  0  0  0  0  0  0  0
   -6.1190   -1.3270   -0.4100 C   0  0  0  0  0  0  0  0  0  0  0  0
   -7.4010   -1.7490   -0.5460 O   0  0  0  0  0  0  0  0  0  0  0  0
   -5.7630    0.0200   -0.3860 C   0  0  0  0  0  0  0  0  0  0  0  0
   -4.4230    0.3650   -0.2610 C   0  0  0  0  0  0  0  0  0  0  0  0
   -2.1910    2.0400    0.3190 O   0  0  0  0  0  0  0  0  0  0  0  0
    0.9530    3.1390    0.7320 H   0  0  0  0  0  0  0  0  0  0  0  0
   -0.0200   -1.0070    2.0610 H   0  0  0  0  0  0  0  0  0  0  0  0
    1.8310   -2.6600    2.2570 H   0  0  0  0  0  0  0  0  0  0  0  0
    4.8280   -2.3060    0.4980 H   0  0  0  0  0  0  0  0  0  0  0  0
    2.2910    1.2670   -0.7960 H   0  0  0  0  0  0  0  0  0  0  0  0
   -1.3540   -1.1900   -0.0060 H   0  0  0  0  0  0  0  0  0  0  0  0
   -3.0660   -2.7590   -0.1450 H   0  0  0  0  0  0  0  0  0  0  0  0
   -5.4450   -3.3850   -0.3890 H   0  0  0  0  0  0  0  0  0  0  0  0
   -7.9840   -1.0680   -0.1800 H   0  0  0  0  0  0  0  0  0  0  0  0
   -6.5220    0.8040   -0.4640 H   0  0  0  0  0  0  0  0  0  0  0  0
   -4.1770    1.4310   -0.2710 H   0  0  0  0  0  0  0  0  0  0  0  0
  1  2  2  0
  2 22  1  0
  2  3  1  0
  3  4  2  0
  3 23  1  0
  4 13  1  0
  4  5  1  0
  5 12  2  0
  5  6  1  0
  6  7  2  0
  6 24  1  0
  7  8  1  0
  7 25  1  0
  8 10  2  0
  8  9  1  0
  9 26  1  0
 10 11  1  0
 10 12  1  0
 12 27  1  0
 13 14  2  0
 13 22  1  0
 14 15  1  0
 14 28  1  0
 15 21  2  0
 15 16  1  0
 16 17  2  0
 16 29  1  0
 17 18  1  0
 17 30  1  0
 18 19  1  0
 18 20  2  0
 19 31  1  0
 20 32  1  0
 20 21  1  0
 21 33  1  0
M  END
>  <id>  (205) 
307

>  <scaffolds>  (205) 
['c1ccccc1', 'O=C1C=C(c2ccccc2)C(=Cc2ccccc2)O1', 'C(=Cc1ccccc1)Cc1ccccc1']

>  <name>  (205) 
3'-bromorubrolide E

>  <formula>  (205) 
C17H11BrO4

>  <SMILES>  (205) 
O=c3cc(c1ccc(O)c(Br)c1)c(=Cc2ccc(O)cc2)o3

>  <ChEMBL_id>  (205) 


>  <ZINC_id>  (205) 


>  <PubChem_id>  (205) 


>  <DrugBank_id>  (205) 


>  <CAS_no>  (205) 
1403355-51-0

>  <references>  (205) 
[{'journal': {'name': 'Journal of Natural Products', 'id': 5}, 'title': 'Antimicrobial Rubrolides from a South African Species of Synoicum Tunicate', 'year': 2012, 'start_page': 1824, 'volume': 75, 'issue': 10, 'doi': '10.1021/np300580z', 'isbn': '', 'despositor': {'code': 'TMM', 'first_name': 'Thommas', 'last_name': 'Musyoka', 'id': 22}, 'refauthors_set': [{'author': {'first_name': '', 'initials': 'J', 'last_name': 'Sikorska', 'id': 571}, 'first_author': True, 'id': 780}, {'author': {'first_name': '', 'initials': 'S', 'last_name': 'Parker-Nance', 'id': 572}, 'first_author': False, 'id': 781}, {'author': {'first_name': 'Michael', 'initials': 'MT', 'last_name': 'Davies-Coleman', 'id': 449}, 'first_author': False, 'id': 782}, {'author': {'first_name': '', 'initials': 'OB', 'last_name': 'Vining', 'id': 573}, 'first_author': False, 'id': 783}, {'author': {'first_name': '', 'initials': 'AE', 'last_name': 'Sikora', 'id': 574}, 'first_author': False, 'id': 784}, {'author': {'first_name': 'Kerry', 'initials': 'KL', 'last_name': 'McPhail', 'id': 483}, 'first_author': False, 'id': 785}], 'id': 276}]

>  <classifications>  (205) 
[{'classification': 'Furanone', 'id': 777}, {'classification': 'Rubrolide', 'id': 825}, {'classification': 'Phenols (Classyfire)', 'id': 970}]

>  <molecular_mass>  (205) 
359.17

$$$$
SANC00308_minRM1.pdb
     RDKit          3D

 50 54  0  0  1  0  0  0  0  0999 V2000
    0.4180    3.9490   -0.1070 C   0  0  0  0  0  0  0  0  0  0  0  0
    0.6900    2.5100    0.3360 C   0  0  2  0  0  0  0  0  0  0  0  0
    0.4400    2.4360    1.4290 H   0  0  0  0  0  0  0  0  0  0  0  0
    2.1710    2.1570    0.1430 C   0  0  0  0  0  0  0  0  0  0  0  0
    2.4110    0.8150   -0.4990 C   0  0  1  0  0  0  0  0  0  0  0  0
    3.1180   -0.2830    0.3000 C   0  0  1  0  0  0  0  0  0  0  0  0
    4.1270   -1.1230   -0.4350 C   0  0  0  0  0  0  0  0  0  0  0  0
    3.4870   -0.0790    1.7420 C   0  0  0  0  0  0  0  0  0  0  0  0
    1.6420   -0.4070   -0.0560 C   0  0  2  0  0  0  0  0  0  0  0  0
    1.3370   -1.3560   -1.0390 O   0  0  0  0  0  0  0  0  0  0  0  0
    0.3100   -2.2010   -0.5480 C   0  0  2  0  0  0  0  0  0  0  0  0
    0.6450   -3.6270   -0.9330 C   0  0  0  0  0  0  0  0  0  0  0  0
   -1.0080   -1.7240   -1.0900 C   0  0  0  0  0  0  0  0  0  0  0  0
   -1.4560   -0.5650   -0.6210 C   0  0  0  0  0  0  0  0  0  0  0  0
   -2.8250   -0.0300   -0.7390 C   0  0  0  0  0  0  0  0  0  0  0  0
   -3.6570   -0.3610   -1.5530 O   0  0  0  0  0  0  0  0  0  0  0  0
   -3.0280    0.9680    0.3870 C   0  0  1  0  0  0  0  0  0  0  0  0
   -3.0370    1.9950   -0.0570 H   0  0  0  0  0  0  0  0  0  0  0  0
   -4.3270    0.7070    1.1220 C   0  0  0  0  0  0  0  0  0  0  0  0
   -1.7930    0.7890    1.2890 C   0  0  0  0  0  0  0  0  0  0  0  0
   -0.6900    0.3250    0.3170 C   0  0  2  0  0  0  0  0  0  0  0  0
   -0.2060    1.5630   -0.4350 C   0  0  0  0  0  0  0  0  0  0  0  0
   -0.5600    1.7970   -1.5720 O   0  0  0  0  0  0  0  0  0  0  0  0
    0.5060   -0.4010    0.9510 C   0  0  1  0  0  0  0  0  0  0  0  0
    0.2760   -1.9340    0.9990 C   0  0  1  0  0  0  0  0  0  0  0  0
   -0.9260   -2.2140    1.6300 O   0  0  0  0  0  0  0  0  0  0  0  0
   -0.6420    4.2280    0.0220 H   0  0  0  0  0  0  0  0  0  0  0  0
    1.0110    4.6710    0.4720 H   0  0  0  0  0  0  0  0  0  0  0  0
    0.6570    4.1110   -1.1710 H   0  0  0  0  0  0  0  0  0  0  0  0
    2.6950    2.9360   -0.4560 H   0  0  0  0  0  0  0  0  0  0  0  0
    2.6810    2.2130    1.1330 H   0  0  0  0  0  0  0  0  0  0  0  0
    2.6460    0.8940   -1.5780 H   0  0  0  0  0  0  0  0  0  0  0  0
    5.0810   -0.5860   -0.5400 H   0  0  0  0  0  0  0  0  0  0  0  0
    4.3350   -2.0630    0.0980 H   0  0  0  0  0  0  0  0  0  0  0  0
    3.8110   -1.4030   -1.4520 H   0  0  0  0  0  0  0  0  0  0  0  0
    3.0710    0.8500    2.1700 H   0  0  0  0  0  0  0  0  0  0  0  0
    3.1290   -0.9150    2.3620 H   0  0  0  0  0  0  0  0  0  0  0  0
    4.5760   -0.0160    1.8910 H   0  0  0  0  0  0  0  0  0  0  0  0
    1.6080   -3.9540   -0.5140 H   0  0  0  0  0  0  0  0  0  0  0  0
   -0.1220   -4.3310   -0.5810 H   0  0  0  0  0  0  0  0  0  0  0  0
    0.7190   -3.7460   -2.0240 H   0  0  0  0  0  0  0  0  0  0  0  0
   -1.5630   -2.3490   -1.7920 H   0  0  0  0  0  0  0  0  0  0  0  0
   -4.3880   -0.3160    1.5210 H   0  0  0  0  0  0  0  0  0  0  0  0
   -4.4560    1.3920    1.9730 H   0  0  0  0  0  0  0  0  0  0  0  0
   -5.1990    0.8420    0.4640 H   0  0  0  0  0  0  0  0  0  0  0  0
   -1.5420    1.7130    1.8400 H   0  0  0  0  0  0  0  0  0  0  0  0
   -1.9670    0.0330    2.0800 H   0  0  0  0  0  0  0  0  0  0  0  0
    0.7670    0.0310    1.9380 H   0  0  0  0  0  0  0  0  0  0  0  0
    1.1200   -2.4560    1.5230 H   0  0  0  0  0  0  0  0  0  0  0  0
   -1.1840   -3.1050    1.3670 H   0  0  0  0  0  0  0  0  0  0  0  0
  1 29  1  0
  1 27  1  0
  1  2  1  0
  1 28  1  0
  2 22  1  0
  2  4  1  0
  2  3  1  1
  4  5  1  0
  4 30  1  0
  4 31  1  0
  5 32  1  6
  5  9  1  0
  5  6  1  0
  6  7  1  6
  6  9  1  0
  6  8  1  0
  7 35  1  0
  7 33  1  0
  7 34  1  0
  8 38  1  0
  8 36  1  0
  8 37  1  0
  9 10  1  6
  9 24  1  0
 10 11  1  0
 11 13  1  0
 11 12  1  1
 11 25  1  0
 12 41  1  0
 12 40  1  0
 12 39  1  0
 13 42  1  0
 13 14  2  0
 14 15  1  0
 15 16  2  0
 15 17  1  0
 17 18  1  6
 17 19  1  0
 17 20  1  0
 19 45  1  0
 19 43  1  0
 19 44  1  0
 20 21  1  0
 20 46  1  0
 20 47  1  0
 21 14  1  0
 21 22  1  6
 21 24  1  0
 22 23  2  0
 24 25  1  0
 24 48  1  1
 25 49  1  1
 25 26  1  0
 26 50  1  0
M  END
>  <id>  (206) 
308

>  <scaffolds>  (206) 
['C1=CCCCC1', 'O=C1CCC23C(=O)CCC4CC45OC(C=C12)CC35']

>  <name>  (206) 
Steenkrotin A

>  <formula>  (206) 
C20H26O4

>  <SMILES>  (206) 
C[C@@H]3CC1C(C)(C)C14O[C@]5(C)C=C2C(=O)[C@@H](C)CC2(C3=O)C4C5O

>  <ChEMBL_id>  (206) 


>  <ZINC_id>  (206) 


>  <PubChem_id>  (206) 


>  <DrugBank_id>  (206) 


>  <CAS_no>  (206) 
1067547-81-2

>  <references>  (206) 
[{'journal': {'name': 'Journal of Natural Products', 'id': 5}, 'title': 'Bioactive Diterpenes and Other Constituents of Croton steenkampianus', 'year': 2008, 'start_page': 1919, 'volume': 71, 'issue': 11, 'doi': '10.1021/np800333r', 'isbn': '', 'despositor': {'code': 'NFA', 'first_name': 'Ngonidzashe', 'last_name': 'Faya', 'id': 21}, 'refauthors_set': [{'author': {'first_name': 'Adeboye', 'initials': 'AM', 'last_name': 'Adelekan', 'id': 461}, 'first_author': True, 'id': 631}, {'author': {'first_name': 'Erwin', 'initials': 'EA', 'last_name': 'Prozesky', 'id': 462}, 'first_author': None, 'id': 1224}, {'author': {'first_name': 'Ahmed', 'initials': 'AA', 'last_name': 'Hussein', 'id': 440}, 'first_author': None, 'id': 1225}, {'author': {'first_name': 'Luis', 'initials': 'D', 'last_name': 'Urena', 'id': 464}, 'first_author': None, 'id': 1226}, {'author': {'first_name': 'David', 'initials': 'DC', 'last_name': 'Liles', 'id': 466}, 'first_author': None, 'id': 1227}, {'author': {'first_name': 'Jacobus', 'initials': 'JM', 'last_name': 'Meyer', 'id': 716}, 'first_author': None, 'id': 1228}, {'author': {'first_name': 'Benjamin', 'initials': 'B', 'last_name': 'Rodriguez', 'id': 472}, 'first_author': None, 'id': 1229}], 'id': 237}]

>  <classifications>  (206) 
[{'classification': 'Diterpene', 'id': 771}, {'classification': 'Steenkrotin', 'id': 834}, {'classification': 'Terpenoid', 'id': 839}, {'classification': 'Phenol lipids (Classyfire)', 'id': 951}]

>  <molecular_mass>  (206) 
330.42

$$$$
SANC00309_minRM1.pdb
     RDKit          3D

 36 38  0  0  0  0  0  0  0  0999 V2000
   -8.0470   -0.5550   -0.8000 C   0  0  0  0  0  0  0  0  0  0  0  0
   -7.0610   -1.5430   -0.6290 O   0  0  0  0  0  0  0  0  0  0  0  0
   -5.7860   -1.1220   -0.4000 C   0  0  0  0  0  0  0  0  0  0  0  0
   -5.3900    0.2020   -0.2430 C   0  0  0  0  0  0  0  0  0  0  0  0
   -4.0480    0.4830   -0.0050 C   0  0  0  0  0  0  0  0  0  0  0  0
   -3.1040   -0.5380    0.0690 C   0  0  0  0  0  0  0  0  0  0  0  0
   -1.6950   -0.2900    0.2910 C   0  0  0  0  0  0  0  0  0  0  0  0
   -1.1020    0.9060    0.4120 C   0  0  0  0  0  0  0  0  0  0  0  0
   -1.8100    2.0940    0.3340 O   0  0  0  0  0  0  0  0  0  0  0  0
   -0.8980    3.1410    0.4020 C   0  0  0  0  0  0  0  0  0  0  0  0
   -1.3400    4.2620    0.3300 O   0  0  0  0  0  0  0  0  0  0  0  0
    0.4570    2.5760    0.5540 C   0  0  0  0  0  0  0  0  0  0  0  0
    0.3240    1.2350    0.5750 C   0  0  0  0  0  0  0  0  0  0  0  0
    1.3850    0.2620    0.6990 C   0  0  0  0  0  0  0  0  0  0  0  0
    1.3150   -0.7530    1.6580 C   0  0  0  0  0  0  0  0  0  0  0  0
    2.3500   -1.6600    1.7960 C   0  0  0  0  0  0  0  0  0  0  0  0
    3.4730   -1.5520    0.9600 C   0  0  0  0  0  0  0  0  0  0  0  0
    4.4360   -2.4730    1.1590 O   0  0  0  0  0  0  0  0  0  0  0  0
    3.5270   -0.5330    0.0160 C   0  0  0  0  0  0  0  0  0  0  0  0
    5.0680   -0.3630   -1.1350 Br  0  0  0  0  0  0  0  0  0  0  0  0
    2.5020    0.3820   -0.1240 C   0  0  0  0  0  0  0  0  0  0  0  0
   -3.5290   -1.8680   -0.0740 C   0  0  0  0  0  0  0  0  0  0  0  0
   -4.8560   -2.1700   -0.3080 C   0  0  0  0  0  0  0  0  0  0  0  0
   -8.9590   -1.1350   -1.0130 H   0  0  0  0  0  0  0  0  0  0  0  0
   -8.2160    0.0480    0.1090 H   0  0  0  0  0  0  0  0  0  0  0  0
   -7.8530    0.1220   -1.6490 H   0  0  0  0  0  0  0  0  0  0  0  0
   -6.0940    1.0370   -0.2930 H   0  0  0  0  0  0  0  0  0  0  0  0
   -3.7630    1.5340    0.1280 H   0  0  0  0  0  0  0  0  0  0  0  0
   -1.0450   -1.1730    0.3550 H   0  0  0  0  0  0  0  0  0  0  0  0
    1.3460    3.1890    0.6290 H   0  0  0  0  0  0  0  0  0  0  0  0
    0.4440   -0.8150    2.3220 H   0  0  0  0  0  0  0  0  0  0  0  0
    2.3090   -2.4490    2.5540 H   0  0  0  0  0  0  0  0  0  0  0  0
    5.1680   -2.3090    0.5430 H   0  0  0  0  0  0  0  0  0  0  0  0
    2.5690    1.1820   -0.8700 H   0  0  0  0  0  0  0  0  0  0  0  0
   -2.8100   -2.6900    0.0070 H   0  0  0  0  0  0  0  0  0  0  0  0
   -5.1850   -3.2070   -0.4160 H   0  0  0  0  0  0  0  0  0  0  0  0
  1 26  1  0
  1 24  1  0
  1  2  1  0
  1 25  1  0
  2  3  1  0
  3 23  2  0
  3  4  1  0
  4 27  1  0
  4  5  2  0
  5  6  1  0
  5 28  1  0
  6 22  2  0
  6  7  1  0
  7 29  1  0
  7  8  2  0
  8  9  1  0
  8 13  1  0
  9 10  1  0
 10 11  2  0
 10 12  1  0
 12 13  2  0
 12 30  1  0
 13 14  1  0
 14 21  2  0
 14 15  1  0
 15 16  2  0
 15 31  1  0
 16 17  1  0
 16 32  1  0
 17 19  2  0
 17 18  1  0
 18 33  1  0
 19 20  1  0
 19 21  1  0
 21 34  1  0
 22 23  1  0
 22 35  1  0
 23 36  1  0
M  END
>  <id>  (207) 
309

>  <scaffolds>  (207) 
['c1ccccc1', 'O=C1C=C(c2ccccc2)C(=Cc2ccccc2)O1', 'C(=Cc1ccccc1)Cc1ccccc1']

>  <name>  (207) 
3'- bromorubrolide F

>  <formula>  (207) 
C18H13BrO4

>  <SMILES>  (207) 
COc3ccc(C=c1oc(=O)cc1c2ccc(O)c(Br)c2)cc3

>  <ChEMBL_id>  (207) 


>  <ZINC_id>  (207) 


>  <PubChem_id>  (207) 


>  <DrugBank_id>  (207) 


>  <CAS_no>  (207) 
1403355-52-1

>  <references>  (207) 
[{'journal': {'name': 'Journal of Natural Products', 'id': 5}, 'title': 'Antimicrobial Rubrolides from a South African Species of Synoicum Tunicate', 'year': 2012, 'start_page': 1824, 'volume': 75, 'issue': 10, 'doi': '10.1021/np300580z', 'isbn': '', 'despositor': {'code': 'TMM', 'first_name': 'Thommas', 'last_name': 'Musyoka', 'id': 22}, 'refauthors_set': [{'author': {'first_name': '', 'initials': 'J', 'last_name': 'Sikorska', 'id': 571}, 'first_author': True, 'id': 780}, {'author': {'first_name': '', 'initials': 'S', 'last_name': 'Parker-Nance', 'id': 572}, 'first_author': False, 'id': 781}, {'author': {'first_name': 'Michael', 'initials': 'MT', 'last_name': 'Davies-Coleman', 'id': 449}, 'first_author': False, 'id': 782}, {'author': {'first_name': '', 'initials': 'OB', 'last_name': 'Vining', 'id': 573}, 'first_author': False, 'id': 783}, {'author': {'first_name': '', 'initials': 'AE', 'last_name': 'Sikora', 'id': 574}, 'first_author': False, 'id': 784}, {'author': {'first_name': 'Kerry', 'initials': 'KL', 'last_name': 'McPhail', 'id': 483}, 'first_author': False, 'id': 785}], 'id': 276}]

>  <classifications>  (207) 
[{'classification': 'Furanone', 'id': 777}, {'classification': 'Rubrolide', 'id': 825}, {'classification': 'Phenol ethers (Classyfire)', 'id': 969}]

>  <molecular_mass>  (207) 
373.2

$$$$
SANC00310_minRM1.pdb
     RDKit          3D

 45 49  0  0  1  0  0  0  0  0999 V2000
    0.6530   -0.4130    1.8200 H   0  0  0  0  0  0  0  0  0  0  0  0
    1.3650   -0.1750    0.9810 C   0  0  1  0  0  0  0  0  0  0  0  0
    1.7970    1.2860    1.1110 C   0  0  0  0  0  0  0  0  0  0  0  0
    2.6990    1.6690   -0.0670 C   0  0  2  0  0  0  0  0  0  0  0  0
    3.6750    1.1110   -0.0110 H   0  0  0  0  0  0  0  0  0  0  0  0
    2.8720    3.0670    0.0440 O   0  0  0  0  0  0  0  0  0  0  0  0
    4.0580    3.5470   -0.5230 C   0  0  0  0  0  0  0  0  0  0  0  0
    2.0330    1.3480   -1.3690 C   0  0  0  0  0  0  0  0  0  0  0  0
    1.1320    0.3790   -1.4950 C   0  0  0  0  0  0  0  0  0  0  0  0
    0.6460   -0.4670   -0.3650 C   0  0  2  0  0  0  0  0  0  0  0  0
   -0.8340   -0.2910   -0.2190 C   0  0  0  0  0  0  0  0  0  0  0  0
   -1.3570    1.0160   -0.2730 C   0  0  0  0  0  0  0  0  0  0  0  0
   -2.7120    1.1260   -0.1080 C   0  0  0  0  0  0  0  0  0  0  0  0
   -3.4770    2.2630   -0.1110 O   0  0  0  0  0  0  0  0  0  0  0  0
   -4.8230    1.8430    0.0990 C   0  0  0  0  0  0  0  0  0  0  0  0
   -4.8420    0.4220    0.2260 O   0  0  0  0  0  0  0  0  0  0  0  0
   -3.5430    0.0070    0.0950 C   0  0  0  0  0  0  0  0  0  0  0  0
   -3.0500   -1.2700    0.1340 C   0  0  0  0  0  0  0  0  0  0  0  0
   -1.6570   -1.3920   -0.0310 C   0  0  0  0  0  0  0  0  0  0  0  0
   -1.1030   -2.7810   -0.0460 C   0  0  0  0  0  0  0  0  0  0  0  0
    0.2810   -2.8330    0.1710 O   0  0  0  0  0  0  0  0  0  0  0  0
    1.0380   -1.9470   -0.6040 C   0  0  1  0  0  0  0  0  0  0  0  0
    0.8790   -2.2990   -1.9320 O   0  0  0  0  0  0  0  0  0  0  0  0
    2.4870   -2.0420   -0.0660 C   0  0  0  0  0  0  0  0  0  0  0  0
    2.6040   -1.0290    1.0180 N   0  0  0  0  0  0  0  0  0  0  0  0
    2.7970   -1.6510    2.3500 C   0  0  0  0  0  0  0  0  0  0  0  0
    0.9060    1.9440    1.1670 H   0  0  0  0  0  0  0  0  0  0  0  0
    2.3280    1.4540    2.0720 H   0  0  0  0  0  0  0  0  0  0  0  0
    4.1720    3.3090   -1.5940 H   0  0  0  0  0  0  0  0  0  0  0  0
    3.9960    4.6400   -0.4130 H   0  0  0  0  0  0  0  0  0  0  0  0
    4.9620    3.1910    0.0010 H   0  0  0  0  0  0  0  0  0  0  0  0
    2.3290    1.9500   -2.2340 H   0  0  0  0  0  0  0  0  0  0  0  0
    0.6730    0.1590   -2.4660 H   0  0  0  0  0  0  0  0  0  0  0  0
   -0.7270    1.8910   -0.4500 H   0  0  0  0  0  0  0  0  0  0  0  0
   -5.2150    2.3040    1.0310 H   0  0  0  0  0  0  0  0  0  0  0  0
   -5.4460    2.1450   -0.7710 H   0  0  0  0  0  0  0  0  0  0  0  0
   -3.6950   -2.1370    0.2820 H   0  0  0  0  0  0  0  0  0  0  0  0
   -1.5070   -3.4060    0.7810 H   0  0  0  0  0  0  0  0  0  0  0  0
   -1.3790   -3.2850   -1.0020 H   0  0  0  0  0  0  0  0  0  0  0  0
    1.2630   -3.1730   -2.0620 H   0  0  0  0  0  0  0  0  0  0  0  0
    2.7660   -3.0770    0.2340 H   0  0  0  0  0  0  0  0  0  0  0  0
    3.2100   -1.7580   -0.8640 H   0  0  0  0  0  0  0  0  0  0  0  0
    3.7620   -2.1860    2.3660 H   0  0  0  0  0  0  0  0  0  0  0  0
    2.8560   -0.8630    3.1200 H   0  0  0  0  0  0  0  0  0  0  0  0
    2.0210   -2.3690    2.6740 H   0  0  0  0  0  0  0  0  0  0  0  0
  2  1  1  1
  2 10  1  0
  2 25  1  0
  2  3  1  0
  3  4  1  0
  3 27  1  0
  3 28  1  0
  4  8  1  0
  4  5  1  1
  4  6  1  0
  6  7  1  0
  7 29  1  0
  7 30  1  0
  7 31  1  0
  8 32  1  0
  8  9  2  0
  9 33  1  0
 10  9  1  6
 10 22  1  0
 10 11  1  0
 11 12  2  0
 11 19  1  0
 12 34  1  0
 12 13  1  0
 13 14  1  0
 13 17  2  0
 14 15  1  0
 15 36  1  0
 15 16  1  0
 15 35  1  0
 16 17  1  0
 17 18  1  0
 18 19  2  0
 18 37  1  0
 19 20  1  0
 20 39  1  0
 20 21  1  0
 20 38  1  0
 21 22  1  0
 22 23  1  6
 22 24  1  0
 23 40  1  0
 24 42  1  0
 24 41  1  0
 24 25  1  0
 25 26  1  0
 26 43  1  0
 26 45  1  0
 26 44  1  0
M  END
>  <id>  (208) 
310

>  <scaffolds>  (208) 
['c1ccccc1', 'C1=CCCCC1', 'C1=CC23c4cc5c(cc4COC2CNC3CC1)OCO5', 'C1CCNC1', 'c1ccc2c(c1)OCO2']

>  <name>  (208) 
Tazettine

>  <formula>  (208) 
C18H21NO5

>  <SMILES>  (208) 
[H][C@]15C[C@H](OC)C=C[C@]14c3cc2OCOc2cc3CO[C@]4(O)CN5C

>  <ChEMBL_id>  (208) 


>  <ZINC_id>  (208) 


>  <PubChem_id>  (208) 
271607

>  <DrugBank_id>  (208) 


>  <CAS_no>  (208) 
507-79-9

>  <references>  (208) 
[{'journal': {'name': 'Plant Medica', 'id': 23}, 'title': 'Acetylcholinesterase Enzyme Inhibitory Effects of Amaryllidaceae Alkaloids', 'year': 2004, 'start_page': 260, 'volume': 70, 'issue': 3, 'doi': '10.1055/s-2004-818919', 'isbn': '', 'despositor': {'code': 'DLP', 'first_name': 'David', 'last_name': 'Penkler', 'id': 23}, 'refauthors_set': [{'author': {'first_name': 'Esameldin', 'initials': 'EE', 'last_name': 'Elgorashi', 'id': 594}, 'first_author': True, 'id': 823}, {'author': {'first_name': 'Gary ', 'initials': 'GI', 'last_name': 'Stafford', 'id': 595}, 'first_author': False, 'id': 824}, {'author': {'first_name': 'Johannes', 'initials': 'J', 'last_name': 'Van Staden', 'id': 489}, 'first_author': False, 'id': 825}], 'id': 284}]

>  <classifications>  (208) 
[{'classification': 'Alkaloid', 'id': 738}, {'classification': 'Amaryllidaceae', 'id': 741}, {'classification': 'Amaryllidaceae alkaloids (Classyfire)', 'id': 971}]

>  <molecular_mass>  (208) 
331.36

$$$$
SANC00311_minRM1.pdb
     RDKit          3D

 37 41  0  0  1  0  0  0  0  0999 V2000
   -3.4730    1.5020    1.7870 O   0  0  0  0  0  0  0  0  0  0  0  0
   -3.6570    1.2130    0.4280 C   0  0  1  0  0  0  0  0  0  0  0  0
   -4.7140    1.4530    0.1210 H   0  0  0  0  0  0  0  0  0  0  0  0
   -2.7060    2.0130   -0.4180 C   0  0  0  0  0  0  0  0  0  0  0  0
   -1.5650    1.5300   -0.8980 C   0  0  0  0  0  0  0  0  0  0  0  0
   -1.1110    0.1360   -0.6610 C   0  0  1  0  0  0  0  0  0  0  0  0
   -1.3420   -0.7530   -1.9010 C   0  0  0  0  0  0  0  0  0  0  0  0
   -1.6370   -2.1450   -1.3090 C   0  0  0  0  0  0  0  0  0  0  0  0
   -1.6120   -2.0280    0.1890 N   0  0  0  0  0  0  0  0  0  0  0  0
   -0.2260   -2.2550    0.6920 C   0  0  0  0  0  0  0  0  0  0  0  0
    0.7570   -1.1760    0.3260 C   0  0  0  0  0  0  0  0  0  0  0  0
    2.1010   -1.4000    0.6710 C   0  0  0  0  0  0  0  0  0  0  0  0
    2.9760   -0.3930    0.3570 C   0  0  0  0  0  0  0  0  0  0  0  0
    4.3290   -0.3420    0.5720 O   0  0  0  0  0  0  0  0  0  0  0  0
    4.7670    0.9170    0.0660 C   0  0  0  0  0  0  0  0  0  0  0  0
    3.6410    1.6130   -0.4630 O   0  0  0  0  0  0  0  0  0  0  0  0
    2.5580    0.7950   -0.2710 C   0  0  0  0  0  0  0  0  0  0  0  0
    1.2500    1.0240   -0.6110 C   0  0  0  0  0  0  0  0  0  0  0  0
    0.3400    0.0030   -0.2920 C   0  0  0  0  0  0  0  0  0  0  0  0
   -1.9300   -0.5800    0.4410 C   0  0  2  0  0  0  0  0  0  0  0  0
   -3.4200   -0.2980    0.2850 C   0  0  0  0  0  0  0  0  0  0  0  0
   -3.4970    2.4570    1.8910 H   0  0  0  0  0  0  0  0  0  0  0  0
   -3.0090    3.0450   -0.6200 H   0  0  0  0  0  0  0  0  0  0  0  0
   -0.9100    2.1500   -1.5230 H   0  0  0  0  0  0  0  0  0  0  0  0
   -2.1770   -0.3810   -2.5260 H   0  0  0  0  0  0  0  0  0  0  0  0
   -0.4700   -0.7560   -2.5830 H   0  0  0  0  0  0  0  0  0  0  0  0
   -2.6450   -2.5170   -1.5950 H   0  0  0  0  0  0  0  0  0  0  0  0
   -0.9410   -2.9200   -1.6960 H   0  0  0  0  0  0  0  0  0  0  0  0
   -0.2830   -2.3450    1.8040 H   0  0  0  0  0  0  0  0  0  0  0  0
    0.1390   -3.2520    0.3510 H   0  0  0  0  0  0  0  0  0  0  0  0
    2.4290   -2.3190    1.1600 H   0  0  0  0  0  0  0  0  0  0  0  0
    5.2190    1.5120    0.8900 H   0  0  0  0  0  0  0  0  0  0  0  0
    5.5140    0.7520   -0.7420 H   0  0  0  0  0  0  0  0  0  0  0  0
    0.9410    1.9500   -1.1030 H   0  0  0  0  0  0  0  0  0  0  0  0
   -1.6160   -0.2650    1.4710 H   0  0  0  0  0  0  0  0  0  0  0  0
   -4.0020   -0.8650    1.0420 H   0  0  0  0  0  0  0  0  0  0  0  0
   -3.8240   -0.6370   -0.6900 H   0  0  0  0  0  0  0  0  0  0  0  0
  1  2  1  0
  1 22  1  0
  2  4  1  0
  2  3  1  6
  2 21  1  0
  4  5  2  0
  4 23  1  0
  5 24  1  0
  6  5  1  6
  6  7  1  0
  6 19  1  0
  6 20  1  0
  7 26  1  0
  7 25  1  0
  7  8  1  0
  8 28  1  0
  8 27  1  0
  9  8  1  0
  9 20  1  0
  9 10  1  0
 10 11  1  0
 10 30  1  0
 10 29  1  0
 11 19  2  0
 11 12  1  0
 12 13  2  0
 12 31  1  0
 13 17  1  0
 13 14  1  0
 14 15  1  0
 15 33  1  0
 15 16  1  0
 15 32  1  0
 16 17  1  0
 17 18  2  0
 18 34  1  0
 18 19  1  0
 20 21  1  0
 20 35  1  1
 21 37  1  0
 21 36  1  0
M  END
>  <id>  (209) 
311

>  <scaffolds>  (209) 
['c1ccccc1', 'C1=CC23CCN(Cc4cc5c(cc42)OCO5)C3CC1', 'C1=CCCCC1', 'C1CCNC1', 'C1=CC23CCN(Cc4ccccc42)C3CC1', 'c1ccc2c(c1)OCO2']

>  <name>  (209) 
Crinine

>  <formula>  (209) 
C16H17NO3

>  <SMILES>  (209) 
O[C@H]5C=C[C@@]34CCN(Cc2cc1OCOc1cc23)C4C5

>  <ChEMBL_id>  (209) 
CHEMBL1221864

>  <ZINC_id>  (209) 


>  <PubChem_id>  (209) 
 398937

>  <DrugBank_id>  (209) 


>  <CAS_no>  (209) 
510-67-8

>  <references>  (209) 
[{'journal': {'name': 'Plant Medica', 'id': 23}, 'title': 'Acetylcholinesterase Enzyme Inhibitory Effects of Amaryllidaceae Alkaloids', 'year': 2004, 'start_page': 260, 'volume': 70, 'issue': 3, 'doi': '10.1055/s-2004-818919', 'isbn': '', 'despositor': {'code': 'DLP', 'first_name': 'David', 'last_name': 'Penkler', 'id': 23}, 'refauthors_set': [{'author': {'first_name': 'Esameldin', 'initials': 'EE', 'last_name': 'Elgorashi', 'id': 594}, 'first_author': True, 'id': 823}, {'author': {'first_name': 'Gary ', 'initials': 'GI', 'last_name': 'Stafford', 'id': 595}, 'first_author': False, 'id': 824}, {'author': {'first_name': 'Johannes', 'initials': 'J', 'last_name': 'Van Staden', 'id': 489}, 'first_author': False, 'id': 825}], 'id': 284}, {'journal': {'name': 'Journal of Natural Products', 'id': 5}, 'title': 'Alkaloid Production in Crinum moorei Cultures', 'year': 2003, 'start_page': 1524, 'volume': 66, 'issue': 11, 'doi': '10.1021/np030206o', 'isbn': '', 'despositor': {'code': 'rah', 'first_name': 'Rowan', 'last_name': 'Hatherley', 'id': 20}, 'refauthors_set': [{'author': {'first_name': '', 'initials': 'CW', 'last_name': 'Fennell', 'id': 714}, 'first_author': True, 'id': 1043}, {'author': {'first_name': 'Esameldin', 'initials': 'EE', 'last_name': 'Elgorashi', 'id': 594}, 'first_author': None, 'id': 1121}, {'author': {'first_name': 'Johannes', 'initials': 'J', 'last_name': 'Van Staden', 'id': 489}, 'first_author': None, 'id': 1122}], 'id': 345}]

>  <classifications>  (209) 
[{'classification': 'Alkaloid', 'id': 738}, {'classification': 'Amaryllidaceae', 'id': 741}, {'classification': 'Amaryllidaceae alkaloids (Classyfire)', 'id': 971}]

>  <molecular_mass>  (209) 
271.31

$$$$
SANC00312_minRM1.pdb
     RDKit          3D

 33 35  0  0  0  0  0  0  0  0999 V2000
    0.8630    3.8210   -0.7470 O   0  0  0  0  0  0  0  0  0  0  0  0
    0.3100    2.7520   -0.6880 C   0  0  0  0  0  0  0  0  0  0  0  0
   -1.1000    2.3160   -0.7560 C   0  0  0  0  0  0  0  0  0  0  0  0
   -1.1070    0.9780   -0.5960 C   0  0  0  0  0  0  0  0  0  0  0  0
   -2.2570    0.1040   -0.6330 C   0  0  0  0  0  0  0  0  0  0  0  0
   -2.2610   -1.0290   -1.4520 C   0  0  0  0  0  0  0  0  0  0  0  0
   -3.3770   -1.8420   -1.5170 C   0  0  0  0  0  0  0  0  0  0  0  0
   -4.5080   -1.5210   -0.7500 C   0  0  0  0  0  0  0  0  0  0  0  0
   -5.5470   -2.3760   -0.8510 O   0  0  0  0  0  0  0  0  0  0  0  0
   -4.4900   -0.3840    0.0500 C   0  0  0  0  0  0  0  0  0  0  0  0
   -6.0400    0.0840    1.1020 Br  0  0  0  0  0  0  0  0  0  0  0  0
   -3.3820    0.4390    0.1170 C   0  0  0  0  0  0  0  0  0  0  0  0
    0.2830    0.5280   -0.3970 C   0  0  0  0  0  0  0  0  0  0  0  0
    0.7400   -0.7010   -0.1280 C   0  0  0  0  0  0  0  0  0  0  0  0
    2.1230   -1.1080    0.0210 C   0  0  0  0  0  0  0  0  0  0  0  0
    2.3880   -2.4850    0.1270 C   0  0  0  0  0  0  0  0  0  0  0  0
    3.6790   -2.9660    0.2290 C   0  0  0  0  0  0  0  0  0  0  0  0
    4.7500   -2.0590    0.2230 C   0  0  0  0  0  0  0  0  0  0  0  0
    5.9830   -2.5970    0.2840 O   0  0  0  0  0  0  0  0  0  0  0  0
    4.4780   -0.7000    0.1510 C   0  0  0  0  0  0  0  0  0  0  0  0
    5.9350    0.5730    0.1570 Br  0  0  0  0  0  0  0  0  0  0  0  0
    3.1890   -0.2090    0.0520 C   0  0  0  0  0  0  0  0  0  0  0  0
    1.1120    1.6290   -0.5080 O   0  0  0  0  0  0  0  0  0  0  0  0
   -1.9230    3.0070   -0.9010 H   0  0  0  0  0  0  0  0  0  0  0  0
   -1.3840   -1.2620   -2.0660 H   0  0  0  0  0  0  0  0  0  0  0  0
   -3.3890   -2.7340   -2.1530 H   0  0  0  0  0  0  0  0  0  0  0  0
   -6.2520   -2.0790   -0.2610 H   0  0  0  0  0  0  0  0  0  0  0  0
   -3.3920    1.3360    0.7450 H   0  0  0  0  0  0  0  0  0  0  0  0
   -0.0130   -1.4940   -0.0230 H   0  0  0  0  0  0  0  0  0  0  0  0
    1.5620   -3.2050    0.1420 H   0  0  0  0  0  0  0  0  0  0  0  0
    3.8800   -4.0380    0.3120 H   0  0  0  0  0  0  0  0  0  0  0  0
    6.6400   -1.8830    0.2830 H   0  0  0  0  0  0  0  0  0  0  0  0
    3.0490    0.8760    0.0070 H   0  0  0  0  0  0  0  0  0  0  0  0
  1  2  2  0
  2  3  1  0
  2 23  1  0
  3 24  1  0
  3  4  2  0
  4  5  1  0
  4 13  1  0
  5  6  2  0
  5 12  1  0
  6 25  1  0
  6  7  1  0
  7 26  1  0
  7  8  2  0
  8  9  1  0
  8 10  1  0
  9 27  1  0
 10 12  2  0
 10 11  1  0
 12 28  1  0
 13 23  1  0
 13 14  2  0
 14 29  1  0
 14 15  1  0
 15 22  2  0
 15 16  1  0
 16 30  1  0
 16 17  2  0
 17 18  1  0
 17 31  1  0
 18 20  2  0
 18 19  1  0
 19 32  1  0
 20 22  1  0
 20 21  1  0
 22 33  1  0
M  END
>  <id>  (210) 
312

>  <scaffolds>  (210) 
['c1ccccc1', 'O=C1C=C(c2ccccc2)C(=Cc2ccccc2)O1', 'C(=Cc1ccccc1)Cc1ccccc1']

>  <name>  (210) 
3',3"-dibromorubrolide E

>  <formula>  (210) 
C17H10Br2O4

>  <SMILES>  (210) 
O=c3cc(c1ccc(O)c(Br)c1)c(=Cc2ccc(O)c(Br)c2)o3

>  <ChEMBL_id>  (210) 


>  <ZINC_id>  (210) 


>  <PubChem_id>  (210) 


>  <DrugBank_id>  (210) 


>  <CAS_no>  (210) 
1403355-55-4

>  <references>  (210) 
[{'journal': {'name': 'Journal of Natural Products', 'id': 5}, 'title': 'Antimicrobial Rubrolides from a South African Species of Synoicum Tunicate', 'year': 2012, 'start_page': 1824, 'volume': 75, 'issue': 10, 'doi': '10.1021/np300580z', 'isbn': '', 'despositor': {'code': 'TMM', 'first_name': 'Thommas', 'last_name': 'Musyoka', 'id': 22}, 'refauthors_set': [{'author': {'first_name': '', 'initials': 'J', 'last_name': 'Sikorska', 'id': 571}, 'first_author': True, 'id': 780}, {'author': {'first_name': '', 'initials': 'S', 'last_name': 'Parker-Nance', 'id': 572}, 'first_author': False, 'id': 781}, {'author': {'first_name': 'Michael', 'initials': 'MT', 'last_name': 'Davies-Coleman', 'id': 449}, 'first_author': False, 'id': 782}, {'author': {'first_name': '', 'initials': 'OB', 'last_name': 'Vining', 'id': 573}, 'first_author': False, 'id': 783}, {'author': {'first_name': '', 'initials': 'AE', 'last_name': 'Sikora', 'id': 574}, 'first_author': False, 'id': 784}, {'author': {'first_name': 'Kerry', 'initials': 'KL', 'last_name': 'McPhail', 'id': 483}, 'first_author': False, 'id': 785}], 'id': 276}]

>  <classifications>  (210) 
[{'classification': 'Furanone', 'id': 777}, {'classification': 'Rubrolide', 'id': 825}, {'classification': 'Phenols (Classyfire)', 'id': 970}]

>  <molecular_mass>  (210) 
438.07

$$$$
SANC00313_minRM1.pdb
     RDKit          3D

 33 35  0  0  0  0  0  0  0  0999 V2000
   -0.3610    4.1970    0.2890 O   0  0  0  0  0  0  0  0  0  0  0  0
    0.0960    3.0840    0.2200 C   0  0  0  0  0  0  0  0  0  0  0  0
    1.4650    2.5270    0.1400 C   0  0  0  0  0  0  0  0  0  0  0  0
    1.3440    1.1900    0.0470 C   0  0  0  0  0  0  0  0  0  0  0  0
    2.4050    0.2110    0.0130 C   0  0  0  0  0  0  0  0  0  0  0  0
    2.4070   -0.8720    0.8900 C   0  0  0  0  0  0  0  0  0  0  0  0
    3.4700   -1.7600    0.8960 C   0  0  0  0  0  0  0  0  0  0  0  0
    4.5220   -1.5540    0.0010 C   0  0  0  0  0  0  0  0  0  0  0  0
    5.5470   -2.4370    0.0800 O   0  0  0  0  0  0  0  0  0  0  0  0
    4.5420   -0.4670   -0.8740 C   0  0  0  0  0  0  0  0  0  0  0  0
    3.4760    0.4230   -0.8560 C   0  0  0  0  0  0  0  0  0  0  0  0
   -0.0940    0.8540    0.0300 C   0  0  0  0  0  0  0  0  0  0  0  0
   -0.6870   -0.3370   -0.1350 C   0  0  0  0  0  0  0  0  0  0  0  0
   -2.1070   -0.6220   -0.1250 C   0  0  0  0  0  0  0  0  0  0  0  0
   -2.4940   -1.9720   -0.1050 C   0  0  0  0  0  0  0  0  0  0  0  0
   -3.8260   -2.3320   -0.0430 C   0  0  0  0  0  0  0  0  0  0  0  0
   -4.7950   -1.3190    0.0270 C   0  0  0  0  0  0  0  0  0  0  0  0
   -6.0750   -1.7930    0.1570 O   0  0  0  0  0  0  0  0  0  0  0  0
   -4.4340    0.0230   -0.0180 C   0  0  0  0  0  0  0  0  0  0  0  0
   -3.0910    0.3640   -0.1020 C   0  0  0  0  0  0  0  0  0  0  0  0
   -0.8100    2.0300    0.1850 O   0  0  0  0  0  0  0  0  0  0  0  0
    2.3530    3.1470    0.1650 H   0  0  0  0  0  0  0  0  0  0  0  0
    1.5780   -1.0060    1.5930 H   0  0  0  0  0  0  0  0  0  0  0  0
    3.4860   -2.6160    1.5760 H   0  0  0  0  0  0  0  0  0  0  0  0
    5.8080   -2.6640   -0.8110 H   0  0  0  0  0  0  0  0  0  0  0  0
    5.3770   -0.3150   -1.5640 H   0  0  0  0  0  0  0  0  0  0  0  0
    3.4820    1.2920   -1.5220 H   0  0  0  0  0  0  0  0  0  0  0  0
   -0.0180   -1.1980   -0.2760 H   0  0  0  0  0  0  0  0  0  0  0  0
   -1.7390   -2.7660   -0.1550 H   0  0  0  0  0  0  0  0  0  0  0  0
   -4.1200   -3.3880   -0.0350 H   0  0  0  0  0  0  0  0  0  0  0  0
   -6.6170   -1.0600    0.2840 H   0  0  0  0  0  0  0  0  0  0  0  0
   -5.2020    0.8030    0.0190 H   0  0  0  0  0  0  0  0  0  0  0  0
   -2.8400    1.4270   -0.1310 H   0  0  0  0  0  0  0  0  0  0  0  0
  1  2  2  0
  2  3  1  0
  2 21  1  0
  3  4  2  0
  3 22  1  0
  4  5  1  0
  4 12  1  0
  5 11  2  0
  5  6  1  0
  6  7  2  0
  6 23  1  0
  7  8  1  0
  7 24  1  0
  8 10  2  0
  8  9  1  0
  9 25  1  0
 10 26  1  0
 10 11  1  0
 11 27  1  0
 12 13  2  0
 12 21  1  0
 13 28  1  0
 13 14  1  0
 14 15  2  0
 14 20  1  0
 15 29  1  0
 15 16  1  0
 16 30  1  0
 16 17  2  0
 17 19  1  0
 17 18  1  0
 18 31  1  0
 19 20  2  0
 19 32  1  0
 20 33  1  0
M  END
>  <id>  (211) 
313

>  <scaffolds>  (211) 
['c1ccccc1', 'O=C1C=C(c2ccccc2)C(=Cc2ccccc2)O1', 'C(=Cc1ccccc1)Cc1ccccc1']

>  <name>  (211) 
Rubrolide E

>  <formula>  (211) 
C17H12O4

>  <SMILES>  (211) 
O=c3cc(c1ccc(O)cc1)c(=Cc2ccc(O)cc2)o3

>  <ChEMBL_id>  (211) 


>  <ZINC_id>  (211) 


>  <PubChem_id>  (211) 


>  <DrugBank_id>  (211) 


>  <CAS_no>  (211) 
136762-97-5

>  <references>  (211) 
[{'journal': {'name': 'Journal of Natural Products', 'id': 5}, 'title': 'Antimicrobial Rubrolides from a South African Species of Synoicum Tunicate', 'year': 2012, 'start_page': 1824, 'volume': 75, 'issue': 10, 'doi': '10.1021/np300580z', 'isbn': '', 'despositor': {'code': 'TMM', 'first_name': 'Thommas', 'last_name': 'Musyoka', 'id': 22}, 'refauthors_set': [{'author': {'first_name': '', 'initials': 'J', 'last_name': 'Sikorska', 'id': 571}, 'first_author': True, 'id': 780}, {'author': {'first_name': '', 'initials': 'S', 'last_name': 'Parker-Nance', 'id': 572}, 'first_author': False, 'id': 781}, {'author': {'first_name': 'Michael', 'initials': 'MT', 'last_name': 'Davies-Coleman', 'id': 449}, 'first_author': False, 'id': 782}, {'author': {'first_name': '', 'initials': 'OB', 'last_name': 'Vining', 'id': 573}, 'first_author': False, 'id': 783}, {'author': {'first_name': '', 'initials': 'AE', 'last_name': 'Sikora', 'id': 574}, 'first_author': False, 'id': 784}, {'author': {'first_name': 'Kerry', 'initials': 'KL', 'last_name': 'McPhail', 'id': 483}, 'first_author': False, 'id': 785}], 'id': 276}]

>  <classifications>  (211) 
[{'classification': 'Furanone', 'id': 777}, {'classification': 'Rubrolide', 'id': 825}, {'classification': 'Phenols (Classyfire)', 'id': 970}]

>  <molecular_mass>  (211) 
280.27

$$$$
SANC00314_minRM1.pdb
     RDKit          3D

 55 58  0  0  1  0  0  0  0  0999 V2000
   -0.1540   -0.1760    2.2120 H   0  0  0  0  0  0  0  0  0  0  0  0
   -0.1750   -0.5590    1.1570 C   0  0  2  0  0  0  0  0  0  0  0  0
   -0.6900   -2.0200    1.1650 C   0  0  1  0  0  0  0  0  0  0  0  0
   -0.0030   -2.6740    1.7730 H   0  0  0  0  0  0  0  0  0  0  0  0
   -1.9690   -2.0260    1.7140 O   0  0  0  0  0  0  0  0  0  0  0  0
   -0.7130   -2.4630   -0.3290 C   0  0  1  0  0  0  0  0  0  0  0  0
   -0.9100   -3.9620   -0.4840 C   0  0  0  0  0  0  0  0  0  0  0  0
   -1.7550   -1.6580   -1.0460 C   0  0  0  0  0  0  0  0  0  0  0  0
   -1.9100   -0.3880   -0.6930 C   0  0  0  0  0  0  0  0  0  0  0  0
   -3.0890    0.4340   -1.0320 C   0  0  0  0  0  0  0  0  0  0  0  0
   -3.7650    0.3470   -2.0320 O   0  0  0  0  0  0  0  0  0  0  0  0
   -3.3370    1.3680    0.1380 C   0  0  1  0  0  0  0  0  0  0  0  0
   -3.1400    2.4160   -0.1960 H   0  0  0  0  0  0  0  0  0  0  0  0
   -4.7660    1.2490    0.6340 C   0  0  0  0  0  0  0  0  0  0  0  0
   -2.3040    0.9380    1.2000 C   0  0  0  0  0  0  0  0  0  0  0  0
   -1.1320    0.3370    0.3650 C   0  0  1  0  0  0  0  0  0  0  0  0
   -0.4530    1.5820   -0.1780 C   0  0  0  0  0  0  0  0  0  0  0  0
   -0.6950    2.0250   -1.2820 O   0  0  0  0  0  0  0  0  0  0  0  0
    0.4800    2.2790    0.7860 C   0  0  2  0  0  0  0  0  0  0  0  0
    0.1680    2.0620    1.8410 H   0  0  0  0  0  0  0  0  0  0  0  0
    0.4140    3.7890    0.5930 C   0  0  0  0  0  0  0  0  0  0  0  0
    1.9010    1.7530    0.5720 C   0  0  0  0  0  0  0  0  0  0  0  0
    1.9470    0.4260   -0.1800 C   0  0  1  0  0  0  0  0  0  0  0  0
    3.4200    0.1620   -0.6270 C   0  0  2  0  0  0  0  0  0  0  0  0
    4.4890    0.4110    0.4510 C   0  0  0  0  0  0  0  0  0  0  0  0
    3.7320    1.0720   -1.8290 C   0  0  0  0  0  0  0  0  0  0  0  0
    3.4620   -1.1830   -0.9950 O   0  0  0  0  0  0  0  0  0  0  0  0
    1.3110   -0.7050    0.6540 C   0  0  1  0  0  0  0  0  0  0  0  0
    2.0120   -0.9660    1.8230 O   0  0  0  0  0  0  0  0  0  0  0  0
    1.4620   -1.9320   -0.0800 O   0  0  0  0  0  0  0  0  0  0  0  0
    0.5210   -2.0970   -0.9520 O   0  0  0  0  0  0  0  0  0  0  0  0
   -2.2370   -2.9460    1.8030 H   0  0  0  0  0  0  0  0  0  0  0  0
   -1.9000   -4.2880   -0.1360 H   0  0  0  0  0  0  0  0  0  0  0  0
   -0.8250   -4.2740   -1.5360 H   0  0  0  0  0  0  0  0  0  0  0  0
   -0.1540   -4.5360    0.0700 H   0  0  0  0  0  0  0  0  0  0  0  0
   -2.3740   -2.1480   -1.8030 H   0  0  0  0  0  0  0  0  0  0  0  0
   -5.0430    0.2160    0.8920 H   0  0  0  0  0  0  0  0  0  0  0  0
   -4.9340    1.8600    1.5340 H   0  0  0  0  0  0  0  0  0  0  0  0
   -5.4850    1.5850   -0.1240 H   0  0  0  0  0  0  0  0  0  0  0  0
   -2.0010    1.7830    1.8460 H   0  0  0  0  0  0  0  0  0  0  0  0
   -2.7250    0.2000    1.9090 H   0  0  0  0  0  0  0  0  0  0  0  0
   -0.5990    4.1760    0.7780 H   0  0  0  0  0  0  0  0  0  0  0  0
    1.0900    4.3160    1.2810 H   0  0  0  0  0  0  0  0  0  0  0  0
    0.6850    4.1000   -0.4270 H   0  0  0  0  0  0  0  0  0  0  0  0
    2.5020    2.5070    0.0150 H   0  0  0  0  0  0  0  0  0  0  0  0
    2.4010    1.6580    1.5590 H   0  0  0  0  0  0  0  0  0  0  0  0
    1.3600    0.4690   -1.1370 H   0  0  0  0  0  0  0  0  0  0  0  0
    4.2950   -0.1350    1.3890 H   0  0  0  0  0  0  0  0  0  0  0  0
    5.4860    0.0780    0.1100 H   0  0  0  0  0  0  0  0  0  0  0  0
    4.6010    1.4750    0.7100 H   0  0  0  0  0  0  0  0  0  0  0  0
    3.5280    2.1280   -1.6020 H   0  0  0  0  0  0  0  0  0  0  0  0
    4.7870    1.0150   -2.1350 H   0  0  0  0  0  0  0  0  0  0  0  0
    3.1350    0.8110   -2.7170 H   0  0  0  0  0  0  0  0  0  0  0  0
    4.2600   -1.3310   -1.5150 H   0  0  0  0  0  0  0  0  0  0  0  0
    2.9240   -1.2120    1.6130 H   0  0  0  0  0  0  0  0  0  0  0  0
  2  1  1  1
  2 16  1  0
  2 28  1  0
  2  3  1  0
  3  6  1  0
  3  5  1  0
  3  4  1  1
  5 32  1  0
  6  8  1  0
  6 31  1  0
  6  7  1  1
  7 34  1  0
  7 33  1  0
  7 35  1  0
  8 36  1  0
  8  9  2  0
  9 10  1  0
 10 11  2  0
 10 12  1  0
 12 13  1  6
 12 14  1  0
 12 15  1  0
 14 39  1  0
 14 37  1  0
 14 38  1  0
 15 16  1  0
 15 40  1  0
 15 41  1  0
 16  9  1  0
 16 17  1  6
 17 18  2  0
 17 19  1  0
 19 22  1  0
 19 21  1  0
 19 20  1  1
 21 44  1  0
 21 42  1  0
 21 43  1  0
 22 23  1  0
 22 45  1  0
 22 46  1  0
 23 47  1  6
 23 24  1  0
 23 28  1  0
 24 26  1  0
 24 27  1  6
 24 25  1  0
 25 49  1  0
 25 50  1  0
 25 48  1  0
 26 53  1  0
 26 52  1  0
 26 51  1  0
 27 54  1  0
 28 30  1  0
 28 29  1  1
 29 55  1  0
 30 31  1  0
M  END
>  <id>  (212) 
314

>  <scaffolds>  (212) 
['C1=CCCCC1', 'O=C1CCC23C(=O)CCCC4OOC(C=C12)CC43']

>  <name>  (212) 
Steenkrotin B

>  <formula>  (212) 
C20H28O7

>  <SMILES>  (212) 
[H][C@@]23[C@@H](O)[C@@]4(C)C=C1C(=O)[C@@H](C)C[C@]12C(=O)[C@H](C)CC([C@](C)(C)O)[C@]3(O)OO4

>  <ChEMBL_id>  (212) 


>  <ZINC_id>  (212) 


>  <PubChem_id>  (212) 


>  <DrugBank_id>  (212) 


>  <CAS_no>  (212) 
1067547-85-6

>  <references>  (212) 
[{'journal': {'name': 'Journal of Natural Products', 'id': 5}, 'title': 'Bioactive Diterpenes and Other Constituents of Croton steenkampianus', 'year': 2008, 'start_page': 1919, 'volume': 71, 'issue': 11, 'doi': '10.1021/np800333r', 'isbn': '', 'despositor': {'code': 'NFA', 'first_name': 'Ngonidzashe', 'last_name': 'Faya', 'id': 21}, 'refauthors_set': [{'author': {'first_name': 'Adeboye', 'initials': 'AM', 'last_name': 'Adelekan', 'id': 461}, 'first_author': True, 'id': 631}, {'author': {'first_name': 'Erwin', 'initials': 'EA', 'last_name': 'Prozesky', 'id': 462}, 'first_author': None, 'id': 1224}, {'author': {'first_name': 'Ahmed', 'initials': 'AA', 'last_name': 'Hussein', 'id': 440}, 'first_author': None, 'id': 1225}, {'author': {'first_name': 'Luis', 'initials': 'D', 'last_name': 'Urena', 'id': 464}, 'first_author': None, 'id': 1226}, {'author': {'first_name': 'David', 'initials': 'DC', 'last_name': 'Liles', 'id': 466}, 'first_author': None, 'id': 1227}, {'author': {'first_name': 'Jacobus', 'initials': 'JM', 'last_name': 'Meyer', 'id': 716}, 'first_author': None, 'id': 1228}, {'author': {'first_name': 'Benjamin', 'initials': 'B', 'last_name': 'Rodriguez', 'id': 472}, 'first_author': None, 'id': 1229}], 'id': 237}]

>  <classifications>  (212) 
[{'classification': 'Diterpene', 'id': 771}, {'classification': 'Terpenoid', 'id': 839}, {'classification': 'Dioxanes (Classyfire)', 'id': 972}]

>  <molecular_mass>  (212) 
380.43

$$$$
SANC00315_minRM1.pdb
     RDKit          3D

 36 38  0  0  0  0  0  0  0  0999 V2000
   -6.7870    0.5300    0.1310 C   0  0  0  0  0  0  0  0  0  0  0  0
   -5.7870    1.5170    0.1210 O   0  0  0  0  0  0  0  0  0  0  0  0
   -4.4930    1.0950    0.0780 C   0  0  0  0  0  0  0  0  0  0  0  0
   -4.0790   -0.2250   -0.0590 C   0  0  0  0  0  0  0  0  0  0  0  0
   -2.7170   -0.5150   -0.1180 C   0  0  0  0  0  0  0  0  0  0  0  0
   -1.7690    0.5010   -0.0250 C   0  0  0  0  0  0  0  0  0  0  0  0
   -0.3400    0.2630   -0.0370 C   0  0  0  0  0  0  0  0  0  0  0  0
    0.2920   -0.9170   -0.0960 C   0  0  0  0  0  0  0  0  0  0  0  0
   -0.3870   -2.1220   -0.1450 O   0  0  0  0  0  0  0  0  0  0  0  0
    0.5550   -3.1450   -0.1010 C   0  0  0  0  0  0  0  0  0  0  0  0
    0.1470   -4.2810   -0.1350 O   0  0  0  0  0  0  0  0  0  0  0  0
    1.9010   -2.5430   -0.0430 C   0  0  0  0  0  0  0  0  0  0  0  0
    1.7380   -1.2050   -0.0650 C   0  0  0  0  0  0  0  0  0  0  0  0
    2.7880   -0.2100   -0.0410 C   0  0  0  0  0  0  0  0  0  0  0  0
    2.8270    0.8160   -0.9850 C   0  0  0  0  0  0  0  0  0  0  0  0
    3.8640    1.7380   -0.9690 C   0  0  0  0  0  0  0  0  0  0  0  0
    4.8510    1.6260    0.0140 C   0  0  0  0  0  0  0  0  0  0  0  0
    5.8730    2.5170   -0.0510 O   0  0  0  0  0  0  0  0  0  0  0  0
    4.8190    0.6070    0.9690 C   0  0  0  0  0  0  0  0  0  0  0  0
    3.7860   -0.3160    0.9290 C   0  0  0  0  0  0  0  0  0  0  0  0
   -2.2080    1.8300    0.0940 C   0  0  0  0  0  0  0  0  0  0  0  0
   -3.5530    2.1360    0.1500 C   0  0  0  0  0  0  0  0  0  0  0  0
   -6.8250   -0.0550   -0.8030 H   0  0  0  0  0  0  0  0  0  0  0  0
   -6.7180   -0.1560    0.9940 H   0  0  0  0  0  0  0  0  0  0  0  0
   -7.7210    1.1010    0.2260 H   0  0  0  0  0  0  0  0  0  0  0  0
   -4.7850   -1.0570   -0.1230 H   0  0  0  0  0  0  0  0  0  0  0  0
   -2.4300   -1.5640   -0.2470 H   0  0  0  0  0  0  0  0  0  0  0  0
    0.2990    1.1560    0.0250 H   0  0  0  0  0  0  0  0  0  0  0  0
    2.8110   -3.1310   -0.0220 H   0  0  0  0  0  0  0  0  0  0  0  0
    2.0380    0.8940   -1.7400 H   0  0  0  0  0  0  0  0  0  0  0  0
    3.9080    2.5480   -1.7040 H   0  0  0  0  0  0  0  0  0  0  0  0
    6.1520    2.7270    0.8550 H   0  0  0  0  0  0  0  0  0  0  0  0
    5.5990    0.5270    1.7320 H   0  0  0  0  0  0  0  0  0  0  0  0
    3.7460   -1.1170    1.6750 H   0  0  0  0  0  0  0  0  0  0  0  0
   -1.4820    2.6490    0.1290 H   0  0  0  0  0  0  0  0  0  0  0  0
   -3.8880    3.1740    0.2440 H   0  0  0  0  0  0  0  0  0  0  0  0
  1 23  1  0
  1  2  1  0
  1 25  1  0
  1 24  1  0
  2  3  1  0
  3  4  2  0
  3 22  1  0
  4 26  1  0
  4  5  1  0
  5 27  1  0
  5  6  2  0
  6  7  1  0
  6 21  1  0
  7  8  2  0
  7 28  1  0
  8  9  1  0
  8 13  1  0
  9 10  1  0
 10 11  2  0
 10 12  1  0
 12 13  2  0
 12 29  1  0
 13 14  1  0
 14 15  2  0
 14 20  1  0
 15 30  1  0
 15 16  1  0
 16 31  1  0
 16 17  2  0
 17 18  1  0
 17 19  1  0
 18 32  1  0
 19 20  2  0
 19 33  1  0
 20 34  1  0
 21 35  1  0
 21 22  2  0
 22 36  1  0
M  END
>  <id>  (213) 
315

>  <scaffolds>  (213) 
['c1ccccc1', 'O=C1C=C(c2ccccc2)C(=Cc2ccccc2)O1', 'C(=Cc1ccccc1)Cc1ccccc1']

>  <name>  (213) 
Rubrolide F

>  <formula>  (213) 
C18H14O4

>  <SMILES>  (213) 
COc3ccc(C=c1oc(=O)cc1c2ccc(O)cc2)cc3

>  <ChEMBL_id>  (213) 


>  <ZINC_id>  (213) 


>  <PubChem_id>  (213) 


>  <DrugBank_id>  (213) 


>  <CAS_no>  (213) 
136762-98-6

>  <references>  (213) 
[{'journal': {'name': 'Journal of Natural Products', 'id': 5}, 'title': 'Antimicrobial Rubrolides from a South African Species of Synoicum Tunicate', 'year': 2012, 'start_page': 1824, 'volume': 75, 'issue': 10, 'doi': '10.1021/np300580z', 'isbn': '', 'despositor': {'code': 'TMM', 'first_name': 'Thommas', 'last_name': 'Musyoka', 'id': 22}, 'refauthors_set': [{'author': {'first_name': '', 'initials': 'J', 'last_name': 'Sikorska', 'id': 571}, 'first_author': True, 'id': 780}, {'author': {'first_name': '', 'initials': 'S', 'last_name': 'Parker-Nance', 'id': 572}, 'first_author': False, 'id': 781}, {'author': {'first_name': 'Michael', 'initials': 'MT', 'last_name': 'Davies-Coleman', 'id': 449}, 'first_author': False, 'id': 782}, {'author': {'first_name': '', 'initials': 'OB', 'last_name': 'Vining', 'id': 573}, 'first_author': False, 'id': 783}, {'author': {'first_name': '', 'initials': 'AE', 'last_name': 'Sikora', 'id': 574}, 'first_author': False, 'id': 784}, {'author': {'first_name': 'Kerry', 'initials': 'KL', 'last_name': 'McPhail', 'id': 483}, 'first_author': False, 'id': 785}], 'id': 276}]

>  <classifications>  (213) 
[{'classification': 'Furanone', 'id': 777}, {'classification': 'Rubrolide', 'id': 825}, {'classification': 'Phenol ethers (Classyfire)', 'id': 969}]

>  <molecular_mass>  (213) 
294.3

$$$$
SANC00316_minRM1.pdb
     RDKit          3D

 42 46  0  0  1  0  0  0  0  0999 V2000
   -1.0590   -0.7340   -1.4680 H   0  0  0  0  0  0  0  0  0  0  0  0
   -1.3930   -0.8500   -0.4020 C   0  0  1  0  0  0  0  0  0  0  0  0
   -2.9120   -0.7200   -0.3590 C   0  0  0  0  0  0  0  0  0  0  0  0
   -3.2510    0.6710   -0.9210 C   0  0  1  0  0  0  0  0  0  0  0  0
   -2.9700    0.7290   -2.0100 H   0  0  0  0  0  0  0  0  0  0  0  0
   -4.6390    0.8190   -0.7230 O   0  0  0  0  0  0  0  0  0  0  0  0
   -5.2570    1.7070   -1.6130 C   0  0  0  0  0  0  0  0  0  0  0  0
   -2.5090    1.7460   -0.1820 C   0  0  0  0  0  0  0  0  0  0  0  0
   -1.3550    1.5290    0.4420 C   0  0  0  0  0  0  0  0  0  0  0  0
   -0.7180    0.1900    0.5250 C   0  0  2  0  0  0  0  0  0  0  0  0
    0.7550    0.1670    0.2160 C   0  0  0  0  0  0  0  0  0  0  0  0
    1.5130    1.3470    0.2960 C   0  0  0  0  0  0  0  0  0  0  0  0
    2.8590    1.2150    0.0700 C   0  0  0  0  0  0  0  0  0  0  0  0
    3.8210    2.1890    0.0860 O   0  0  0  0  0  0  0  0  0  0  0  0
    5.0580    1.5370   -0.1940 C   0  0  0  0  0  0  0  0  0  0  0  0
    4.8080    0.1440   -0.3710 O   0  0  0  0  0  0  0  0  0  0  0  0
    3.4580   -0.0270   -0.2100 C   0  0  0  0  0  0  0  0  0  0  0  0
    2.7310   -1.1860   -0.2890 C   0  0  0  0  0  0  0  0  0  0  0  0
    1.3480   -1.0600   -0.0790 C   0  0  0  0  0  0  0  0  0  0  0  0
    0.5160   -2.3260   -0.2290 C   0  0  2  0  0  0  0  0  0  0  0  0
    0.9710   -3.1610    0.3810 H   0  0  0  0  0  0  0  0  0  0  0  0
    0.4440   -2.6930   -1.5800 O   0  0  0  0  0  0  0  0  0  0  0  0
   -0.9240   -2.1580    0.1670 N   0  0  0  0  0  0  0  0  0  0  0  0
   -1.0100   -1.9650    1.6490 C   0  0  0  0  0  0  0  0  0  0  0  0
   -0.8430   -0.4460    1.9440 C   0  0  2  0  0  0  0  0  0  0  0  0
    0.0720   -0.2440    2.5620 H   0  0  0  0  0  0  0  0  0  0  0  0
   -1.9720    0.0920    2.5560 O   0  0  0  0  0  0  0  0  0  0  0  0
   -3.3940   -1.5190   -0.9590 H   0  0  0  0  0  0  0  0  0  0  0  0
   -3.3340   -0.8430    0.6580 H   0  0  0  0  0  0  0  0  0  0  0  0
   -6.3040    1.7510   -1.2760 H   0  0  0  0  0  0  0  0  0  0  0  0
   -4.8400    2.7280   -1.5940 H   0  0  0  0  0  0  0  0  0  0  0  0
   -5.2390    1.3520   -2.6580 H   0  0  0  0  0  0  0  0  0  0  0  0
   -2.9670    2.7400   -0.1760 H   0  0  0  0  0  0  0  0  0  0  0  0
   -0.8430    2.3370    0.9780 H   0  0  0  0  0  0  0  0  0  0  0  0
    1.0640    2.3180    0.5240 H   0  0  0  0  0  0  0  0  0  0  0  0
    5.4980    1.9570   -1.1250 H   0  0  0  0  0  0  0  0  0  0  0  0
    5.7550    1.6820    0.6610 H   0  0  0  0  0  0  0  0  0  0  0  0
    3.2110   -2.1470   -0.4890 H   0  0  0  0  0  0  0  0  0  0  0  0
    1.3440   -2.7620   -1.9140 H   0  0  0  0  0  0  0  0  0  0  0  0
   -2.0040   -2.3540    1.9650 H   0  0  0  0  0  0  0  0  0  0  0  0
   -0.2800   -2.5810    2.2160 H   0  0  0  0  0  0  0  0  0  0  0  0
   -2.0380   -0.3070    3.4290 H   0  0  0  0  0  0  0  0  0  0  0  0
  2  1  1  6
  2  3  1  0
  2 23  1  0
  2 10  1  0
  3 28  1  0
  3  4  1  0
  3 29  1  0
  4  5  1  6
  4  6  1  0
  4  8  1  0
  6  7  1  0
  7 32  1  0
  7 31  1  0
  7 30  1  0
  8 33  1  0
  8  9  2  0
  9 34  1  0
 10  9  1  1
 10 11  1  0
 10 25  1  0
 11 19  2  0
 11 12  1  0
 12 13  2  0
 12 35  1  0
 13 17  1  0
 13 14  1  0
 14 15  1  0
 15 36  1  0
 15 16  1  0
 15 37  1  0
 16 17  1  0
 17 18  2  0
 18 38  1  0
 18 19  1  0
 19 20  1  0
 20 22  1  0
 20 23  1  0
 20 21  1  1
 22 39  1  0
 23 24  1  0
 24 25  1  0
 24 40  1  0
 24 41  1  0
 25 27  1  0
 25 26  1  1
 27 42  1  0
M  END
>  <id>  (214) 
316

>  <scaffolds>  (214) 
['c1ccccc1', 'C1=CC23CCN(Cc4cc5c(cc42)OCO5)C3CC1', 'C1=CCCCC1', 'C1CCNC1', 'C1=CC23CCN(Cc4ccccc42)C3CC1', 'c1ccc2c(c1)OCO2']

>  <name>  (214) 
6-Hydroxycrinamine

>  <formula>  (214) 
C17H19NO5

>  <SMILES>  (214) 
[H][C@]14C[C@@H](OC)C=C[C@]15c3cc2OCOc2cc3[C@H](O)N4C[C@@H]5O

>  <ChEMBL_id>  (214) 


>  <ZINC_id>  (214) 


>  <PubChem_id>  (214) 
 3083624

>  <DrugBank_id>  (214) 


>  <CAS_no>  (214) 
545-66-4

>  <references>  (214) 
[{'journal': {'name': 'Plant Medica', 'id': 23}, 'title': 'Acetylcholinesterase Enzyme Inhibitory Effects of Amaryllidaceae Alkaloids', 'year': 2004, 'start_page': 260, 'volume': 70, 'issue': 3, 'doi': '10.1055/s-2004-818919', 'isbn': '', 'despositor': {'code': 'DLP', 'first_name': 'David', 'last_name': 'Penkler', 'id': 23}, 'refauthors_set': [{'author': {'first_name': 'Esameldin', 'initials': 'EE', 'last_name': 'Elgorashi', 'id': 594}, 'first_author': True, 'id': 823}, {'author': {'first_name': 'Gary ', 'initials': 'GI', 'last_name': 'Stafford', 'id': 595}, 'first_author': False, 'id': 824}, {'author': {'first_name': 'Johannes', 'initials': 'J', 'last_name': 'Van Staden', 'id': 489}, 'first_author': False, 'id': 825}], 'id': 284}]

>  <classifications>  (214) 
[{'classification': 'Alkaloid', 'id': 738}, {'classification': 'Amaryllidaceae', 'id': 741}, {'classification': 'Amaryllidaceae alkaloids (Classyfire)', 'id': 971}]

>  <molecular_mass>  (214) 
317.34

$$$$
SANC00317_minRM1.pdb
     RDKit          3D

 32 34  0  0  0  0  0  0  0  0999 V2000
    2.1620    2.7570   -0.5310 O   0  0  0  0  0  0  0  0  0  0  0  0
    1.5920    1.6910   -0.2920 C   0  0  0  0  0  0  0  0  0  0  0  0
    0.1430    1.5540   -0.1750 C   0  0  0  0  0  0  0  0  0  0  0  0
   -0.6590    2.6460   -0.2530 O   0  0  0  0  0  0  0  0  0  0  0  0
   -0.4270    0.3500    0.0680 C   0  0  0  0  0  0  0  0  0  0  0  0
   -1.8640    0.1010    0.1430 C   0  0  0  0  0  0  0  0  0  0  0  0
   -2.6580    0.9200    0.9420 C   0  0  0  0  0  0  0  0  0  0  0  0
   -4.0370    0.7560    0.9410 C   0  0  0  0  0  0  0  0  0  0  0  0
   -4.6070   -0.2360    0.1460 C   0  0  0  0  0  0  0  0  0  0  0  0
   -5.9440   -0.4710    0.0940 O   0  0  0  0  0  0  0  0  0  0  0  0
   -3.7990   -1.0850   -0.6260 C   0  0  0  0  0  0  0  0  0  0  0  0
   -4.2700   -2.1090   -1.3830 O   0  0  0  0  0  0  0  0  0  0  0  0
   -2.4130   -0.9250   -0.6210 C   0  0  0  0  0  0  0  0  0  0  0  0
    0.2930   -0.7920    0.2900 O   0  0  0  0  0  0  0  0  0  0  0  0
    1.6490   -0.7360    0.1430 C   0  0  0  0  0  0  0  0  0  0  0  0
    2.3110   -1.9470    0.2960 C   0  0  0  0  0  0  0  0  0  0  0  0
    3.7040   -1.9350    0.1340 C   0  0  0  0  0  0  0  0  0  0  0  0
    4.2990   -3.1350    0.2940 O   0  0  0  0  0  0  0  0  0  0  0  0
    4.4280   -0.7760   -0.1590 C   0  0  0  0  0  0  0  0  0  0  0  0
    3.7220    0.4210   -0.2870 C   0  0  0  0  0  0  0  0  0  0  0  0
    4.4360    1.5150   -0.5730 O   0  0  0  0  0  0  0  0  0  0  0  0
    2.3210    0.4570   -0.1360 C   0  0  0  0  0  0  0  0  0  0  0  0
   -0.2970    3.2130   -0.9540 H   0  0  0  0  0  0  0  0  0  0  0  0
   -2.2030    1.7000    1.5590 H   0  0  0  0  0  0  0  0  0  0  0  0
   -4.6650    1.4020    1.5600 H   0  0  0  0  0  0  0  0  0  0  0  0
   -6.3990    0.3750    0.2180 H   0  0  0  0  0  0  0  0  0  0  0  0
   -5.2090   -1.9560   -1.5610 H   0  0  0  0  0  0  0  0  0  0  0  0
   -1.7820   -1.5880   -1.2220 H   0  0  0  0  0  0  0  0  0  0  0  0
    1.7760   -2.8690    0.5400 H   0  0  0  0  0  0  0  0  0  0  0  0
    5.2360   -3.0630    0.0770 H   0  0  0  0  0  0  0  0  0  0  0  0
    5.5130   -0.7810   -0.2640 H   0  0  0  0  0  0  0  0  0  0  0  0
    3.8650    2.3260   -0.5490 H   0  0  0  0  0  0  0  0  0  0  0  0
  1  2  2  0
  2  3  1  0
  2 22  1  0
  3  4  1  0
  3  5  2  0
  4 23  1  0
  5  6  1  0
  5 14  1  0
  6 13  2  0
  6  7  1  0
  7  8  2  0
  7 24  1  0
  8  9  1  0
  8 25  1  0
  9 11  2  0
  9 10  1  0
 10 26  1  0
 11 12  1  0
 11 13  1  0
 12 27  1  0
 13 28  1  0
 14 15  1  0
 15 22  2  0
 15 16  1  0
 16 17  2  0
 16 29  1  0
 17 19  1  0
 17 18  1  0
 18 30  1  0
 19 20  2  0
 19 31  1  0
 20 21  1  0
 20 22  1  0
 21 32  1  0
M  END
>  <id>  (215) 
317

>  <scaffolds>  (215) 
['c1ccccc1', 'O=c1cc(-c2ccccc2)oc2ccccc12', 'O=c1ccoc2ccccc12']

>  <name>  (215) 
Quercetin

>  <formula>  (215) 
C15H10O7

>  <SMILES>  (215) 
O=c2c(O)c(c1ccc(O)c(O)c1)oc3cc(O)cc(O)c23

>  <ChEMBL_id>  (215) 


>  <ZINC_id>  (215) 


>  <PubChem_id>  (215) 


>  <DrugBank_id>  (215) 


>  <CAS_no>  (215) 
117-39-5

>  <references>  (215) 
[{'journal': {'name': 'Journal of Natural Products', 'id': 5}, 'title': 'Bioactive Diterpenes and Other Constituents of Croton steenkampianus', 'year': 2008, 'start_page': 1919, 'volume': 71, 'issue': 11, 'doi': '10.1021/np800333r', 'isbn': '', 'despositor': {'code': 'NFA', 'first_name': 'Ngonidzashe', 'last_name': 'Faya', 'id': 21}, 'refauthors_set': [{'author': {'first_name': 'Adeboye', 'initials': 'AM', 'last_name': 'Adelekan', 'id': 461}, 'first_author': True, 'id': 631}, {'author': {'first_name': 'Erwin', 'initials': 'EA', 'last_name': 'Prozesky', 'id': 462}, 'first_author': None, 'id': 1224}, {'author': {'first_name': 'Ahmed', 'initials': 'AA', 'last_name': 'Hussein', 'id': 440}, 'first_author': None, 'id': 1225}, {'author': {'first_name': 'Luis', 'initials': 'D', 'last_name': 'Urena', 'id': 464}, 'first_author': None, 'id': 1226}, {'author': {'first_name': 'David', 'initials': 'DC', 'last_name': 'Liles', 'id': 466}, 'first_author': None, 'id': 1227}, {'author': {'first_name': 'Jacobus', 'initials': 'JM', 'last_name': 'Meyer', 'id': 716}, 'first_author': None, 'id': 1228}, {'author': {'first_name': 'Benjamin', 'initials': 'B', 'last_name': 'Rodriguez', 'id': 472}, 'first_author': None, 'id': 1229}], 'id': 237}, {'journal': {'name': 'Journal of Ethnopharmacology', 'id': 7}, 'title': 'Antimicrobial and acetylcholinesterase inhibitory activities of Buddleja salviifolia (L.) Lam. leaf extracts and isolated compounds', 'year': 2013, 'start_page': 515, 'volume': 148, 'issue': None, 'doi': '10.1016/j.jep.2013.04.047', 'isbn': '', 'despositor': {'code': 'DLP', 'first_name': 'David', 'last_name': 'Penkler', 'id': 23}, 'refauthors_set': [{'author': {'first_name': 'S', 'initials': 'SC', 'last_name': 'Pendota', 'id': 631}, 'first_author': True, 'id': 869}, {'author': {'first_name': '', 'initials': 'MA', 'last_name': 'Aderogba', 'id': 442}, 'first_author': False, 'id': 870}, {'author': {'first_name': 'A', 'initials': 'AR', 'last_name': 'Ndhlala', 'id': 632}, 'first_author': False, 'id': 871}, {'author': {'first_name': 'Johannes', 'initials': 'J', 'last_name': 'Van Staden', 'id': 489}, 'first_author': False, 'id': 872}], 'id': 297}, {'journal': {'name': 'Phytochemical communication', 'id': 32}, 'title': 'The major flavonoid of Dodonaea angustifolia', 'year': 2000, 'start_page': 602, 'volume': 71, 'issue': None, 'doi': '10.1016/S0367-326X(00)00201-X', 'isbn': '', 'despositor': {'code': 'DLP', 'first_name': 'David', 'last_name': 'Penkler', 'id': 23}, 'refauthors_set': [{'author': {'first_name': 'Fanie', 'initials': 'FR', 'last_name': 'Van Heerden', 'id': 634}, 'first_author': True, 'id': 963}, {'author': {'first_name': 'Alvaro', 'initials': 'AM', 'last_name': 'Viljoen', 'id': 655}, 'first_author': False, 'id': 964}, {'author': {'first_name': 'Ben-Erik', 'initials': 'B', 'last_name': 'van Wyk', 'id': 635}, 'first_author': False, 'id': 965}], 'id': 322}]

>  <classifications>  (215) 
[{'classification': 'Flavonoids', 'id': 776}, {'classification': 'Flavonoids (Classyfire)', 'id': 941}]

>  <molecular_mass>  (215) 
302.24

$$$$
SANC00318_minRM1.pdb
     RDKit          3D

 41 45  0  0  1  0  0  0  0  0999 V2000
   -1.0220   -0.4540   -1.6880 H   0  0  0  0  0  0  0  0  0  0  0  0
   -1.3700   -0.8300   -0.6890 C   0  0  1  0  0  0  0  0  0  0  0  0
   -2.8870   -0.6900   -0.6240 C   0  0  0  0  0  0  0  0  0  0  0  0
   -3.2000    0.8030   -0.8140 C   0  0  1  0  0  0  0  0  0  0  0  0
   -2.9010    1.1360   -1.8480 H   0  0  0  0  0  0  0  0  0  0  0  0
   -4.5890    0.9170   -0.6050 O   0  0  0  0  0  0  0  0  0  0  0  0
   -5.1790    2.0220   -1.2300 C   0  0  0  0  0  0  0  0  0  0  0  0
   -2.4560    1.6380    0.1870 C   0  0  0  0  0  0  0  0  0  0  0  0
   -1.3130    1.2490    0.7440 C   0  0  0  0  0  0  0  0  0  0  0  0
   -0.6890   -0.0730    0.4760 C   0  0  2  0  0  0  0  0  0  0  0  0
    0.7820   -0.0270    0.1600 C   0  0  0  0  0  0  0  0  0  0  0  0
    1.5550    1.0870    0.5260 C   0  0  0  0  0  0  0  0  0  0  0  0
    2.8920    1.0130    0.2310 C   0  0  0  0  0  0  0  0  0  0  0  0
    3.8660    1.9470    0.4740 O   0  0  0  0  0  0  0  0  0  0  0  0
    5.0840    1.3920   -0.0190 C   0  0  0  0  0  0  0  0  0  0  0  0
    4.8100    0.1010   -0.5600 O   0  0  0  0  0  0  0  0  0  0  0  0
    3.4660   -0.1070   -0.3970 C   0  0  0  0  0  0  0  0  0  0  0  0
    2.7240   -1.2010   -0.7590 C   0  0  0  0  0  0  0  0  0  0  0  0
    1.3510   -1.1380   -0.4620 C   0  0  0  0  0  0  0  0  0  0  0  0
    0.5140   -2.3110   -0.8920 C   0  0  0  0  0  0  0  0  0  0  0  0
   -0.9190   -2.2490   -0.4760 N   0  0  0  0  0  0  0  0  0  0  0  0
   -1.0300   -2.4400    1.0050 C   0  0  0  0  0  0  0  0  0  0  0  0
   -0.8260   -1.0530    1.6810 C   0  0  2  0  0  0  0  0  0  0  0  0
    0.0940   -1.0370    2.3220 H   0  0  0  0  0  0  0  0  0  0  0  0
   -1.9430   -0.6700    2.4200 O   0  0  0  0  0  0  0  0  0  0  0  0
   -3.3770   -1.3030   -1.4080 H   0  0  0  0  0  0  0  0  0  0  0  0
   -3.3180   -1.0590    0.3290 H   0  0  0  0  0  0  0  0  0  0  0  0
   -4.7490    2.9930   -0.9320 H   0  0  0  0  0  0  0  0  0  0  0  0
   -5.1480    1.9610   -2.3320 H   0  0  0  0  0  0  0  0  0  0  0  0
   -6.2310    1.9930   -0.9070 H   0  0  0  0  0  0  0  0  0  0  0  0
   -2.9040    2.6010    0.4500 H   0  0  0  0  0  0  0  0  0  0  0  0
   -0.8010    1.8790    1.4790 H   0  0  0  0  0  0  0  0  0  0  0  0
    1.1270    1.9630    1.0180 H   0  0  0  0  0  0  0  0  0  0  0  0
    5.4960    2.0490   -0.8160 H   0  0  0  0  0  0  0  0  0  0  0  0
    5.8130    1.2980    0.8150 H   0  0  0  0  0  0  0  0  0  0  0  0
    3.1720   -2.0670   -1.2490 H   0  0  0  0  0  0  0  0  0  0  0  0
    0.5290   -2.3890   -2.0060 H   0  0  0  0  0  0  0  0  0  0  0  0
    0.9680   -3.2670   -0.5410 H   0  0  0  0  0  0  0  0  0  0  0  0
   -2.0360   -2.8700    1.2070 H   0  0  0  0  0  0  0  0  0  0  0  0
   -0.3220   -3.2010    1.3970 H   0  0  0  0  0  0  0  0  0  0  0  0
   -2.0100   -1.2760    3.1650 H   0  0  0  0  0  0  0  0  0  0  0  0
  2  1  1  6
  2  3  1  0
  2 21  1  0
  2 10  1  0
  3 26  1  0
  3  4  1  0
  3 27  1  0
  4  5  1  6
  4  6  1  0
  4  8  1  0
  6  7  1  0
  7 29  1  0
  7 28  1  0
  7 30  1  0
  8 31  1  0
  8  9  2  0
  9 32  1  0
 10  9  1  1
 10 11  1  0
 10 23  1  0
 11 19  2  0
 11 12  1  0
 12 13  2  0
 12 33  1  0
 13 17  1  0
 13 14  1  0
 14 15  1  0
 15 34  1  0
 15 16  1  0
 15 35  1  0
 16 17  1  0
 17 18  2  0
 18 36  1  0
 18 19  1  0
 19 20  1  0
 20 37  1  0
 20 38  1  0
 21 20  1  0
 21 22  1  0
 22 39  1  0
 22 40  1  0
 22 23  1  0
 23 24  1  1
 23 25  1  0
 25 41  1  0
M  END
>  <id>  (216) 
318

>  <scaffolds>  (216) 
['c1ccccc1', 'C1=CC23CCN(Cc4cc5c(cc42)OCO5)C3CC1', 'C1=CCCCC1', 'C1CCNC1', 'C1=CC23CCN(Cc4ccccc42)C3CC1', 'c1ccc2c(c1)OCO2']

>  <name>  (216) 
Crinamine

>  <formula>  (216) 
C17H19NO4

>  <SMILES>  (216) 
[H][C@]14C[C@@H](OC)C=C[C@]15c3cc2OCOc2cc3CN4C[C@@H]5O

>  <ChEMBL_id>  (216) 


>  <ZINC_id>  (216) 


>  <PubChem_id>  (216) 
 73620

>  <DrugBank_id>  (216) 


>  <CAS_no>  (216) 
639-41-8

>  <references>  (216) 
[{'journal': {'name': 'Plant Medica', 'id': 23}, 'title': 'Acetylcholinesterase Enzyme Inhibitory Effects of Amaryllidaceae Alkaloids', 'year': 2004, 'start_page': 260, 'volume': 70, 'issue': 3, 'doi': '10.1055/s-2004-818919', 'isbn': '', 'despositor': {'code': 'DLP', 'first_name': 'David', 'last_name': 'Penkler', 'id': 23}, 'refauthors_set': [{'author': {'first_name': 'Esameldin', 'initials': 'EE', 'last_name': 'Elgorashi', 'id': 594}, 'first_author': True, 'id': 823}, {'author': {'first_name': 'Gary ', 'initials': 'GI', 'last_name': 'Stafford', 'id': 595}, 'first_author': False, 'id': 824}, {'author': {'first_name': 'Johannes', 'initials': 'J', 'last_name': 'Van Staden', 'id': 489}, 'first_author': False, 'id': 825}], 'id': 284}]

>  <classifications>  (216) 
[{'classification': 'Alkaloid', 'id': 738}, {'classification': 'Amaryllidaceae', 'id': 741}, {'classification': 'Amaryllidaceae alkaloids (Classyfire)', 'id': 971}]

>  <molecular_mass>  (216) 
301.34

$$$$
SANC00319_minRM1.pdb
     RDKit          3D

 37 41  0  0  1  0  0  0  0  0999 V2000
   -1.4950   -0.4860   -1.6070 H   0  0  0  0  0  0  0  0  0  0  0  0
   -1.8280   -0.6800   -0.5540 C   0  0  1  0  0  0  0  0  0  0  0  0
   -3.3290   -0.4230   -0.4630 C   0  0  0  0  0  0  0  0  0  0  0  0
   -3.5610    1.0480   -0.8460 C   0  0  1  0  0  0  0  0  0  0  0  0
   -3.3070    1.2130   -1.9320 H   0  0  0  0  0  0  0  0  0  0  0  0
   -4.9220    1.2760   -0.6120 O   0  0  0  0  0  0  0  0  0  0  0  0
   -2.7050    1.9680   -0.0220 C   0  0  0  0  0  0  0  0  0  0  0  0
   -1.5650    1.5820    0.5420 C   0  0  0  0  0  0  0  0  0  0  0  0
   -1.0550    0.1890    0.4680 C   0  0  1  0  0  0  0  0  0  0  0  0
   -1.2790   -0.5580    1.8010 C   0  0  0  0  0  0  0  0  0  0  0  0
   -1.5380   -2.0160    1.3740 C   0  0  0  0  0  0  0  0  0  0  0  0
   -1.4760   -2.0780   -0.1260 N   0  0  0  0  0  0  0  0  0  0  0  0
   -0.0690   -2.3180   -0.5660 C   0  0  0  0  0  0  0  0  0  0  0  0
    0.8700   -1.1680   -0.3260 C   0  0  0  0  0  0  0  0  0  0  0  0
    2.2260   -1.3850   -0.6250 C   0  0  0  0  0  0  0  0  0  0  0  0
    3.0620   -0.3160   -0.4320 C   0  0  0  0  0  0  0  0  0  0  0  0
    4.4150   -0.2450   -0.6390 O   0  0  0  0  0  0  0  0  0  0  0  0
    4.8030    1.0830   -0.2940 C   0  0  0  0  0  0  0  0  0  0  0  0
    3.6460    1.8000    0.1310 O   0  0  0  0  0  0  0  0  0  0  0  0
    2.5950    0.9250    0.0350 C   0  0  0  0  0  0  0  0  0  0  0  0
    1.2750    1.1500    0.3310 C   0  0  0  0  0  0  0  0  0  0  0  0
    0.4050    0.0650    0.1350 C   0  0  0  0  0  0  0  0  0  0  0  0
   -3.8900   -1.1010   -1.1390 H   0  0  0  0  0  0  0  0  0  0  0  0
   -3.7450   -0.6310    0.5440 H   0  0  0  0  0  0  0  0  0  0  0  0
   -5.1260    2.1700   -0.9040 H   0  0  0  0  0  0  0  0  0  0  0  0
   -3.0620    2.9970    0.0840 H   0  0  0  0  0  0  0  0  0  0  0  0
   -0.9590    2.2850    1.1260 H   0  0  0  0  0  0  0  0  0  0  0  0
   -0.4150   -0.4620    2.4850 H   0  0  0  0  0  0  0  0  0  0  0  0
   -2.1290   -0.1360    2.3720 H   0  0  0  0  0  0  0  0  0  0  0  0
   -0.8410   -2.7270    1.8660 H   0  0  0  0  0  0  0  0  0  0  0  0
   -2.5480   -2.3690    1.6770 H   0  0  0  0  0  0  0  0  0  0  0  0
    0.3190   -3.2480   -0.0900 H   0  0  0  0  0  0  0  0  0  0  0  0
   -0.0950   -2.5540   -1.6570 H   0  0  0  0  0  0  0  0  0  0  0  0
    2.5920   -2.3470   -0.9890 H   0  0  0  0  0  0  0  0  0  0  0  0
    5.5440    1.0510    0.5340 H   0  0  0  0  0  0  0  0  0  0  0  0
    5.2440    1.5840   -1.1840 H   0  0  0  0  0  0  0  0  0  0  0  0
    0.9300    2.1200    0.6980 H   0  0  0  0  0  0  0  0  0  0  0  0
  2  1  1  6
  2  3  1  0
  2 12  1  0
  2  9  1  0
  3 23  1  0
  3  4  1  0
  3 24  1  0
  4  5  1  6
  4  6  1  0
  4  7  1  0
  6 25  1  0
  7 26  1  0
  7  8  2  0
  8 27  1  0
  9  8  1  1
  9 22  1  0
  9 10  1  0
 10 11  1  0
 10 29  1  0
 10 28  1  0
 11 31  1  0
 11 30  1  0
 12 11  1  0
 12 13  1  0
 13 33  1  0
 13 14  1  0
 13 32  1  0
 14 15  2  0
 14 22  1  0
 15 34  1  0
 15 16  1  0
 16 17  1  0
 16 20  2  0
 17 18  1  0
 18 36  1  0
 18 19  1  0
 18 35  1  0
 19 20  1  0
 20 21  1  0
 21 22  2  0
 21 37  1  0
M  END
>  <id>  (217) 
319

>  <scaffolds>  (217) 
['c1ccccc1', 'C1=CC23CCN(Cc4cc5c(cc42)OCO5)C3CC1', 'C1=CCCCC1', 'C1CCNC1', 'C1=CC23CCN(Cc4ccccc42)C3CC1', 'c1ccc2c(c1)OCO2']

>  <name>  (217) 
Epivittatine

>  <formula>  (217) 
C16H17NO3

>  <SMILES>  (217) 
[H][C@]12C[C@@H](O)C=C[C@@]15CCN2Cc4cc3OCOc3cc45

>  <ChEMBL_id>  (217) 


>  <ZINC_id>  (217) 


>  <PubChem_id>  (217) 


>  <DrugBank_id>  (217) 


>  <CAS_no>  (217) 
25375-48-8

>  <references>  (217) 
[{'journal': {'name': 'Plant Medica', 'id': 23}, 'title': 'Acetylcholinesterase Enzyme Inhibitory Effects of Amaryllidaceae Alkaloids', 'year': 2004, 'start_page': 260, 'volume': 70, 'issue': 3, 'doi': '10.1055/s-2004-818919', 'isbn': '', 'despositor': {'code': 'DLP', 'first_name': 'David', 'last_name': 'Penkler', 'id': 23}, 'refauthors_set': [{'author': {'first_name': 'Esameldin', 'initials': 'EE', 'last_name': 'Elgorashi', 'id': 594}, 'first_author': True, 'id': 823}, {'author': {'first_name': 'Gary ', 'initials': 'GI', 'last_name': 'Stafford', 'id': 595}, 'first_author': False, 'id': 824}, {'author': {'first_name': 'Johannes', 'initials': 'J', 'last_name': 'Van Staden', 'id': 489}, 'first_author': False, 'id': 825}], 'id': 284}]

>  <classifications>  (217) 
[{'classification': 'Alkaloid', 'id': 738}, {'classification': 'Amaryllidaceae', 'id': 741}, {'classification': 'Amaryllidaceae alkaloids (Classyfire)', 'id': 971}]

>  <molecular_mass>  (217) 
271.31

$$$$
SANC00320_minRM1.pdb
     RDKit          3D

 33 35  0  0  1  0  0  0  0  0999 V2000
   -2.0330    2.8240    0.6320 O   0  0  0  0  0  0  0  0  0  0  0  0
   -1.4990    1.7250    0.4610 C   0  0  0  0  0  0  0  0  0  0  0  0
   -0.0200    1.5050    0.5740 C   0  0  0  0  0  0  0  0  0  0  0  0
    0.4000    0.3730   -0.3670 C   0  0  1  0  0  0  0  0  0  0  0  0
    0.2130    0.6730   -1.4360 H   0  0  0  0  0  0  0  0  0  0  0  0
    1.8460    0.0280   -0.1400 C   0  0  0  0  0  0  0  0  0  0  0  0
    2.2230   -0.7910    0.9210 C   0  0  0  0  0  0  0  0  0  0  0  0
    3.5590   -1.1150    1.1130 C   0  0  0  0  0  0  0  0  0  0  0  0
    4.5190   -0.6000    0.2460 C   0  0  0  0  0  0  0  0  0  0  0  0
    5.8530   -0.8340    0.3950 O   0  0  0  0  0  0  0  0  0  0  0  0
    4.1440    0.2510   -0.8040 C   0  0  0  0  0  0  0  0  0  0  0  0
    5.0080    0.8380   -1.6640 O   0  0  0  0  0  0  0  0  0  0  0  0
    2.7970    0.5660   -0.9990 C   0  0  0  0  0  0  0  0  0  0  0  0
   -0.3250   -0.8220   -0.1120 O   0  0  0  0  0  0  0  0  0  0  0  0
   -1.6740   -0.6880   -0.0630 C   0  0  0  0  0  0  0  0  0  0  0  0
   -2.4000   -1.8600   -0.2240 C   0  0  0  0  0  0  0  0  0  0  0  0
   -3.7980   -1.7620   -0.1610 C   0  0  0  0  0  0  0  0  0  0  0  0
   -4.4520   -2.9350   -0.2920 O   0  0  0  0  0  0  0  0  0  0  0  0
   -4.4680   -0.5550    0.0420 C   0  0  0  0  0  0  0  0  0  0  0  0
   -3.6960    0.5990    0.2050 C   0  0  0  0  0  0  0  0  0  0  0  0
   -4.3610    1.7390    0.4070 O   0  0  0  0  0  0  0  0  0  0  0  0
   -2.2900    0.5470    0.1780 C   0  0  0  0  0  0  0  0  0  0  0  0
    0.5590    2.4260    0.3580 H   0  0  0  0  0  0  0  0  0  0  0  0
    0.2190    1.2600    1.6330 H   0  0  0  0  0  0  0  0  0  0  0  0
    1.4710   -1.1900    1.6100 H   0  0  0  0  0  0  0  0  0  0  0  0
    3.8550   -1.7770    1.9320 H   0  0  0  0  0  0  0  0  0  0  0  0
    5.9460   -1.7690    0.6020 H   0  0  0  0  0  0  0  0  0  0  0  0
    5.8780    0.4280   -1.5550 H   0  0  0  0  0  0  0  0  0  0  0  0
    2.5140    1.2290   -1.8240 H   0  0  0  0  0  0  0  0  0  0  0  0
   -1.9090   -2.8210   -0.3880 H   0  0  0  0  0  0  0  0  0  0  0  0
   -5.4030   -2.7590   -0.2860 H   0  0  0  0  0  0  0  0  0  0  0  0
   -5.5570   -0.4910    0.0910 H   0  0  0  0  0  0  0  0  0  0  0  0
   -3.7410    2.5070    0.5120 H   0  0  0  0  0  0  0  0  0  0  0  0
  1  2  2  0
  2 22  1  0
  2  3  1  0
  3  4  1  0
  3 23  1  0
  3 24  1  0
  4  5  1  6
  4  6  1  0
  4 14  1  0
  6 13  2  0
  6  7  1  0
  7  8  2  0
  7 25  1  0
  8  9  1  0
  8 26  1  0
  9 11  2  0
  9 10  1  0
 10 27  1  0
 11 12  1  0
 11 13  1  0
 12 28  1  0
 13 29  1  0
 14 15  1  0
 15 16  2  0
 15 22  1  0
 16 30  1  0
 16 17  1  0
 17 18  1  0
 17 19  2  0
 18 31  1  0
 19 32  1  0
 19 20  1  0
 20 22  2  0
 20 21  1  0
 21 33  1  0
M  END
>  <id>  (218) 
320

>  <scaffolds>  (218) 
['c1ccccc1', 'O=C1CC(c2ccccc2)Oc2ccccc21', 'c1ccc(C2CCc3ccccc3O2)cc1', 'O=C(CCc1ccccc1)c1ccccc1']

>  <name>  (218) 
Eriodictyol

>  <formula>  (218) 
C15H12O6

>  <SMILES>  (218) 
O=C2C[C@@H](c1ccc(O)c(O)c1)Oc3cc(O)cc(O)c23

>  <ChEMBL_id>  (218) 


>  <ZINC_id>  (218) 


>  <PubChem_id>  (218) 


>  <DrugBank_id>  (218) 


>  <CAS_no>  (218) 
552-58-9

>  <references>  (218) 
[{'journal': {'name': 'Journal of Natural Products', 'id': 5}, 'title': 'Bioactive Diterpenes and Other Constituents of Croton steenkampianus', 'year': 2008, 'start_page': 1919, 'volume': 71, 'issue': 11, 'doi': '10.1021/np800333r', 'isbn': '', 'despositor': {'code': 'NFA', 'first_name': 'Ngonidzashe', 'last_name': 'Faya', 'id': 21}, 'refauthors_set': [{'author': {'first_name': 'Adeboye', 'initials': 'AM', 'last_name': 'Adelekan', 'id': 461}, 'first_author': True, 'id': 631}, {'author': {'first_name': 'Erwin', 'initials': 'EA', 'last_name': 'Prozesky', 'id': 462}, 'first_author': None, 'id': 1224}, {'author': {'first_name': 'Ahmed', 'initials': 'AA', 'last_name': 'Hussein', 'id': 440}, 'first_author': None, 'id': 1225}, {'author': {'first_name': 'Luis', 'initials': 'D', 'last_name': 'Urena', 'id': 464}, 'first_author': None, 'id': 1226}, {'author': {'first_name': 'David', 'initials': 'DC', 'last_name': 'Liles', 'id': 466}, 'first_author': None, 'id': 1227}, {'author': {'first_name': 'Jacobus', 'initials': 'JM', 'last_name': 'Meyer', 'id': 716}, 'first_author': None, 'id': 1228}, {'author': {'first_name': 'Benjamin', 'initials': 'B', 'last_name': 'Rodriguez', 'id': 472}, 'first_author': None, 'id': 1229}], 'id': 237}]

>  <classifications>  (218) 
[{'classification': 'Flavonoids', 'id': 776}, {'classification': 'Flavonoids (Classyfire)', 'id': 941}]

>  <molecular_mass>  (218) 
288.25

$$$$
SANC00321_minRM1.pdb
     RDKit          3D

 43 47  0  0  1  0  0  0  0  0999 V2000
   -0.5120   -0.4920   -1.6720 H   0  0  0  0  0  0  0  0  0  0  0  0
   -0.7740   -1.0270   -0.7200 C   0  0  1  0  0  0  0  0  0  0  0  0
   -2.2930   -1.0780   -0.5990 C   0  0  0  0  0  0  0  0  0  0  0  0
   -2.7770    0.3800   -0.5870 C   0  0  1  0  0  0  0  0  0  0  0  0
   -2.6020    0.8680   -1.5870 H   0  0  0  0  0  0  0  0  0  0  0  0
   -4.1630    0.2860   -0.3050 O   0  0  0  0  0  0  0  0  0  0  0  0
   -4.9420    1.3770   -0.5030 C   0  0  0  0  0  0  0  0  0  0  0  0
   -6.3620    1.1270   -0.1080 C   0  0  0  0  0  0  0  0  0  0  0  0
   -4.4770    2.4090   -0.9540 O   0  0  0  0  0  0  0  0  0  0  0  0
   -2.0910    1.1780    0.4780 C   0  0  0  0  0  0  0  0  0  0  0  0
   -0.8900    0.8580    0.9540 C   0  0  0  0  0  0  0  0  0  0  0  0
   -0.1370   -0.3450    0.5140 C   0  0  2  0  0  0  0  0  0  0  0  0
    1.3070   -0.0950    0.1740 C   0  0  0  0  0  0  0  0  0  0  0  0
    1.9680    1.0420    0.6670 C   0  0  0  0  0  0  0  0  0  0  0  0
    3.2940    1.1590    0.3340 C   0  0  0  0  0  0  0  0  0  0  0  0
    4.1680    2.1570    0.6760 O   0  0  0  0  0  0  0  0  0  0  0  0
    5.4160    1.8190    0.0750 C   0  0  0  0  0  0  0  0  0  0  0  0
    5.2680    0.5800   -0.6180 O   0  0  0  0  0  0  0  0  0  0  0  0
    3.9620    0.2000   -0.4500 C   0  0  0  0  0  0  0  0  0  0  0  0
    3.3310   -0.9150   -0.9350 C   0  0  0  0  0  0  0  0  0  0  0  0
    1.9720   -1.0460   -0.6000 C   0  0  0  0  0  0  0  0  0  0  0  0
    1.2530   -2.2430   -1.1600 C   0  0  0  0  0  0  0  0  0  0  0  0
   -0.1590   -2.3990   -0.6990 N   0  0  0  0  0  0  0  0  0  0  0  0
   -0.1850   -2.7820    0.7480 C   0  0  0  0  0  0  0  0  0  0  0  0
   -0.1220   -1.4730    1.5890 C   0  0  2  0  0  0  0  0  0  0  0  0
    0.8100   -1.4260    2.2110 H   0  0  0  0  0  0  0  0  0  0  0  0
   -1.2530   -1.3220    2.3880 O   0  0  0  0  0  0  0  0  0  0  0  0
   -2.7400   -1.6410   -1.4450 H   0  0  0  0  0  0  0  0  0  0  0  0
   -2.6390   -1.6150    0.3080 H   0  0  0  0  0  0  0  0  0  0  0  0
   -6.5250    1.4400    0.9350 H   0  0  0  0  0  0  0  0  0  0  0  0
   -7.0520    1.7070   -0.7390 H   0  0  0  0  0  0  0  0  0  0  0  0
   -6.6530    0.0680   -0.1810 H   0  0  0  0  0  0  0  0  0  0  0  0
   -2.6210    2.0640    0.8420 H   0  0  0  0  0  0  0  0  0  0  0  0
   -0.4180    1.4610    1.7380 H   0  0  0  0  0  0  0  0  0  0  0  0
    1.4660    1.7950    1.2780 H   0  0  0  0  0  0  0  0  0  0  0  0
    5.7100    2.6140   -0.6450 H   0  0  0  0  0  0  0  0  0  0  0  0
    6.1910    1.7110    0.8650 H   0  0  0  0  0  0  0  0  0  0  0  0
    3.8520   -1.6560   -1.5440 H   0  0  0  0  0  0  0  0  0  0  0  0
    1.2310   -2.1750   -2.2750 H   0  0  0  0  0  0  0  0  0  0  0  0
    1.8230   -3.1780   -0.9500 H   0  0  0  0  0  0  0  0  0  0  0  0
   -1.1220   -3.3560    0.9220 H   0  0  0  0  0  0  0  0  0  0  0  0
    0.6260   -3.4900    1.0230 H   0  0  0  0  0  0  0  0  0  0  0  0
   -1.2140   -2.0050    3.0650 H   0  0  0  0  0  0  0  0  0  0  0  0
  2  1  1  6
  2 23  1  0
  2  3  1  0
  2 12  1  0
  3 28  1  0
  3  4  1  0
  3 29  1  0
  4  5  1  6
  4  6  1  0
  4 10  1  0
  6  7  1  0
  7  9  2  0
  7  8  1  0
  8 31  1  0
  8 32  1  0
  8 30  1  0
 10 33  1  0
 10 11  2  0
 11 34  1  0
 12 11  1  1
 12 13  1  0
 12 25  1  0
 13 21  2  0
 13 14  1  0
 14 15  2  0
 14 35  1  0
 15 19  1  0
 15 16  1  0
 16 17  1  0
 17 36  1  0
 17 18  1  0
 17 37  1  0
 18 19  1  0
 19 20  2  0
 20 38  1  0
 20 21  1  0
 21 22  1  0
 22 39  1  0
 22 40  1  0
 23 22  1  0
 23 24  1  0
 24 41  1  0
 24 42  1  0
 24 25  1  0
 25 26  1  1
 25 27  1  0
 27 43  1  0
M  END
>  <id>  (219) 
321

>  <scaffolds>  (219) 
['c1ccccc1', 'C1=CC23CCN(Cc4cc5c(cc42)OCO5)C3CC1', 'C1=CCCCC1', 'C1CCNC1', 'C1=CC23CCN(Cc4ccccc42)C3CC1', 'c1ccc2c(c1)OCO2']

>  <name>  (219) 
3-O-Acetylhamayne

>  <formula>  (219) 
C18H19NO5

>  <SMILES>  (219) 
[H][C@]14C[C@@H](OC(C)=O)C=C[C@]15c3cc2OCOc2cc3CN4C[C@@H]5O

>  <ChEMBL_id>  (219) 


>  <ZINC_id>  (219) 


>  <PubChem_id>  (219) 
 443671

>  <DrugBank_id>  (219) 


>  <CAS_no>  (219) 
93376-07-9

>  <references>  (219) 
[{'journal': {'name': 'Plant Medica', 'id': 23}, 'title': 'Acetylcholinesterase Enzyme Inhibitory Effects of Amaryllidaceae Alkaloids', 'year': 2004, 'start_page': 260, 'volume': 70, 'issue': 3, 'doi': '10.1055/s-2004-818919', 'isbn': '', 'despositor': {'code': 'DLP', 'first_name': 'David', 'last_name': 'Penkler', 'id': 23}, 'refauthors_set': [{'author': {'first_name': 'Esameldin', 'initials': 'EE', 'last_name': 'Elgorashi', 'id': 594}, 'first_author': True, 'id': 823}, {'author': {'first_name': 'Gary ', 'initials': 'GI', 'last_name': 'Stafford', 'id': 595}, 'first_author': False, 'id': 824}, {'author': {'first_name': 'Johannes', 'initials': 'J', 'last_name': 'Van Staden', 'id': 489}, 'first_author': False, 'id': 825}], 'id': 284}, {'journal': {'name': 'Journal of Natural Products', 'id': 5}, 'title': 'Alkaloid Production in Crinum moorei Cultures', 'year': 2003, 'start_page': 1524, 'volume': 66, 'issue': 11, 'doi': '10.1021/np030206o', 'isbn': '', 'despositor': {'code': 'rah', 'first_name': 'Rowan', 'last_name': 'Hatherley', 'id': 20}, 'refauthors_set': [{'author': {'first_name': '', 'initials': 'CW', 'last_name': 'Fennell', 'id': 714}, 'first_author': True, 'id': 1043}, {'author': {'first_name': 'Esameldin', 'initials': 'EE', 'last_name': 'Elgorashi', 'id': 594}, 'first_author': None, 'id': 1121}, {'author': {'first_name': 'Johannes', 'initials': 'J', 'last_name': 'Van Staden', 'id': 489}, 'first_author': None, 'id': 1122}], 'id': 345}]

>  <classifications>  (219) 
[{'classification': 'Alkaloid', 'id': 738}, {'classification': 'Amaryllidaceae', 'id': 741}, {'classification': 'Amaryllidaceae alkaloids (Classyfire)', 'id': 971}]

>  <molecular_mass>  (219) 
329.35

$$$$
SANC00322_minRM1.pdb
     RDKit          3D

 38 42  0  0  1  0  0  0  0  0999 V2000
   -1.2100   -0.4740   -1.7690 H   0  0  0  0  0  0  0  0  0  0  0  0
   -1.6410   -0.6750   -0.7510 C   0  0  1  0  0  0  0  0  0  0  0  0
   -3.1390   -0.3960   -0.8010 C   0  0  0  0  0  0  0  0  0  0  0  0
   -3.3050    1.0780   -1.2050 C   0  0  1  0  0  0  0  0  0  0  0  0
   -2.9360    1.2410   -2.2580 H   0  0  0  0  0  0  0  0  0  0  0  0
   -4.6800    1.3250   -1.1260 O   0  0  0  0  0  0  0  0  0  0  0  0
   -2.5240    1.9790   -0.2910 C   0  0  0  0  0  0  0  0  0  0  0  0
   -1.4500    1.5740    0.3810 C   0  0  0  0  0  0  0  0  0  0  0  0
   -0.9490    0.1760    0.3400 C   0  0  2  0  0  0  0  0  0  0  0  0
    0.5330    0.0450    0.1190 C   0  0  0  0  0  0  0  0  0  0  0  0
    1.3920    1.1240    0.3840 C   0  0  0  0  0  0  0  0  0  0  0  0
    2.7290    0.8920    0.1880 C   0  0  0  0  0  0  0  0  0  0  0  0
    3.7750    1.7580    0.3680 O   0  0  0  0  0  0  0  0  0  0  0  0
    4.9570    1.0350    0.0300 C   0  0  0  0  0  0  0  0  0  0  0  0
    4.5870   -0.2900   -0.3490 O   0  0  0  0  0  0  0  0  0  0  0  0
    3.2230   -0.3520   -0.2470 C   0  0  0  0  0  0  0  0  0  0  0  0
    2.3970   -1.4150   -0.5070 C   0  0  0  0  0  0  0  0  0  0  0  0
    1.0240   -1.1890   -0.3110 C   0  0  0  0  0  0  0  0  0  0  0  0
    0.0990   -2.3310   -0.6330 C   0  0  0  0  0  0  0  0  0  0  0  0
   -1.3400   -2.0830   -0.3190 N   0  0  0  0  0  0  0  0  0  0  0  0
   -1.5420   -2.0520    1.1640 C   0  0  0  0  0  0  0  0  0  0  0  0
   -1.2450   -0.6050    1.6560 C   0  0  2  0  0  0  0  0  0  0  0  0
   -0.3630   -0.5780    2.3500 H   0  0  0  0  0  0  0  0  0  0  0  0
   -2.3580   -0.0240    2.2590 O   0  0  0  0  0  0  0  0  0  0  0  0
   -3.6440   -1.0660   -1.5270 H   0  0  0  0  0  0  0  0  0  0  0  0
   -3.6520   -0.5920    0.1620 H   0  0  0  0  0  0  0  0  0  0  0  0
   -4.8300    2.2460   -1.3600 H   0  0  0  0  0  0  0  0  0  0  0  0
   -2.8770    3.0120   -0.2060 H   0  0  0  0  0  0  0  0  0  0  0  0
   -0.9080    2.2580    1.0440 H   0  0  0  0  0  0  0  0  0  0  0  0
    1.0260    2.0950    0.7270 H   0  0  0  0  0  0  0  0  0  0  0  0
    5.4680    1.5360   -0.8210 H   0  0  0  0  0  0  0  0  0  0  0  0
    5.6320    0.9940    0.9130 H   0  0  0  0  0  0  0  0  0  0  0  0
    2.7840   -2.3770   -0.8470 H   0  0  0  0  0  0  0  0  0  0  0  0
    0.1630   -2.5630   -1.7230 H   0  0  0  0  0  0  0  0  0  0  0  0
    0.4400   -3.2650   -0.1300 H   0  0  0  0  0  0  0  0  0  0  0  0
   -2.5930   -2.3620    1.3600 H   0  0  0  0  0  0  0  0  0  0  0  0
   -0.9290   -2.8060    1.7010 H   0  0  0  0  0  0  0  0  0  0  0  0
   -2.5280   -0.5120    3.0710 H   0  0  0  0  0  0  0  0  0  0  0  0
  2  1  1  6
  2  3  1  0
  2 20  1  0
  2  9  1  0
  3 25  1  0
  3  4  1  0
  3 26  1  0
  4  5  1  6
  4  6  1  0
  4  7  1  0
  6 27  1  0
  7 28  1  0
  7  8  2  0
  8 29  1  0
  9  8  1  1
  9 10  1  0
  9 22  1  0
 10 18  2  0
 10 11  1  0
 11 12  2  0
 11 30  1  0
 12 16  1  0
 12 13  1  0
 13 14  1  0
 14 31  1  0
 14 15  1  0
 14 32  1  0
 15 16  1  0
 16 17  2  0
 17 33  1  0
 17 18  1  0
 18 19  1  0
 19 34  1  0
 19 35  1  0
 20 19  1  0
 20 21  1  0
 21 36  1  0
 21 22  1  0
 21 37  1  0
 22 24  1  0
 22 23  1  1
 24 38  1  0
M  END
>  <id>  (220) 
322

>  <scaffolds>  (220) 
['c1ccccc1', 'C1=CC23CCN(Cc4cc5c(cc42)OCO5)C3CC1', 'C1=CCCCC1', 'C1CCNC1', 'C1=CC23CCN(Cc4ccccc42)C3CC1', 'c1ccc2c(c1)OCO2']

>  <name>  (220) 
Hamayne

>  <formula>  (220) 
C16H17NO4

>  <SMILES>  (220) 
[H][C@]14C[C@@H](O)C=C[C@]15c3cc2OCOc2cc3CN4C[C@@H]5O

>  <ChEMBL_id>  (220) 
CHEMBL511614

>  <ZINC_id>  (220) 


>  <PubChem_id>  (220) 
 443670

>  <DrugBank_id>  (220) 


>  <CAS_no>  (220) 
61948-11-6

>  <references>  (220) 
[{'journal': {'name': 'Plant Medica', 'id': 23}, 'title': 'Acetylcholinesterase Enzyme Inhibitory Effects of Amaryllidaceae Alkaloids', 'year': 2004, 'start_page': 260, 'volume': 70, 'issue': 3, 'doi': '10.1055/s-2004-818919', 'isbn': '', 'despositor': {'code': 'DLP', 'first_name': 'David', 'last_name': 'Penkler', 'id': 23}, 'refauthors_set': [{'author': {'first_name': 'Esameldin', 'initials': 'EE', 'last_name': 'Elgorashi', 'id': 594}, 'first_author': True, 'id': 823}, {'author': {'first_name': 'Gary ', 'initials': 'GI', 'last_name': 'Stafford', 'id': 595}, 'first_author': False, 'id': 824}, {'author': {'first_name': 'Johannes', 'initials': 'J', 'last_name': 'Van Staden', 'id': 489}, 'first_author': False, 'id': 825}], 'id': 284}]

>  <classifications>  (220) 
[{'classification': 'Alkaloid', 'id': 738}, {'classification': 'Amaryllidaceae', 'id': 741}, {'classification': 'Amaryllidaceae alkaloids (Classyfire)', 'id': 971}]

>  <molecular_mass>  (220) 
287.31

$$$$
SANC00323_minRM1.pdb
     RDKit          3D

 42 44  0  0  1  0  0  0  0  0999 V2000
    6.4860    1.4820    1.4370 C   0  0  0  0  0  0  0  0  0  0  0  0
    5.8080    1.5380    0.2080 O   0  0  0  0  0  0  0  0  0  0  0  0
    4.7620    0.6790    0.0310 C   0  0  0  0  0  0  0  0  0  0  0  0
    4.3920   -0.3330    0.9110 C   0  0  0  0  0  0  0  0  0  0  0  0
    3.3020   -1.1370    0.5890 C   0  0  0  0  0  0  0  0  0  0  0  0
    2.5910   -0.9320   -0.5870 C   0  0  0  0  0  0  0  0  0  0  0  0
    1.4370   -1.8150   -0.9240 C   0  0  0  0  0  0  0  0  0  0  0  0
    0.1720   -1.4800   -0.1130 C   0  0  2  0  0  0  0  0  0  0  0  0
    0.5110   -1.6090    1.2300 O   0  0  0  0  0  0  0  0  0  0  0  0
   -0.9530   -2.4770   -0.4890 C   0  0  0  0  0  0  0  0  0  0  0  0
   -2.1300   -2.2330    0.2460 O   0  0  0  0  0  0  0  0  0  0  0  0
   -2.6180   -0.9650    0.1490 C   0  0  0  0  0  0  0  0  0  0  0  0
   -3.9650   -0.8040    0.4120 C   0  0  0  0  0  0  0  0  0  0  0  0
   -4.4870    0.5040    0.3540 C   0  0  0  0  0  0  0  0  0  0  0  0
   -5.8130    0.5520    0.6330 O   0  0  0  0  0  0  0  0  0  0  0  0
   -6.4540    1.8040    0.5680 C   0  0  0  0  0  0  0  0  0  0  0  0
   -3.7060    1.6080    0.0340 C   0  0  0  0  0  0  0  0  0  0  0  0
   -2.3450    1.3970   -0.2280 C   0  0  0  0  0  0  0  0  0  0  0  0
   -1.6340    2.4860   -0.5380 O   0  0  0  0  0  0  0  0  0  0  0  0
   -1.7750    0.1140   -0.1570 C   0  0  0  0  0  0  0  0  0  0  0  0
   -0.3570   -0.0750   -0.3820 C   0  0  0  0  0  0  0  0  0  0  0  0
    0.3460    0.8620   -0.7390 O   0  0  0  0  0  0  0  0  0  0  0  0
    2.9850    0.0790   -1.4650 C   0  0  0  0  0  0  0  0  0  0  0  0
    4.0660    0.8890   -1.1670 C   0  0  0  0  0  0  0  0  0  0  0  0
    7.2180    2.3010    1.3660 H   0  0  0  0  0  0  0  0  0  0  0  0
    5.8340    1.6650    2.3080 H   0  0  0  0  0  0  0  0  0  0  0  0
    7.0310    0.5340    1.5880 H   0  0  0  0  0  0  0  0  0  0  0  0
    4.9240   -0.5220    1.8460 H   0  0  0  0  0  0  0  0  0  0  0  0
    3.0120   -1.9370    1.2780 H   0  0  0  0  0  0  0  0  0  0  0  0
    1.1920   -1.7600   -2.0060 H   0  0  0  0  0  0  0  0  0  0  0  0
    1.7150   -2.8770   -0.7490 H   0  0  0  0  0  0  0  0  0  0  0  0
   -0.2740   -1.4300    1.7610 H   0  0  0  0  0  0  0  0  0  0  0  0
   -1.1570   -2.4600   -1.5820 H   0  0  0  0  0  0  0  0  0  0  0  0
   -0.6970   -3.5210   -0.2090 H   0  0  0  0  0  0  0  0  0  0  0  0
   -4.6050   -1.6560    0.6550 H   0  0  0  0  0  0  0  0  0  0  0  0
   -6.0720    2.5250    1.3090 H   0  0  0  0  0  0  0  0  0  0  0  0
   -6.4180    2.2590   -0.4360 H   0  0  0  0  0  0  0  0  0  0  0  0
   -7.5010    1.5650    0.8120 H   0  0  0  0  0  0  0  0  0  0  0  0
   -4.0970    2.6250   -0.0240 H   0  0  0  0  0  0  0  0  0  0  0  0
   -0.6880    2.2550   -0.7110 H   0  0  0  0  0  0  0  0  0  0  0  0
    2.4320    0.2520   -2.3940 H   0  0  0  0  0  0  0  0  0  0  0  0
    4.3720    1.6870   -1.8500 H   0  0  0  0  0  0  0  0  0  0  0  0
  1  2  1  0
  1 25  1  0
  1 27  1  0
  1 26  1  0
  2  3  1  0
  3 24  2  0
  3  4  1  0
  4  5  2  0
  4 28  1  0
  5  6  1  0
  5 29  1  0
  6 23  2  0
  6  7  1  0
  7 30  1  0
  7 31  1  0
  7  8  1  0
  8 10  1  0
  8 21  1  0
  8  9  1  1
  9 32  1  0
 10 33  1  0
 10 34  1  0
 10 11  1  0
 11 12  1  0
 12 20  2  0
 12 13  1  0
 13 14  2  0
 13 35  1  0
 14 17  1  0
 14 15  1  0
 15 16  1  0
 16 37  1  0
 16 38  1  0
 16 36  1  0
 17 18  2  0
 17 39  1  0
 18 19  1  0
 18 20  1  0
 19 40  1  0
 20 21  1  0
 21 22  2  0
 23 41  1  0
 23 24  1  0
 24 42  1  0
M  END
>  <id>  (221) 
323

>  <scaffolds>  (221) 
['c1ccccc1', 'O=C1c2ccccc2OCC1Cc1ccccc1', 'O=C(CCc1ccccc1)c1ccccc1']

>  <name>  (221) 
7-O-Methyleucomol

>  <formula>  (221) 
C18H18O6

>  <SMILES>  (221) 
COc3ccc(C[C@]2(O)COc1cc(OC)cc(O)c1C2=O)cc3

>  <ChEMBL_id>  (221) 


>  <ZINC_id>  (221) 


>  <PubChem_id>  (221) 


>  <DrugBank_id>  (221) 


>  <CAS_no>  (221) 
17934-15-5

>  <references>  (221) 
[{'journal': {'name': 'Phytochemistry: Advances in Research (Book)', 'id': 13}, 'title': 'Chapter 3: The phytochemistry and ethnobotany of the southern African genus Eucomis (Hyacinthaceae: Hyacinthoideae)', 'year': 2006, 'start_page': 69, 'volume': None, 'issue': None, 'doi': '', 'isbn': '81-308-0034-9', 'despositor': {'code': 'rah', 'first_name': 'Rowan', 'last_name': 'Hatherley', 'id': 20}, 'refauthors_set': [{'author': {'first_name': 'Chantal', 'initials': 'C', 'last_name': 'Koorbanally', 'id': 523}, 'first_author': True, 'id': 851}, {'author': {'first_name': 'Neil', 'initials': 'NR', 'last_name': 'Crouch', 'id': 524}, 'first_author': False, 'id': 852}, {'author': {'first_name': 'Dulcie', 'initials': 'DA', 'last_name': 'Mulholland', 'id': 525}, 'first_author': False, 'id': 853}], 'id': 259}, {'journal': {'name': 'Helvetica Chimica Acta', 'id': 12}, 'title': 'Homoisoflavonones. IV. New constituents of the eucomin series of Eucomis bicolor', 'year': 1976, 'start_page': 2048, 'volume': 59, 'issue': 6, 'doi': '10.1002/hlca.19760590618', 'isbn': '', 'despositor': {'code': 'rah', 'first_name': 'Rowan', 'last_name': 'Hatherley', 'id': 20}, 'refauthors_set': [{'author': {'first_name': '', 'initials': 'W', 'last_name': 'Heller', 'id': 596}, 'first_author': True, 'id': 826}, {'author': {'first_name': '', 'initials': 'P', 'last_name': 'Andermatt', 'id': 597}, 'first_author': False, 'id': 827}, {'author': {'first_name': '', 'initials': 'WA', 'last_name': 'Schaad', 'id': 598}, 'first_author': False, 'id': 828}, {'author': {'first_name': 'Christoph', 'initials': 'C', 'last_name': 'Tamm', 'id': 543}, 'first_author': False, 'id': 829}], 'id': 285}, {'journal': {'name': 'Biochemical Systematics and Ecology', 'id': 24}, 'title': 'Coincident isolation of a novel homoisoflavonoid from Resnova humifusa and Eucomis montana (Hyacinthoideae: Hyacinthaceae)', 'year': 2006, 'start_page': 114, 'volume': 34, 'issue': None, 'doi': '10.1016/j.bse.2005.08.003', 'isbn': '', 'despositor': {'code': 'rah', 'first_name': 'Rowan', 'last_name': 'Hatherley', 'id': 20}, 'refauthors_set': [{'author': {'first_name': 'Chantal', 'initials': 'C', 'last_name': 'Koorbanally', 'id': 523}, 'first_author': True, 'id': 854}, {'author': {'first_name': 'Neil', 'initials': 'NR', 'last_name': 'Crouch', 'id': 524}, 'first_author': False, 'id': 855}, {'author': {'first_name': 'Avinash', 'initials': 'A', 'last_name': 'Harilal', 'id': 624}, 'first_author': False, 'id': 856}, {'author': {'first_name': 'Bavani', 'initials': 'B', 'last_name': 'Pillay', 'id': 625}, 'first_author': False, 'id': 857}, {'author': {'first_name': 'Dulcie', 'initials': 'DA', 'last_name': 'Mulholland', 'id': 525}, 'first_author': False, 'id': 858}], 'id': 286}]

>  <classifications>  (221) 
[{'classification': 'Flavonoids', 'id': 776}, {'classification': 'Homoisoflavonoid', 'id': 783}, {'classification': 'Homoisoflavonoids (Classyfire)', 'id': 964}]

>  <molecular_mass>  (221) 
330.33

$$$$
SANC00324_minRM1.pdb
     RDKit          3D

 42 47  0  0  1  0  0  0  0  0999 V2000
    1.6540   -0.9550   -1.2450 H   0  0  0  0  0  0  0  0  0  0  0  0
    1.9910   -0.8960   -0.1770 C   0  0  2  0  0  0  0  0  0  0  0  0
    3.5140   -0.8680   -0.1480 C   0  0  0  0  0  0  0  0  0  0  0  0
    4.0130    0.2970   -1.0140 C   0  0  1  0  0  0  0  0  0  0  0  0
    5.1260    0.4120   -0.8900 H   0  0  0  0  0  0  0  0  0  0  0  0
    3.6790    0.1280   -2.3630 O   0  0  0  0  0  0  0  0  0  0  0  0
    3.3430    1.6040   -0.6180 C   0  0  2  0  0  0  0  0  0  0  0  0
    3.5970    2.4590   -1.2750 H   0  0  0  0  0  0  0  0  0  0  0  0
    3.3340    1.8510    0.7760 O   0  0  0  0  0  0  0  0  0  0  0  0
    2.0670    1.6120    0.1800 C   0  0  2  0  0  0  0  0  0  0  0  0
    1.4080    2.5060    0.1370 H   0  0  0  0  0  0  0  0  0  0  0  0
    1.3730    0.3250    0.5510 C   0  0  2  0  0  0  0  0  0  0  0  0
    1.5030   -0.0400    2.0430 C   0  0  0  0  0  0  0  0  0  0  0  0
    1.5730   -1.5790    2.0460 C   0  0  0  0  0  0  0  0  0  0  0  0
    1.4610   -2.0520    0.6250 N   0  0  0  0  0  0  0  0  0  0  0  0
    0.0260   -2.2160    0.2520 C   0  0  0  0  0  0  0  0  0  0  0  0
   -0.7360   -0.9260    0.1250 C   0  0  0  0  0  0  0  0  0  0  0  0
   -0.1020    0.3120    0.2410 C   0  0  0  0  0  0  0  0  0  0  0  0
   -0.8130    1.5160    0.1190 C   0  0  0  0  0  0  0  0  0  0  0  0
   -2.1550    1.4100   -0.1420 C   0  0  0  0  0  0  0  0  0  0  0  0
   -3.0590    2.4250   -0.3110 O   0  0  0  0  0  0  0  0  0  0  0  0
   -4.3180    1.8060   -0.5630 C   0  0  0  0  0  0  0  0  0  0  0  0
   -4.1410    0.3900   -0.5350 O   0  0  0  0  0  0  0  0  0  0  0  0
   -2.8120    0.1760   -0.2730 C   0  0  0  0  0  0  0  0  0  0  0  0
   -2.1190   -1.0060   -0.1470 C   0  0  0  0  0  0  0  0  0  0  0  0
   -2.6930   -2.2410   -0.1770 O   0  0  0  0  0  0  0  0  0  0  0  0
   -3.5510   -2.4570   -1.2800 C   0  0  0  0  0  0  0  0  0  0  0  0
    3.9180   -0.7600    0.8800 H   0  0  0  0  0  0  0  0  0  0  0  0
    3.9260   -1.8360   -0.5040 H   0  0  0  0  0  0  0  0  0  0  0  0
    4.0630   -0.7040   -2.6540 H   0  0  0  0  0  0  0  0  0  0  0  0
    2.3930    0.4090    2.5240 H   0  0  0  0  0  0  0  0  0  0  0  0
    0.6550    0.3460    2.6410 H   0  0  0  0  0  0  0  0  0  0  0  0
    2.5420   -1.9530    2.4430 H   0  0  0  0  0  0  0  0  0  0  0  0
    0.8110   -2.0340    2.7140 H   0  0  0  0  0  0  0  0  0  0  0  0
   -0.0090   -2.7670   -0.7180 H   0  0  0  0  0  0  0  0  0  0  0  0
   -0.4740   -2.8990    0.9780 H   0  0  0  0  0  0  0  0  0  0  0  0
   -0.3310    2.4930    0.2230 H   0  0  0  0  0  0  0  0  0  0  0  0
   -5.0440    2.1050    0.2250 H   0  0  0  0  0  0  0  0  0  0  0  0
   -4.6890    2.1140   -1.5660 H   0  0  0  0  0  0  0  0  0  0  0  0
   -3.1010   -2.1840   -2.2520 H   0  0  0  0  0  0  0  0  0  0  0  0
   -3.7270   -3.5440   -1.2570 H   0  0  0  0  0  0  0  0  0  0  0  0
   -4.5220   -1.9440   -1.1780 H   0  0  0  0  0  0  0  0  0  0  0  0
  2  1  1  6
  2  3  1  0
  2 12  1  0
  2 15  1  0
  3  4  1  0
  3 29  1  0
  3 28  1  0
  4  6  1  0
  4  5  1  6
  4  7  1  0
  6 30  1  0
  7  8  1  6
  7 10  1  0
  7  9  1  0
  9 10  1  0
 10 11  1  6
 10 12  1  0
 12 18  1  0
 12 13  1  1
 13 14  1  0
 13 31  1  0
 13 32  1  0
 14 33  1  0
 14 34  1  0
 15 14  1  0
 15 16  1  0
 16 35  1  0
 16 17  1  0
 16 36  1  0
 17 25  2  0
 17 18  1  0
 18 19  2  0
 19 20  1  0
 19 37  1  0
 20 21  1  0
 20 24  2  0
 21 22  1  0
 22 39  1  0
 22 23  1  0
 22 38  1  0
 23 24  1  0
 24 25  1  0
 25 26  1  0
 26 27  1  0
 27 40  1  0
 27 41  1  0
 27 42  1  0
M  END
>  <id>  (222) 
324

>  <scaffolds>  (222) 
['c1ccccc1', 'c1c2c(cc3c1OCO3)C13CCN(C2)C1CCC1OC13', 'C1CCCCC1', 'c1ccc(C23CCCCC2NCC3)cc1', 'C1CCNC1', 'c1ccc2c(c1)OCO2', 'c1c2c(cc3c1OCO3)C13CCCCC1N(CC3)C2']

>  <name>  (222) 
Crinamidine

>  <formula>  (222) 
C17H19NO5

>  <SMILES>  (222) 
[H][C@@]23C[C@@H](O)[C@@H]1O[C@@H]1[C@]24CCN3Cc6c4cc5OCOc5c6OC

>  <ChEMBL_id>  (222) 


>  <ZINC_id>  (222) 


>  <PubChem_id>  (222) 
399204

>  <DrugBank_id>  (222) 


>  <CAS_no>  (222) 
6793-66-4

>  <references>  (222) 
[{'journal': {'name': 'Plant Medica', 'id': 23}, 'title': 'Acetylcholinesterase Enzyme Inhibitory Effects of Amaryllidaceae Alkaloids', 'year': 2004, 'start_page': 260, 'volume': 70, 'issue': 3, 'doi': '10.1055/s-2004-818919', 'isbn': '', 'despositor': {'code': 'DLP', 'first_name': 'David', 'last_name': 'Penkler', 'id': 23}, 'refauthors_set': [{'author': {'first_name': 'Esameldin', 'initials': 'EE', 'last_name': 'Elgorashi', 'id': 594}, 'first_author': True, 'id': 823}, {'author': {'first_name': 'Gary ', 'initials': 'GI', 'last_name': 'Stafford', 'id': 595}, 'first_author': False, 'id': 824}, {'author': {'first_name': 'Johannes', 'initials': 'J', 'last_name': 'Van Staden', 'id': 489}, 'first_author': False, 'id': 825}], 'id': 284}, {'journal': {'name': 'Journal of Natural Products', 'id': 5}, 'title': 'Alkaloid Production in Crinum moorei Cultures', 'year': 2003, 'start_page': 1524, 'volume': 66, 'issue': 11, 'doi': '10.1021/np030206o', 'isbn': '', 'despositor': {'code': 'rah', 'first_name': 'Rowan', 'last_name': 'Hatherley', 'id': 20}, 'refauthors_set': [{'author': {'first_name': '', 'initials': 'CW', 'last_name': 'Fennell', 'id': 714}, 'first_author': True, 'id': 1043}, {'author': {'first_name': 'Esameldin', 'initials': 'EE', 'last_name': 'Elgorashi', 'id': 594}, 'first_author': None, 'id': 1121}, {'author': {'first_name': 'Johannes', 'initials': 'J', 'last_name': 'Van Staden', 'id': 489}, 'first_author': None, 'id': 1122}], 'id': 345}]

>  <classifications>  (222) 
[{'classification': 'Alkaloid', 'id': 738}, {'classification': 'Amaryllidaceae', 'id': 741}, {'classification': 'Amaryllidaceae alkaloids (Classyfire)', 'id': 971}]

>  <molecular_mass>  (222) 
317.34

$$$$
SANC00325_minRM1.pdb
     RDKit          3D

 40 44  0  0  1  0  0  0  0  0999 V2000
   -3.0170    1.3590    0.0770 H   0  0  0  0  0  0  0  0  0  0  0  0
   -1.9850    1.0810   -0.2730 C   0  0  1  0  0  0  0  0  0  0  0  0
   -2.0860   -0.1750   -1.1220 C   0  0  0  0  0  0  0  0  0  0  0  0
   -2.8090   -1.2260   -0.2530 C   0  0  1  0  0  0  0  0  0  0  0  0
   -3.9160   -1.0100   -0.2560 H   0  0  0  0  0  0  0  0  0  0  0  0
   -2.5060   -2.4640   -0.8560 O   0  0  0  0  0  0  0  0  0  0  0  0
   -3.4590   -3.4670   -0.6410 C   0  0  0  0  0  0  0  0  0  0  0  0
   -2.3640   -1.2380    1.1850 C   0  0  0  0  0  0  0  0  0  0  0  0
   -1.6030   -0.2960    1.7380 C   0  0  0  0  0  0  0  0  0  0  0  0
   -1.0400    0.8100    0.9230 C   0  0  2  0  0  0  0  0  0  0  0  0
   -0.9780    2.2010    1.5720 C   0  0  0  0  0  0  0  0  0  0  0  0
   -1.1280    3.1540    0.3600 C   0  0  0  0  0  0  0  0  0  0  0  0
   -1.4080    2.3250   -0.8750 N   0  0  0  0  0  0  0  0  0  0  0  0
   -0.1320    1.9860   -1.5600 C   0  0  0  0  0  0  0  0  0  0  0  0
    0.7820    1.1060   -0.7570 C   0  0  0  0  0  0  0  0  0  0  0  0
    2.0770    0.8980   -1.2650 C   0  0  0  0  0  0  0  0  0  0  0  0
    2.8850    0.0770   -0.5240 C   0  0  0  0  0  0  0  0  0  0  0  0
    4.1810   -0.2940   -0.7730 O   0  0  0  0  0  0  0  0  0  0  0  0
    4.5630   -1.1560    0.2960 C   0  0  0  0  0  0  0  0  0  0  0  0
    3.4630   -1.2820    1.1950 O   0  0  0  0  0  0  0  0  0  0  0  0
    2.4490   -0.5240    0.6710 C   0  0  0  0  0  0  0  0  0  0  0  0
    1.1870   -0.3310    1.1740 C   0  0  0  0  0  0  0  0  0  0  0  0
    0.3440    0.5050    0.4220 C   0  0  0  0  0  0  0  0  0  0  0  0
   -2.6460    0.0090   -2.0620 H   0  0  0  0  0  0  0  0  0  0  0  0
   -1.1000   -0.5570   -1.4580 H   0  0  0  0  0  0  0  0  0  0  0  0
   -4.4440   -3.2320   -1.0810 H   0  0  0  0  0  0  0  0  0  0  0  0
   -3.0480   -4.3490   -1.1550 H   0  0  0  0  0  0  0  0  0  0  0  0
   -3.6120   -3.7230    0.4200 H   0  0  0  0  0  0  0  0  0  0  0  0
   -2.7350   -2.0740    1.7860 H   0  0  0  0  0  0  0  0  0  0  0  0
   -1.3590   -0.3010    2.8050 H   0  0  0  0  0  0  0  0  0  0  0  0
   -1.7860    2.3430    2.3150 H   0  0  0  0  0  0  0  0  0  0  0  0
   -0.0430    2.3720    2.1370 H   0  0  0  0  0  0  0  0  0  0  0  0
   -1.9890    3.8440    0.4860 H   0  0  0  0  0  0  0  0  0  0  0  0
   -0.2450    3.8170    0.2430 H   0  0  0  0  0  0  0  0  0  0  0  0
   -0.3820    1.4960   -2.5300 H   0  0  0  0  0  0  0  0  0  0  0  0
    0.3860    2.9290   -1.8550 H   0  0  0  0  0  0  0  0  0  0  0  0
    2.4170    1.3620   -2.1920 H   0  0  0  0  0  0  0  0  0  0  0  0
    4.8280   -2.1570   -0.1100 H   0  0  0  0  0  0  0  0  0  0  0  0
    5.4320   -0.7180    0.8330 H   0  0  0  0  0  0  0  0  0  0  0  0
    0.8730   -0.8110    2.1030 H   0  0  0  0  0  0  0  0  0  0  0  0
  2  1  1  1
  2  3  1  0
  2 13  1  0
  2 10  1  0
  3 24  1  0
  3 25  1  0
  3  4  1  0
  4  6  1  0
  4  5  1  1
  4  8  1  0
  6  7  1  0
  7 27  1  0
  7 26  1  0
  7 28  1  0
  8  9  2  0
  8 29  1  0
  9 30  1  0
 10  9  1  1
 10 23  1  0
 10 11  1  0
 11 12  1  0
 11 32  1  0
 11 31  1  0
 12 34  1  0
 12 33  1  0
 13 12  1  0
 13 14  1  0
 14 35  1  0
 14 36  1  0
 14 15  1  0
 15 16  2  0
 15 23  1  0
 16 37  1  0
 16 17  1  0
 17 18  1  0
 17 21  2  0
 18 19  1  0
 19 38  1  0
 19 39  1  0
 19 20  1  0
 20 21  1  0
 21 22  1  0
 22 23  2  0
 22 40  1  0
M  END
>  <id>  (223) 
325

>  <scaffolds>  (223) 
['c1ccccc1', 'C1=CC23CCN(Cc4cc5c(cc42)OCO5)C3CC1', 'C1=CCCCC1', 'C1CCNC1', 'C1=CC23CCN(Cc4ccccc42)C3CC1', 'c1ccc2c(c1)OCO2']

>  <name>  (223) 
Epibuphanisine

>  <formula>  (223) 
C17H19NO3

>  <SMILES>  (223) 
[H][C@]12C[C@@H](OC)C=C[C@]15CCN2Cc4cc3OCOc3cc45

>  <ChEMBL_id>  (223) 


>  <ZINC_id>  (223) 


>  <PubChem_id>  (223) 
 625225

>  <DrugBank_id>  (223) 


>  <CAS_no>  (223) 
6835-79-6

>  <references>  (223) 
[{'journal': {'name': 'Plant Medica', 'id': 23}, 'title': 'Acetylcholinesterase Enzyme Inhibitory Effects of Amaryllidaceae Alkaloids', 'year': 2004, 'start_page': 260, 'volume': 70, 'issue': 3, 'doi': '10.1055/s-2004-818919', 'isbn': '', 'despositor': {'code': 'DLP', 'first_name': 'David', 'last_name': 'Penkler', 'id': 23}, 'refauthors_set': [{'author': {'first_name': 'Esameldin', 'initials': 'EE', 'last_name': 'Elgorashi', 'id': 594}, 'first_author': True, 'id': 823}, {'author': {'first_name': 'Gary ', 'initials': 'GI', 'last_name': 'Stafford', 'id': 595}, 'first_author': False, 'id': 824}, {'author': {'first_name': 'Johannes', 'initials': 'J', 'last_name': 'Van Staden', 'id': 489}, 'first_author': False, 'id': 825}], 'id': 284}, {'journal': {'name': 'Journal of Natural Products', 'id': 5}, 'title': 'Alkaloid Production in Crinum moorei Cultures', 'year': 2003, 'start_page': 1524, 'volume': 66, 'issue': 11, 'doi': '10.1021/np030206o', 'isbn': '', 'despositor': {'code': 'rah', 'first_name': 'Rowan', 'last_name': 'Hatherley', 'id': 20}, 'refauthors_set': [{'author': {'first_name': '', 'initials': 'CW', 'last_name': 'Fennell', 'id': 714}, 'first_author': True, 'id': 1043}, {'author': {'first_name': 'Esameldin', 'initials': 'EE', 'last_name': 'Elgorashi', 'id': 594}, 'first_author': None, 'id': 1121}, {'author': {'first_name': 'Johannes', 'initials': 'J', 'last_name': 'Van Staden', 'id': 489}, 'first_author': None, 'id': 1122}], 'id': 345}]

>  <classifications>  (223) 
[{'classification': 'Alkaloid', 'id': 738}, {'classification': 'Amaryllidaceae', 'id': 741}, {'classification': 'Amaryllidaceae alkaloids (Classyfire)', 'id': 971}]

>  <molecular_mass>  (223) 
285.34

$$$$
SANC00326_minRM1.pdb
     RDKit          3D

 51 55  0  0  1  0  0  0  0  0999 V2000
   -0.0210   -1.2900    2.3680 H   0  0  0  0  0  0  0  0  0  0  0  0
    0.3830   -1.7120    1.4050 C   0  0  1  0  0  0  0  0  0  0  0  0
    1.6960   -2.4520    1.6870 C   0  0  0  0  0  0  0  0  0  0  0  0
    2.7550   -1.3860    1.6040 N   0  0  0  0  0  0  0  0  0  0  0  0
    3.4550   -1.2050    2.8970 C   0  0  0  0  0  0  0  0  0  0  0  0
    2.0970   -0.1010    1.1470 C   0  0  1  0  0  0  0  0  0  0  0  0
    1.8010    0.5620    2.0070 H   0  0  0  0  0  0  0  0  0  0  0  0
    3.1050    0.6800    0.2910 C   0  0  0  0  0  0  0  0  0  0  0  0
    2.7460    0.7370   -1.1590 C   0  0  0  0  0  0  0  0  0  0  0  0
    3.4920    1.7130   -1.7640 O   0  0  0  0  0  0  0  0  0  0  0  0
    3.5080    1.7270   -3.1720 C   0  0  0  0  0  0  0  0  0  0  0  0
    1.8340   -0.0350   -1.7520 C   0  0  0  0  0  0  0  0  0  0  0  0
    1.1190   -1.0760   -0.9710 C   0  0  0  0  0  0  0  0  0  0  0  0
    0.8150   -0.5770    0.4440 C   0  0  1  0  0  0  0  0  0  0  0  0
   -0.3590    0.3370    0.3810 C   0  0  0  0  0  0  0  0  0  0  0  0
   -0.2130    1.7280    0.3090 C   0  0  0  0  0  0  0  0  0  0  0  0
   -1.3850    2.4430    0.2590 C   0  0  0  0  0  0  0  0  0  0  0  0
   -1.5430    3.8020    0.1930 O   0  0  0  0  0  0  0  0  0  0  0  0
   -2.9480    4.0410    0.1420 C   0  0  0  0  0  0  0  0  0  0  0  0
   -3.6260    2.7860    0.2040 O   0  0  0  0  0  0  0  0  0  0  0  0
   -2.6490    1.8260    0.2650 C   0  0  0  0  0  0  0  0  0  0  0  0
   -2.8020    0.4630    0.3260 C   0  0  0  0  0  0  0  0  0  0  0  0
   -1.6130   -0.2780    0.3950 C   0  0  0  0  0  0  0  0  0  0  0  0
   -1.7600   -1.7850    0.4890 C   0  0  1  0  0  0  0  0  0  0  0  0
   -2.5350   -2.0600    1.2640 H   0  0  0  0  0  0  0  0  0  0  0  0
   -2.0990   -2.1990   -0.8040 O   0  0  0  0  0  0  0  0  0  0  0  0
   -2.4790   -3.5550   -0.9260 C   0  0  0  0  0  0  0  0  0  0  0  0
   -3.1160   -3.6580   -2.3080 C   0  0  0  0  0  0  0  0  0  0  0  0
   -0.5900   -2.5140    0.8090 O   0  0  0  0  0  0  0  0  0  0  0  0
    1.6620   -3.0010    2.6560 H   0  0  0  0  0  0  0  0  0  0  0  0
    1.9300   -3.2340    0.9310 H   0  0  0  0  0  0  0  0  0  0  0  0
    4.0240   -2.1220    3.1310 H   0  0  0  0  0  0  0  0  0  0  0  0
    4.1920   -0.3830    2.8250 H   0  0  0  0  0  0  0  0  0  0  0  0
    2.8150   -0.9890    3.7760 H   0  0  0  0  0  0  0  0  0  0  0  0
    3.2060    1.7150    0.6970 H   0  0  0  0  0  0  0  0  0  0  0  0
    4.1330    0.2610    0.3830 H   0  0  0  0  0  0  0  0  0  0  0  0
    3.8030    0.7620   -3.6230 H   0  0  0  0  0  0  0  0  0  0  0  0
    2.5450    2.0480   -3.6100 H   0  0  0  0  0  0  0  0  0  0  0  0
    4.2720    2.4800   -3.4220 H   0  0  0  0  0  0  0  0  0  0  0  0
    1.5890    0.0200   -2.8120 H   0  0  0  0  0  0  0  0  0  0  0  0
    0.1850   -1.3770   -1.4910 H   0  0  0  0  0  0  0  0  0  0  0  0
    1.7330   -2.0020   -0.9580 H   0  0  0  0  0  0  0  0  0  0  0  0
    0.7640    2.2110    0.2760 H   0  0  0  0  0  0  0  0  0  0  0  0
   -3.2490    4.6700    1.0110 H   0  0  0  0  0  0  0  0  0  0  0  0
   -3.2030    4.5540   -0.8130 H   0  0  0  0  0  0  0  0  0  0  0  0
   -3.7860   -0.0100    0.3120 H   0  0  0  0  0  0  0  0  0  0  0  0
   -1.5950   -4.2250   -0.8370 H   0  0  0  0  0  0  0  0  0  0  0  0
   -3.1910   -3.8700   -0.1280 H   0  0  0  0  0  0  0  0  0  0  0  0
   -4.0170   -3.0340   -2.3990 H   0  0  0  0  0  0  0  0  0  0  0  0
   -2.4310   -3.3410   -3.1060 H   0  0  0  0  0  0  0  0  0  0  0  0
   -3.4110   -4.6930   -2.5230 H   0  0  0  0  0  0  0  0  0  0  0  0
  2  1  1  1
  2 14  1  0
  2 29  1  0
  2  3  1  0
  3 31  1  0
  3  4  1  0
  3 30  1  0
  4  6  1  0
  4  5  1  0
  5 33  1  0
  5 32  1  0
  5 34  1  0
  6  8  1  0
  6 14  1  0
  6  7  1  1
  8  9  1  0
  8 36  1  0
  8 35  1  0
  9 10  1  0
  9 12  2  0
 10 11  1  0
 11 37  1  0
 11 38  1  0
 11 39  1  0
 12 40  1  0
 12 13  1  0
 13 41  1  0
 13 42  1  0
 14 13  1  6
 14 15  1  0
 15 16  2  0
 15 23  1  0
 16 17  1  0
 16 43  1  0
 17 18  1  0
 17 21  2  0
 18 19  1  0
 19 45  1  0
 19 20  1  0
 19 44  1  0
 20 21  1  0
 21 22  1  0
 22 46  1  0
 22 23  2  0
 23 24  1  0
 24 26  1  0
 24 29  1  0
 24 25  1  1
 26 27  1  0
 27 28  1  0
 27 47  1  0
 27 48  1  0
 28 50  1  0
 28 51  1  0
 28 49  1  0
M  END
>  <id>  (224) 
326

>  <scaffolds>  (224) 
['c1ccccc1', 'C1=CCCCC1', 'C1=CCC23c4cc5c(cc4COC2CNC3C1)OCO5', 'C1CCNC1', 'c1ccc2c(c1)OCO2']

>  <name>  (224) 
Ethoxyprecriwelline

>  <formula>  (224) 
C20H25NO5

>  <SMILES>  (224) 
[H][C@]15CN(C)[C@@]2([H])CC(OC)=CC[C@@]12c4cc3OCOc3cc4[C@@H](OCC)O5

>  <ChEMBL_id>  (224) 


>  <ZINC_id>  (224) 


>  <PubChem_id>  (224) 


>  <DrugBank_id>  (224) 


>  <CAS_no>  (224) 
250282-46-3

>  <references>  (224) 
[{'journal': {'name': 'Plant Medica', 'id': 23}, 'title': 'Acetylcholinesterase Enzyme Inhibitory Effects of Amaryllidaceae Alkaloids', 'year': 2004, 'start_page': 260, 'volume': 70, 'issue': 3, 'doi': '10.1055/s-2004-818919', 'isbn': '', 'despositor': {'code': 'DLP', 'first_name': 'David', 'last_name': 'Penkler', 'id': 23}, 'refauthors_set': [{'author': {'first_name': 'Esameldin', 'initials': 'EE', 'last_name': 'Elgorashi', 'id': 594}, 'first_author': True, 'id': 823}, {'author': {'first_name': 'Gary ', 'initials': 'GI', 'last_name': 'Stafford', 'id': 595}, 'first_author': False, 'id': 824}, {'author': {'first_name': 'Johannes', 'initials': 'J', 'last_name': 'Van Staden', 'id': 489}, 'first_author': False, 'id': 825}], 'id': 284}]

>  <classifications>  (224) 
[{'classification': 'Alkaloid', 'id': 738}, {'classification': 'Amaryllidaceae', 'id': 741}, {'classification': 'Benzopyrans (Classyfire)', 'id': 966}]

>  <molecular_mass>  (224) 
359.42

$$$$
SANC00327_minRM1.pdb
     RDKit          3D

 48 52  0  0  1  0  0  0  0  0999 V2000
    1.5070   -1.1360    2.2760 H   0  0  0  0  0  0  0  0  0  0  0  0
    1.9550   -0.4670    1.4880 C   0  0  2  0  0  0  0  0  0  0  0  0
    2.8260   -1.3220    0.5700 C   0  0  0  0  0  0  0  0  0  0  0  0
    3.4630   -0.4390   -0.5090 C   0  0  1  0  0  0  0  0  0  0  0  0
    4.2450    0.2300   -0.0500 H   0  0  0  0  0  0  0  0  0  0  0  0
    4.0120   -1.3460   -1.4430 O   0  0  0  0  0  0  0  0  0  0  0  0
    5.0880   -0.8340   -2.1770 C   0  0  0  0  0  0  0  0  0  0  0  0
    2.4350    0.4190   -1.1760 C   0  0  0  0  0  0  0  0  0  0  0  0
    1.2820    0.7540   -0.6070 C   0  0  0  0  0  0  0  0  0  0  0  0
    0.8280    0.2550    0.7270 C   0  0  1  0  0  0  0  0  0  0  0  0
   -0.4680   -0.4470    0.5170 C   0  0  0  0  0  0  0  0  0  0  0  0
   -0.5250   -1.8320    0.3180 C   0  0  0  0  0  0  0  0  0  0  0  0
   -1.7820   -2.3430    0.1090 C   0  0  0  0  0  0  0  0  0  0  0  0
   -2.1410   -3.6460   -0.1060 O   0  0  0  0  0  0  0  0  0  0  0  0
   -3.5570   -3.6490   -0.2840 C   0  0  0  0  0  0  0  0  0  0  0  0
   -4.0340   -2.3120   -0.1500 O   0  0  0  0  0  0  0  0  0  0  0  0
   -2.9320   -1.5310    0.0830 C   0  0  0  0  0  0  0  0  0  0  0  0
   -2.8820   -0.1710    0.2660 C   0  0  0  0  0  0  0  0  0  0  0  0
   -1.6040    0.3610    0.4950 C   0  0  0  0  0  0  0  0  0  0  0  0
   -1.5200    1.8610    0.6970 C   0  0  2  0  0  0  0  0  0  0  0  0
   -2.2940    2.2050    1.4430 H   0  0  0  0  0  0  0  0  0  0  0  0
   -1.6980    2.4030   -0.5810 O   0  0  0  0  0  0  0  0  0  0  0  0
   -1.8660    3.8050   -0.6250 C   0  0  0  0  0  0  0  0  0  0  0  0
   -2.3090    4.1000   -2.0540 C   0  0  0  0  0  0  0  0  0  0  0  0
   -0.2790    2.3810    1.1360 O   0  0  0  0  0  0  0  0  0  0  0  0
    0.5320    1.4090    1.7180 C   0  0  2  0  0  0  0  0  0  0  0  0
    0.0320    1.0240    2.6510 H   0  0  0  0  0  0  0  0  0  0  0  0
    1.9510    1.8990    2.0460 C   0  0  0  0  0  0  0  0  0  0  0  0
    2.7690    0.6510    2.0670 N   0  0  0  0  0  0  0  0  0  0  0  0
    3.6100   -1.8560    1.1450 H   0  0  0  0  0  0  0  0  0  0  0  0
    2.1980   -2.1230    0.1170 H   0  0  0  0  0  0  0  0  0  0  0  0
    5.3490   -1.6380   -2.8830 H   0  0  0  0  0  0  0  0  0  0  0  0
    4.8480    0.0730   -2.7550 H   0  0  0  0  0  0  0  0  0  0  0  0
    5.9720   -0.6150   -1.5530 H   0  0  0  0  0  0  0  0  0  0  0  0
    2.6860    0.7890   -2.1760 H   0  0  0  0  0  0  0  0  0  0  0  0
    0.5790    1.4180   -1.1240 H   0  0  0  0  0  0  0  0  0  0  0  0
    0.3770   -2.4530    0.3080 H   0  0  0  0  0  0  0  0  0  0  0  0
   -3.8030   -4.0320   -1.2990 H   0  0  0  0  0  0  0  0  0  0  0  0
   -4.0260   -4.2900    0.4930 H   0  0  0  0  0  0  0  0  0  0  0  0
   -3.7760    0.4540    0.2250 H   0  0  0  0  0  0  0  0  0  0  0  0
   -2.6210    4.1620    0.1140 H   0  0  0  0  0  0  0  0  0  0  0  0
   -0.9170    4.3330   -0.3780 H   0  0  0  0  0  0  0  0  0  0  0  0
   -3.2570    3.6040   -2.3070 H   0  0  0  0  0  0  0  0  0  0  0  0
   -2.4560    5.1790   -2.2030 H   0  0  0  0  0  0  0  0  0  0  0  0
   -1.5690    3.7650   -2.7950 H   0  0  0  0  0  0  0  0  0  0  0  0
    2.3510    2.5750    1.2580 H   0  0  0  0  0  0  0  0  0  0  0  0
    1.9980    2.4840    2.9890 H   0  0  0  0  0  0  0  0  0  0  0  0
    3.0810    0.4190    3.0170 H   0  0  0  0  0  0  0  0  0  0  0  0
  2  1  1  1
  2  3  1  0
  2 10  1  0
  2 29  1  0
  3  4  1  0
  3 31  1  0
  3 30  1  0
  4  6  1  0
  4  8  1  0
  4  5  1  1
  6  7  1  0
  7 32  1  0
  7 33  1  0
  7 34  1  0
  8 35  1  0
  8  9  2  0
  9 36  1  0
 10  9  1  6
 10 11  1  0
 10 26  1  0
 11 12  2  0
 11 19  1  0
 12 13  1  0
 12 37  1  0
 13 14  1  0
 13 17  2  0
 14 15  1  0
 15 38  1  0
 15 16  1  0
 15 39  1  0
 16 17  1  0
 17 18  1  0
 18 40  1  0
 18 19  2  0
 19 20  1  0
 20 22  1  0
 20 25  1  0
 20 21  1  1
 22 23  1  0
 23 24  1  0
 23 42  1  0
 23 41  1  0
 24 45  1  0
 24 43  1  0
 24 44  1  0
 25 26  1  0
 26 28  1  0
 26 27  1  1
 28 46  1  0
 28 29  1  0
 28 47  1  0
 29 48  1  0
M  END
>  <id>  (225) 
327

>  <scaffolds>  (225) 
['c1ccccc1', 'C1=CCCCC1', 'C1=CC23c4cc5c(cc4COC2CNC3CC1)OCO5', 'C1CCNC1', 'c1ccc2c(c1)OCO2']

>  <name>  (225) 
N-Demethyl-8[alpha]-ethoxypretazettine

>  <formula>  (225) 
C19H23NO5

>  <SMILES>  (225) 
[H][C@@]15C[C@@H](OC)C=C[C@@]14c3cc2OCOc2cc3[C@H](OCC)O[C@]4([H])CN5

>  <ChEMBL_id>  (225) 


>  <ZINC_id>  (225) 


>  <PubChem_id>  (225) 


>  <DrugBank_id>  (225) 


>  <CAS_no>  (225) 
727416-49-1

>  <references>  (225) 
[{'journal': {'name': 'Plant Medica', 'id': 23}, 'title': 'Acetylcholinesterase Enzyme Inhibitory Effects of Amaryllidaceae Alkaloids', 'year': 2004, 'start_page': 260, 'volume': 70, 'issue': 3, 'doi': '10.1055/s-2004-818919', 'isbn': '', 'despositor': {'code': 'DLP', 'first_name': 'David', 'last_name': 'Penkler', 'id': 23}, 'refauthors_set': [{'author': {'first_name': 'Esameldin', 'initials': 'EE', 'last_name': 'Elgorashi', 'id': 594}, 'first_author': True, 'id': 823}, {'author': {'first_name': 'Gary ', 'initials': 'GI', 'last_name': 'Stafford', 'id': 595}, 'first_author': False, 'id': 824}, {'author': {'first_name': 'Johannes', 'initials': 'J', 'last_name': 'Van Staden', 'id': 489}, 'first_author': False, 'id': 825}], 'id': 284}]

>  <classifications>  (225) 
[{'classification': 'Alkaloid', 'id': 738}, {'classification': 'Amaryllidaceae', 'id': 741}, {'classification': 'Benzopyrans (Classyfire)', 'id': 966}]

>  <molecular_mass>  (225) 
345.39

$$$$
SANC00328_minRM1.pdb
     RDKit          3D

 48 52  0  0  1  0  0  0  0  0999 V2000
   -0.8240    0.3040    2.6210 H   0  0  0  0  0  0  0  0  0  0  0  0
   -1.4000   -0.1780    1.7810 C   0  0  2  0  0  0  0  0  0  0  0  0
   -2.4040    0.8380    1.2420 C   0  0  0  0  0  0  0  0  0  0  0  0
   -3.2140    0.2120    0.1020 C   0  0  1  0  0  0  0  0  0  0  0  0
   -3.9130   -0.5710    0.5100 H   0  0  0  0  0  0  0  0  0  0  0  0
   -3.9000    1.2930   -0.4930 O   0  0  0  0  0  0  0  0  0  0  0  0
   -5.1070    0.9360   -1.1220 C   0  0  0  0  0  0  0  0  0  0  0  0
   -5.5650    2.1940   -1.8530 C   0  0  0  0  0  0  0  0  0  0  0  0
   -2.3140   -0.4320   -0.9050 C   0  0  0  0  0  0  0  0  0  0  0  0
   -1.0860   -0.8550   -0.6230 C   0  0  0  0  0  0  0  0  0  0  0  0
   -0.4170   -0.6670    0.7010 C   0  0  1  0  0  0  0  0  0  0  0  0
    0.8340    0.1020    0.4570 C   0  0  0  0  0  0  0  0  0  0  0  0
    0.8690    1.4970    0.5830 C   0  0  0  0  0  0  0  0  0  0  0  0
    2.0790    2.0800    0.3000 C   0  0  0  0  0  0  0  0  0  0  0  0
    2.4100    3.4080    0.3430 O   0  0  0  0  0  0  0  0  0  0  0  0
    3.7780    3.4940   -0.0540 C   0  0  0  0  0  0  0  0  0  0  0  0
    4.2590    2.1780   -0.3190 O   0  0  0  0  0  0  0  0  0  0  0  0
    3.2020    1.3320   -0.1010 C   0  0  0  0  0  0  0  0  0  0  0  0
    3.1710   -0.0340   -0.2370 C   0  0  0  0  0  0  0  0  0  0  0  0
    1.9430   -0.6430    0.0630 C   0  0  0  0  0  0  0  0  0  0  0  0
    1.8810   -2.1510   -0.0810 C   0  0  2  0  0  0  0  0  0  0  0  0
    2.7640   -2.6360    0.4280 H   0  0  0  0  0  0  0  0  0  0  0  0
    1.8430   -2.3770   -1.4640 O   0  0  0  0  0  0  0  0  0  0  0  0
    2.0290   -3.7140   -1.8520 C   0  0  0  0  0  0  0  0  0  0  0  0
    0.7240   -2.7960    0.4150 O   0  0  0  0  0  0  0  0  0  0  0  0
    0.0270   -2.0110    1.3320 C   0  0  2  0  0  0  0  0  0  0  0  0
    0.6750   -1.8400    2.2360 H   0  0  0  0  0  0  0  0  0  0  0  0
   -1.3230   -2.6080    1.7590 C   0  0  0  0  0  0  0  0  0  0  0  0
   -2.1160   -1.4240    2.2040 N   0  0  0  0  0  0  0  0  0  0  0  0
   -3.0790    1.1980    2.0440 H   0  0  0  0  0  0  0  0  0  0  0  0
   -1.8540    1.7440    0.8960 H   0  0  0  0  0  0  0  0  0  0  0  0
   -4.9890    0.0840   -1.8300 H   0  0  0  0  0  0  0  0  0  0  0  0
   -5.8650    0.6060   -0.3740 H   0  0  0  0  0  0  0  0  0  0  0  0
   -5.7150    3.0400   -1.1670 H   0  0  0  0  0  0  0  0  0  0  0  0
   -4.8340    2.5240   -2.6050 H   0  0  0  0  0  0  0  0  0  0  0  0
   -6.5170    2.0240   -2.3740 H   0  0  0  0  0  0  0  0  0  0  0  0
   -2.7250   -0.5630   -1.9120 H   0  0  0  0  0  0  0  0  0  0  0  0
   -0.4810   -1.3560   -1.3870 H   0  0  0  0  0  0  0  0  0  0  0  0
   -0.0160    2.0760    0.8650 H   0  0  0  0  0  0  0  0  0  0  0  0
    3.8600    4.1130   -0.9740 H   0  0  0  0  0  0  0  0  0  0  0  0
    4.3730    3.9480    0.7690 H   0  0  0  0  0  0  0  0  0  0  0  0
    4.0410   -0.6050   -0.5670 H   0  0  0  0  0  0  0  0  0  0  0  0
    2.9890   -4.1370   -1.5100 H   0  0  0  0  0  0  0  0  0  0  0  0
    1.2170   -4.3840   -1.5250 H   0  0  0  0  0  0  0  0  0  0  0  0
    2.0310   -3.6740   -2.9520 H   0  0  0  0  0  0  0  0  0  0  0  0
   -1.8530   -3.0920    0.9080 H   0  0  0  0  0  0  0  0  0  0  0  0
   -1.2210   -3.3980    2.5320 H   0  0  0  0  0  0  0  0  0  0  0  0
   -2.2650   -1.4310    3.2200 H   0  0  0  0  0  0  0  0  0  0  0  0
  2  1  1  1
  2 11  1  0
  2  3  1  0
  2 29  1  0
  3  4  1  0
  3 31  1  0
  3 30  1  0
  4  9  1  0
  4  6  1  0
  4  5  1  1
  6  7  1  0
  7  8  1  0
  7 32  1  0
  7 33  1  0
  8 35  1  0
  8 36  1  0
  8 34  1  0
  9 37  1  0
  9 10  2  0
 10 38  1  0
 11 10  1  6
 11 12  1  0
 11 26  1  0
 12 20  2  0
 12 13  1  0
 13 14  2  0
 13 39  1  0
 14 18  1  0
 14 15  1  0
 15 16  1  0
 16 40  1  0
 16 17  1  0
 16 41  1  0
 17 18  1  0
 18 19  2  0
 19 42  1  0
 19 20  1  0
 20 21  1  0
 21 23  1  0
 21 25  1  0
 21 22  1  1
 23 24  1  0
 24 45  1  0
 24 44  1  0
 24 43  1  0
 25 26  1  0
 26 28  1  0
 26 27  1  1
 28 46  1  0
 28 29  1  0
 28 47  1  0
 29 48  1  0
M  END
>  <id>  (226) 
328

>  <scaffolds>  (226) 
['c1ccccc1', 'C1=CCCCC1', 'C1=CC23c4cc5c(cc4COC2CNC3CC1)OCO5', 'C1CCNC1', 'c1ccc2c(c1)OCO2']

>  <name>  (226) 
N-Demethyl-8[beta]-ethoxypretazettine

>  <formula>  (226) 
C19H23NO5

>  <SMILES>  (226) 
[H][C@@]15C[C@@H](OCC)C=C[C@@]14c3cc2OCOc2cc3[C@H](OC)O[C@]4([H])CN5

>  <ChEMBL_id>  (226) 


>  <ZINC_id>  (226) 


>  <PubChem_id>  (226) 


>  <DrugBank_id>  (226) 


>  <CAS_no>  (226) 
727416-50-4

>  <references>  (226) 
[{'journal': {'name': 'Plant Medica', 'id': 23}, 'title': 'Acetylcholinesterase Enzyme Inhibitory Effects of Amaryllidaceae Alkaloids', 'year': 2004, 'start_page': 260, 'volume': 70, 'issue': 3, 'doi': '10.1055/s-2004-818919', 'isbn': '', 'despositor': {'code': 'DLP', 'first_name': 'David', 'last_name': 'Penkler', 'id': 23}, 'refauthors_set': [{'author': {'first_name': 'Esameldin', 'initials': 'EE', 'last_name': 'Elgorashi', 'id': 594}, 'first_author': True, 'id': 823}, {'author': {'first_name': 'Gary ', 'initials': 'GI', 'last_name': 'Stafford', 'id': 595}, 'first_author': False, 'id': 824}, {'author': {'first_name': 'Johannes', 'initials': 'J', 'last_name': 'Van Staden', 'id': 489}, 'first_author': False, 'id': 825}], 'id': 284}]

>  <classifications>  (226) 
[{'classification': 'Alkaloid', 'id': 738}, {'classification': 'Amaryllidaceae', 'id': 741}, {'classification': 'Benzopyrans (Classyfire)', 'id': 966}]

>  <molecular_mass>  (226) 
345.39

$$$$
SANC00329_minRM1.pdb
     RDKit          3D

 38 42  0  0  1  0  0  0  0  0999 V2000
   -1.1040    0.1490   -1.4570 H   0  0  0  0  0  0  0  0  0  0  0  0
   -0.8660    0.3380   -0.3750 C   0  0  2  0  0  0  0  0  0  0  0  0
    0.5930    0.0750   -0.1960 C   0  0  0  0  0  0  0  0  0  0  0  0
    1.5410    1.1100   -0.1370 C   0  0  0  0  0  0  0  0  0  0  0  0
    2.8430    0.7220    0.0580 C   0  0  0  0  0  0  0  0  0  0  0  0
    3.9550    1.5170    0.1690 O   0  0  0  0  0  0  0  0  0  0  0  0
    5.0530    0.6390    0.4020 C   0  0  0  0  0  0  0  0  0  0  0  0
    4.5770   -0.7050    0.3750 O   0  0  0  0  0  0  0  0  0  0  0  0
    3.2220   -0.6270    0.1790 C   0  0  0  0  0  0  0  0  0  0  0  0
    2.3150   -1.6510    0.0900 C   0  0  0  0  0  0  0  0  0  0  0  0
    0.9820   -1.2630   -0.1200 C   0  0  0  0  0  0  0  0  0  0  0  0
   -0.0420   -2.3310   -0.3410 C   0  0  0  0  0  0  0  0  0  0  0  0
   -1.2910   -2.0730    0.4170 N   0  0  0  0  0  0  0  0  0  0  0  0
   -2.4600   -2.8190   -0.1490 C   0  0  0  0  0  0  0  0  0  0  0  0
   -3.6810   -1.8830   -0.0950 C   0  0  0  0  0  0  0  0  0  0  0  0
   -3.0950   -0.5290    0.0760 C   0  0  0  0  0  0  0  0  0  0  0  0
   -3.6550    0.6450   -0.1810 C   0  0  0  0  0  0  0  0  0  0  0  0
   -2.8890    1.9000    0.1120 C   0  0  2  0  0  0  0  0  0  0  0  0
   -3.1440    2.1800    1.1760 H   0  0  0  0  0  0  0  0  0  0  0  0
   -3.2300    2.9370   -0.7620 O   0  0  0  0  0  0  0  0  0  0  0  0
   -1.3300    1.7710   -0.0430 C   0  0  1  0  0  0  0  0  0  0  0  0
   -0.9760    2.4530   -0.8650 H   0  0  0  0  0  0  0  0  0  0  0  0
   -0.7570    2.1000    1.1880 O   0  0  0  0  0  0  0  0  0  0  0  0
   -1.6660   -0.6350    0.5110 C   0  0  2  0  0  0  0  0  0  0  0  0
   -1.5390   -0.3630    1.5940 H   0  0  0  0  0  0  0  0  0  0  0  0
    1.2930    2.1680   -0.2350 H   0  0  0  0  0  0  0  0  0  0  0  0
    5.8150    0.7800   -0.3940 H   0  0  0  0  0  0  0  0  0  0  0  0
    5.4940    0.8560    1.3990 H   0  0  0  0  0  0  0  0  0  0  0  0
    2.6170   -2.6960    0.1790 H   0  0  0  0  0  0  0  0  0  0  0  0
   -0.1720   -2.4360   -1.4520 H   0  0  0  0  0  0  0  0  0  0  0  0
    0.3110   -3.3300    0.0050 H   0  0  0  0  0  0  0  0  0  0  0  0
   -2.3120   -3.2050   -1.1860 H   0  0  0  0  0  0  0  0  0  0  0  0
   -2.5980   -3.7290    0.4740 H   0  0  0  0  0  0  0  0  0  0  0  0
   -4.3150   -1.9640   -1.0000 H   0  0  0  0  0  0  0  0  0  0  0  0
   -4.3540   -2.1260    0.7520 H   0  0  0  0  0  0  0  0  0  0  0  0
   -4.6750    0.7390   -0.5590 H   0  0  0  0  0  0  0  0  0  0  0  0
   -4.1800    3.0720   -0.7140 H   0  0  0  0  0  0  0  0  0  0  0  0
   -0.8210    3.0550    1.2880 H   0  0  0  0  0  0  0  0  0  0  0  0
  2  1  1  6
  2  3  1  0
  2 21  1  0
  2 24  1  0
  3  4  2  0
  3 11  1  0
  4 26  1  0
  4  5  1  0
  5  6  1  0
  5  9  2  0
  6  7  1  0
  7 27  1  0
  7  8  1  0
  7 28  1  0
  8  9  1  0
  9 10  1  0
 10 11  2  0
 10 29  1  0
 11 12  1  0
 12 30  1  0
 12 31  1  0
 13 12  1  0
 13 14  1  0
 13 24  1  0
 14 32  1  0
 14 15  1  0
 14 33  1  0
 15 34  1  0
 15 16  1  0
 15 35  1  0
 16 17  2  0
 16 24  1  0
 17 36  1  0
 17 18  1  0
 18 20  1  0
 18 21  1  0
 18 19  1  1
 20 37  1  0
 21 22  1  6
 21 23  1  0
 23 38  1  0
 24 25  1  1
M  END
>  <id>  (227) 
329

>  <scaffolds>  (227) 
['c1ccccc1', 'C1=CCCCC1', 'C1=C2CCN3Cc4cc5c(cc4C(CC1)C23)OCO5', 'C1CCNC1', 'C1=C2CCN3Cc4ccccc4C(CC1)C23', 'c1ccc2c(c1)OCO2']

>  <name>  (227) 
Lycorine

>  <formula>  (227) 
C16H17NO4

>  <SMILES>  (227) 
[H][C@@]35c2cc1OCOc1cc2CN4CCC(=C[C@H](O)[C@H]3O)[C@@]45[H]

>  <ChEMBL_id>  (227) 
CHEMBL400092

>  <ZINC_id>  (227) 
ZINC03881372

>  <PubChem_id>  (227) 
 72378

>  <DrugBank_id>  (227) 


>  <CAS_no>  (227) 
476-28-8

>  <references>  (227) 
[{'journal': {'name': 'Plant Medica', 'id': 23}, 'title': 'Acetylcholinesterase Enzyme Inhibitory Effects of Amaryllidaceae Alkaloids', 'year': 2004, 'start_page': 260, 'volume': 70, 'issue': 3, 'doi': '10.1055/s-2004-818919', 'isbn': '', 'despositor': {'code': 'DLP', 'first_name': 'David', 'last_name': 'Penkler', 'id': 23}, 'refauthors_set': [{'author': {'first_name': 'Esameldin', 'initials': 'EE', 'last_name': 'Elgorashi', 'id': 594}, 'first_author': True, 'id': 823}, {'author': {'first_name': 'Gary ', 'initials': 'GI', 'last_name': 'Stafford', 'id': 595}, 'first_author': False, 'id': 824}, {'author': {'first_name': 'Johannes', 'initials': 'J', 'last_name': 'Van Staden', 'id': 489}, 'first_author': False, 'id': 825}], 'id': 284}, {'journal': {'name': 'Journal of Natural Products', 'id': 5}, 'title': 'Alkaloid Production in Crinum moorei Cultures', 'year': 2003, 'start_page': 1524, 'volume': 66, 'issue': 11, 'doi': '10.1021/np030206o', 'isbn': '', 'despositor': {'code': 'rah', 'first_name': 'Rowan', 'last_name': 'Hatherley', 'id': 20}, 'refauthors_set': [{'author': {'first_name': '', 'initials': 'CW', 'last_name': 'Fennell', 'id': 714}, 'first_author': True, 'id': 1043}, {'author': {'first_name': 'Esameldin', 'initials': 'EE', 'last_name': 'Elgorashi', 'id': 594}, 'first_author': None, 'id': 1121}, {'author': {'first_name': 'Johannes', 'initials': 'J', 'last_name': 'Van Staden', 'id': 489}, 'first_author': None, 'id': 1122}], 'id': 345}]

>  <classifications>  (227) 
[{'classification': 'Alkaloid', 'id': 738}, {'classification': 'Amaryllidaceae', 'id': 741}, {'classification': 'Amaryllidaceae alkaloids (Classyfire)', 'id': 971}]

>  <molecular_mass>  (227) 
287.31

$$$$
SANC00330_minRM1.pdb
     RDKit          3D

 41 45  0  0  1  0  0  0  0  0999 V2000
    1.8720   -0.4530   -1.3930 H   0  0  0  0  0  0  0  0  0  0  0  0
    2.1930   -0.6610   -0.3380 C   0  0  2  0  0  0  0  0  0  0  0  0
    3.7120   -0.5530   -0.2670 C   0  0  0  0  0  0  0  0  0  0  0  0
    4.1230    0.8810   -0.6300 C   0  0  1  0  0  0  0  0  0  0  0  0
    5.2170    1.0230   -0.4010 H   0  0  0  0  0  0  0  0  0  0  0  0
    3.9030    1.0070   -2.0070 O   0  0  0  0  0  0  0  0  0  0  0  0
    3.3260    1.9020    0.1330 C   0  0  0  0  0  0  0  0  0  0  0  0
    2.1570    1.6400    0.7070 C   0  0  0  0  0  0  0  0  0  0  0  0
    1.5200    0.2980    0.6740 C   0  0  2  0  0  0  0  0  0  0  0  0
    1.6910   -0.4360    2.0220 C   0  0  0  0  0  0  0  0  0  0  0  0
    1.7920   -1.9220    1.6230 C   0  0  0  0  0  0  0  0  0  0  0  0
    1.7110   -2.0070    0.1260 N   0  0  0  0  0  0  0  0  0  0  0  0
    0.2850   -2.1210   -0.3030 C   0  0  0  0  0  0  0  0  0  0  0  0
   -0.5380   -0.8860   -0.0580 C   0  0  0  0  0  0  0  0  0  0  0  0
   -1.9230   -0.9550   -0.3150 C   0  0  0  0  0  0  0  0  0  0  0  0
   -2.4260   -2.1170   -0.8210 O   0  0  0  0  0  0  0  0  0  0  0  0
   -3.5540   -2.6080   -0.1320 C   0  0  0  0  0  0  0  0  0  0  0  0
   -2.6630    0.1910   -0.1260 C   0  0  0  0  0  0  0  0  0  0  0  0
   -4.0080    0.4020   -0.2890 O   0  0  0  0  0  0  0  0  0  0  0  0
   -4.2410    1.7680    0.0500 C   0  0  0  0  0  0  0  0  0  0  0  0
   -2.9980    2.3610    0.4200 O   0  0  0  0  0  0  0  0  0  0  0  0
   -2.0510    1.3780    0.3080 C   0  0  0  0  0  0  0  0  0  0  0  0
   -0.7060    1.4740    0.5650 C   0  0  0  0  0  0  0  0  0  0  0  0
    0.0480    0.3070    0.3670 C   0  0  0  0  0  0  0  0  0  0  0  0
    4.1160   -0.8040    0.7340 H   0  0  0  0  0  0  0  0  0  0  0  0
    4.1830   -1.2880   -0.9530 H   0  0  0  0  0  0  0  0  0  0  0  0
    4.0060    1.9340   -2.2390 H   0  0  0  0  0  0  0  0  0  0  0  0
    3.7680    2.9020    0.1890 H   0  0  0  0  0  0  0  0  0  0  0  0
    1.6150    2.4150    1.2630 H   0  0  0  0  0  0  0  0  0  0  0  0
    2.5900   -0.0900    2.5680 H   0  0  0  0  0  0  0  0  0  0  0  0
    0.8540   -0.2370    2.7170 H   0  0  0  0  0  0  0  0  0  0  0  0
    2.7610   -2.3720    1.9290 H   0  0  0  0  0  0  0  0  0  0  0  0
    1.0280   -2.5440    2.1360 H   0  0  0  0  0  0  0  0  0  0  0  0
    0.2770   -2.3620   -1.3930 H   0  0  0  0  0  0  0  0  0  0  0  0
   -0.1840   -3.0100    0.1800 H   0  0  0  0  0  0  0  0  0  0  0  0
   -3.3950   -2.7100    0.9560 H   0  0  0  0  0  0  0  0  0  0  0  0
   -4.4660   -2.0090   -0.3000 H   0  0  0  0  0  0  0  0  0  0  0  0
   -3.7000   -3.6130   -0.5660 H   0  0  0  0  0  0  0  0  0  0  0  0
   -4.6620    2.3050   -0.8300 H   0  0  0  0  0  0  0  0  0  0  0  0
   -4.9450    1.8210    0.9090 H   0  0  0  0  0  0  0  0  0  0  0  0
   -0.2560    2.4100    0.9030 H   0  0  0  0  0  0  0  0  0  0  0  0
  2  1  1  6
  2  3  1  0
  2 12  1  0
  2  9  1  0
  3 26  1  0
  3  4  1  0
  3 25  1  0
  4  6  1  0
  4  5  1  6
  4  7  1  0
  6 27  1  0
  7 28  1  0
  7  8  2  0
  8 29  1  0
  9  8  1  1
  9 24  1  0
  9 10  1  0
 10 11  1  0
 10 30  1  0
 10 31  1  0
 11 32  1  0
 11 33  1  0
 12 11  1  0
 12 13  1  0
 13 34  1  0
 13 14  1  0
 13 35  1  0
 14 15  2  0
 14 24  1  0
 15 16  1  0
 15 18  1  0
 16 17  1  0
 17 38  1  0
 17 37  1  0
 17 36  1  0
 18 19  1  0
 18 22  2  0
 19 20  1  0
 20 39  1  0
 20 21  1  0
 20 40  1  0
 21 22  1  0
 22 23  1  0
 23 24  2  0
 23 41  1  0
M  END
>  <id>  (228) 
330

>  <scaffolds>  (228) 
['c1ccccc1', 'C1=CC23CCN(Cc4cc5c(cc42)OCO5)C3CC1', 'C1=CCCCC1', 'C1CCNC1', 'C1=CC23CCN(Cc4ccccc42)C3CC1', 'c1ccc2c(c1)OCO2']

>  <name>  (228) 
Powelline

>  <formula>  (228) 
C17H19NO4

>  <SMILES>  (228) 
[H][C@@]12C[C@@H](O)C=C[C@]15CC[N@]2Cc4c(OC)c3OCOc3cc45

>  <ChEMBL_id>  (228) 


>  <ZINC_id>  (228) 


>  <PubChem_id>  (228) 
 443669

>  <DrugBank_id>  (228) 


>  <CAS_no>  (228) 
7363-25-9

>  <references>  (228) 
[{'journal': {'name': 'Plant Medica', 'id': 23}, 'title': 'Acetylcholinesterase Enzyme Inhibitory Effects of Amaryllidaceae Alkaloids', 'year': 2004, 'start_page': 260, 'volume': 70, 'issue': 3, 'doi': '10.1055/s-2004-818919', 'isbn': '', 'despositor': {'code': 'DLP', 'first_name': 'David', 'last_name': 'Penkler', 'id': 23}, 'refauthors_set': [{'author': {'first_name': 'Esameldin', 'initials': 'EE', 'last_name': 'Elgorashi', 'id': 594}, 'first_author': True, 'id': 823}, {'author': {'first_name': 'Gary ', 'initials': 'GI', 'last_name': 'Stafford', 'id': 595}, 'first_author': False, 'id': 824}, {'author': {'first_name': 'Johannes', 'initials': 'J', 'last_name': 'Van Staden', 'id': 489}, 'first_author': False, 'id': 825}], 'id': 284}, {'journal': {'name': 'Journal of Natural Products', 'id': 5}, 'title': 'Alkaloid Production in Crinum moorei Cultures', 'year': 2003, 'start_page': 1524, 'volume': 66, 'issue': 11, 'doi': '10.1021/np030206o', 'isbn': '', 'despositor': {'code': 'rah', 'first_name': 'Rowan', 'last_name': 'Hatherley', 'id': 20}, 'refauthors_set': [{'author': {'first_name': '', 'initials': 'CW', 'last_name': 'Fennell', 'id': 714}, 'first_author': True, 'id': 1043}, {'author': {'first_name': 'Esameldin', 'initials': 'EE', 'last_name': 'Elgorashi', 'id': 594}, 'first_author': None, 'id': 1121}, {'author': {'first_name': 'Johannes', 'initials': 'J', 'last_name': 'Van Staden', 'id': 489}, 'first_author': None, 'id': 1122}], 'id': 345}]

>  <classifications>  (228) 
[{'classification': 'Alkaloid', 'id': 738}, {'classification': 'Amaryllidaceae', 'id': 741}, {'classification': 'Amaryllidaceae alkaloids (Classyfire)', 'id': 971}]

>  <molecular_mass>  (228) 
301.34

$$$$
SANC00331_minRM1.pdb
     RDKit          3D

 45 50  0  0  1  0  0  0  0  0999 V2000
    1.5910   -0.9490   -0.8940 H   0  0  0  0  0  0  0  0  0  0  0  0
    1.8240   -0.7970    0.1930 C   0  0  2  0  0  0  0  0  0  0  0  0
    3.3380   -0.7110    0.3570 C   0  0  0  0  0  0  0  0  0  0  0  0
    3.8840    0.4050   -0.5400 C   0  0  1  0  0  0  0  0  0  0  0  0
    4.9740    0.5740   -0.3150 H   0  0  0  0  0  0  0  0  0  0  0  0
    3.6610    0.1170   -1.9010 O   0  0  0  0  0  0  0  0  0  0  0  0
    4.6160   -0.7340   -2.4740 C   0  0  0  0  0  0  0  0  0  0  0  0
    3.1380    1.7110   -0.3100 C   0  0  2  0  0  0  0  0  0  0  0  0
    3.4280    2.5250   -1.0040 H   0  0  0  0  0  0  0  0  0  0  0  0
    2.9890    2.0600    1.0540 O   0  0  0  0  0  0  0  0  0  0  0  0
    1.7920    1.7310    0.3630 C   0  0  2  0  0  0  0  0  0  0  0  0
    1.1150    2.5950    0.1920 H   0  0  0  0  0  0  0  0  0  0  0  0
    1.1050    0.4510    0.7660 C   0  0  2  0  0  0  0  0  0  0  0  0
    1.1050    0.2030    2.2880 C   0  0  0  0  0  0  0  0  0  0  0  0
    1.2200   -1.3290    2.4160 C   0  0  0  0  0  0  0  0  0  0  0  0
    1.2550   -1.9090    1.0310 N   0  0  0  0  0  0  0  0  0  0  0  0
   -0.1330   -2.1520    0.5430 C   0  0  0  0  0  0  0  0  0  0  0  0
   -0.9170   -0.9030    0.2460 C   0  0  0  0  0  0  0  0  0  0  0  0
   -0.3330    0.3620    0.3220 C   0  0  0  0  0  0  0  0  0  0  0  0
   -1.0620    1.5270    0.0380 C   0  0  0  0  0  0  0  0  0  0  0  0
   -2.3700    1.3540   -0.3380 C   0  0  0  0  0  0  0  0  0  0  0  0
   -3.2810    2.3200   -0.6720 O   0  0  0  0  0  0  0  0  0  0  0  0
   -4.4900    1.6380   -0.9980 C   0  0  0  0  0  0  0  0  0  0  0  0
   -4.2800    0.2370   -0.8320 O   0  0  0  0  0  0  0  0  0  0  0  0
   -2.9770    0.0910   -0.4310 C   0  0  0  0  0  0  0  0  0  0  0  0
   -2.2650   -1.0530   -0.1470 C   0  0  0  0  0  0  0  0  0  0  0  0
   -2.7990   -2.3060   -0.1320 O   0  0  0  0  0  0  0  0  0  0  0  0
   -3.5550   -2.6330   -1.2790 C   0  0  0  0  0  0  0  0  0  0  0  0
    3.6400   -0.5140    1.4070 H   0  0  0  0  0  0  0  0  0  0  0  0
    3.8060   -1.6880    0.1150 H   0  0  0  0  0  0  0  0  0  0  0  0
    5.6410   -0.3260   -2.4440 H   0  0  0  0  0  0  0  0  0  0  0  0
    4.6350   -1.7430   -2.0300 H   0  0  0  0  0  0  0  0  0  0  0  0
    4.3020   -0.8210   -3.5260 H   0  0  0  0  0  0  0  0  0  0  0  0
    1.9320    0.7180    2.8120 H   0  0  0  0  0  0  0  0  0  0  0  0
    0.1930    0.6010    2.7740 H   0  0  0  0  0  0  0  0  0  0  0  0
    2.1590   -1.6370    2.9270 H   0  0  0  0  0  0  0  0  0  0  0  0
    0.4130   -1.7610    3.0450 H   0  0  0  0  0  0  0  0  0  0  0  0
   -0.0610   -2.7740   -0.3810 H   0  0  0  0  0  0  0  0  0  0  0  0
   -0.6790   -2.7970    1.2710 H   0  0  0  0  0  0  0  0  0  0  0  0
   -0.6190    2.5250    0.1070 H   0  0  0  0  0  0  0  0  0  0  0  0
   -5.3010    1.9760   -0.3170 H   0  0  0  0  0  0  0  0  0  0  0  0
   -4.7630    1.8510   -2.0560 H   0  0  0  0  0  0  0  0  0  0  0  0
   -4.5530   -2.1560   -1.2890 H   0  0  0  0  0  0  0  0  0  0  0  0
   -3.0390   -2.4010   -2.2300 H   0  0  0  0  0  0  0  0  0  0  0  0
   -3.6860   -3.7240   -1.1940 H   0  0  0  0  0  0  0  0  0  0  0  0
  2  1  1  6
  2  3  1  0
  2 13  1  0
  2 16  1  0
  3  4  1  0
  3 30  1  0
  3 29  1  0
  4  6  1  0
  4  5  1  6
  4  8  1  0
  6  7  1  0
  7 33  1  0
  7 31  1  0
  7 32  1  0
  8  9  1  6
  8 11  1  0
  8 10  1  0
 10 11  1  0
 11 12  1  6
 11 13  1  0
 13 19  1  0
 13 14  1  1
 14 15  1  0
 14 35  1  0
 14 34  1  0
 15 36  1  0
 15 37  1  0
 16 15  1  0
 16 17  1  0
 17 38  1  0
 17 18  1  0
 17 39  1  0
 18 26  2  0
 18 19  1  0
 19 20  2  0
 20 21  1  0
 20 40  1  0
 21 22  1  0
 21 25  2  0
 22 23  1  0
 23 42  1  0
 23 24  1  0
 23 41  1  0
 24 25  1  0
 25 26  1  0
 26 27  1  0
 27 28  1  0
 28 44  1  0
 28 43  1  0
 28 45  1  0
M  END
>  <id>  (229) 
331

>  <scaffolds>  (229) 
['c1ccccc1', 'c1c2c(cc3c1OCO3)C13CCN(C2)C1CCC1OC13', 'C1CCCCC1', 'c1ccc(C23CCCCC2NCC3)cc1', 'C1CCNC1', 'c1ccc2c(c1)OCO2', 'c1c2c(cc3c1OCO3)C13CCCCC1N(CC3)C2']

>  <name>  (229) 
Undulatine

>  <formula>  (229) 
C18H21NO5

>  <SMILES>  (229) 
[H][C@@]23C[C@@H](OC)[C@@H]1O[C@@H]1[C@]24CCN3Cc6c4cc5OCOc5c6OC

>  <ChEMBL_id>  (229) 


>  <ZINC_id>  (229) 


>  <PubChem_id>  (229) 
 271606

>  <DrugBank_id>  (229) 


>  <CAS_no>  (229) 
6882-09-3

>  <references>  (229) 
[{'journal': {'name': 'Plant Medica', 'id': 23}, 'title': 'Acetylcholinesterase Enzyme Inhibitory Effects of Amaryllidaceae Alkaloids', 'year': 2004, 'start_page': 260, 'volume': 70, 'issue': 3, 'doi': '10.1055/s-2004-818919', 'isbn': '', 'despositor': {'code': 'DLP', 'first_name': 'David', 'last_name': 'Penkler', 'id': 23}, 'refauthors_set': [{'author': {'first_name': 'Esameldin', 'initials': 'EE', 'last_name': 'Elgorashi', 'id': 594}, 'first_author': True, 'id': 823}, {'author': {'first_name': 'Gary ', 'initials': 'GI', 'last_name': 'Stafford', 'id': 595}, 'first_author': False, 'id': 824}, {'author': {'first_name': 'Johannes', 'initials': 'J', 'last_name': 'Van Staden', 'id': 489}, 'first_author': False, 'id': 825}], 'id': 284}, {'journal': {'name': 'Journal of Natural Products', 'id': 5}, 'title': 'Alkaloid Production in Crinum moorei Cultures', 'year': 2003, 'start_page': 1524, 'volume': 66, 'issue': 11, 'doi': '10.1021/np030206o', 'isbn': '', 'despositor': {'code': 'rah', 'first_name': 'Rowan', 'last_name': 'Hatherley', 'id': 20}, 'refauthors_set': [{'author': {'first_name': '', 'initials': 'CW', 'last_name': 'Fennell', 'id': 714}, 'first_author': True, 'id': 1043}, {'author': {'first_name': 'Esameldin', 'initials': 'EE', 'last_name': 'Elgorashi', 'id': 594}, 'first_author': None, 'id': 1121}, {'author': {'first_name': 'Johannes', 'initials': 'J', 'last_name': 'Van Staden', 'id': 489}, 'first_author': None, 'id': 1122}], 'id': 345}]

>  <classifications>  (229) 
[{'classification': 'Alkaloid', 'id': 738}, {'classification': 'Amaryllidaceae', 'id': 741}, {'classification': 'Amaryllidaceae alkaloids (Classyfire)', 'id': 971}]

>  <molecular_mass>  (229) 
331.36

$$$$
SANC00332_minRM1.pdb
     RDKit          3D

 27 28  0  0  1  0  0  0  0  0999 V2000
    1.7580    3.4620    0.1800 C   0  0  0  0  0  0  0  0  0  0  0  0
    1.1060    2.1300    0.0750 C   0  0  0  0  0  0  0  0  0  0  0  0
    1.8830    0.9770    0.0770 C   0  0  0  0  0  0  0  0  0  0  0  0
    1.2870   -0.2890   -0.0040 C   0  0  0  0  0  0  0  0  0  0  0  0
    2.0800   -1.5190   -0.0040 C   0  0  0  0  0  0  0  0  0  0  0  0
    1.6710   -2.6690    0.0760 O   0  0  0  0  0  0  0  0  0  0  0  0
    3.4140   -1.3250   -0.1110 O   0  0  0  0  0  0  0  0  0  0  0  0
   -0.0940   -0.3740   -0.0810 C   0  0  0  0  0  0  0  0  0  0  0  0
   -0.9530   -1.5890   -0.1640 C   0  0  0  0  0  0  0  0  0  0  0  0
   -2.3980   -1.0570   -0.2910 C   0  0  1  0  0  0  0  0  0  0  0  0
   -3.3110   -1.5950    0.7960 C   0  0  0  0  0  0  0  0  0  0  0  0
   -2.2880    0.4550   -0.1790 C   0  0  0  0  0  0  0  0  0  0  0  0
   -3.2140    1.2360   -0.1690 O   0  0  0  0  0  0  0  0  0  0  0  0
   -0.8610    0.7960   -0.0840 C   0  0  0  0  0  0  0  0  0  0  0  0
   -0.2890    2.0470   -0.0060 C   0  0  0  0  0  0  0  0  0  0  0  0
    1.9060    3.7440    1.2330 H   0  0  0  0  0  0  0  0  0  0  0  0
    2.7470    3.4910   -0.3010 H   0  0  0  0  0  0  0  0  0  0  0  0
    1.1660    4.2640   -0.2850 H   0  0  0  0  0  0  0  0  0  0  0  0
    2.9730    1.0670    0.1450 H   0  0  0  0  0  0  0  0  0  0  0  0
    3.8900   -2.1670   -0.1060 H   0  0  0  0  0  0  0  0  0  0  0  0
   -0.6670   -2.2320   -1.0200 H   0  0  0  0  0  0  0  0  0  0  0  0
   -0.8120   -2.2360    0.7270 H   0  0  0  0  0  0  0  0  0  0  0  0
   -2.8180   -1.3110   -1.2960 H   0  0  0  0  0  0  0  0  0  0  0  0
   -2.9530   -1.3460    1.8060 H   0  0  0  0  0  0  0  0  0  0  0  0
   -4.3290   -1.1860    0.7100 H   0  0  0  0  0  0  0  0  0  0  0  0
   -3.3980   -2.6900    0.7480 H   0  0  0  0  0  0  0  0  0  0  0  0
   -0.9170    2.9440   -0.0070 H   0  0  0  0  0  0  0  0  0  0  0  0
  1 17  1  0
  1 18  1  0
  1  2  1  0
  1 16  1  0
  2 15  2  0
  2  3  1  0
  3  4  2  0
  3 19  1  0
  4  8  1  0
  4  5  1  0
  5  7  1  0
  5  6  2  0
  7 20  1  0
  8  9  1  0
  8 14  2  0
  9 21  1  0
  9 10  1  0
  9 22  1  0
 10 23  1  6
 10 12  1  0
 10 11  1  0
 11 25  1  0
 11 26  1  0
 11 24  1  0
 12 13  2  0
 12 14  1  0
 14 15  1  0
 15 27  1  0
M  END
>  <id>  (230) 
332

>  <scaffolds>  (230) 
['c1ccccc1', 'O=C1CCc2ccccc21']

>  <name>  (230) 
2,6- dimethyl-1-oxo-4-indanecarboxylic acid

>  <formula>  (230) 
C12H12O3

>  <SMILES>  (230) 
Cc2cc(C(=O)O)c1CC(C)C(=O)c1c2

>  <ChEMBL_id>  (230) 


>  <ZINC_id>  (230) 


>  <PubChem_id>  (230) 


>  <DrugBank_id>  (230) 


>  <CAS_no>  (230) 
1067197-70-9

>  <references>  (230) 
[{'journal': {'name': 'Journal of Natural Products', 'id': 5}, 'title': 'Bioactive Diterpenes and Other Constituents of Croton steenkampianus', 'year': 2008, 'start_page': 1919, 'volume': 71, 'issue': 11, 'doi': '10.1021/np800333r', 'isbn': '', 'despositor': {'code': 'NFA', 'first_name': 'Ngonidzashe', 'last_name': 'Faya', 'id': 21}, 'refauthors_set': [{'author': {'first_name': 'Adeboye', 'initials': 'AM', 'last_name': 'Adelekan', 'id': 461}, 'first_author': True, 'id': 631}, {'author': {'first_name': 'Erwin', 'initials': 'EA', 'last_name': 'Prozesky', 'id': 462}, 'first_author': None, 'id': 1224}, {'author': {'first_name': 'Ahmed', 'initials': 'AA', 'last_name': 'Hussein', 'id': 440}, 'first_author': None, 'id': 1225}, {'author': {'first_name': 'Luis', 'initials': 'D', 'last_name': 'Urena', 'id': 464}, 'first_author': None, 'id': 1226}, {'author': {'first_name': 'David', 'initials': 'DC', 'last_name': 'Liles', 'id': 466}, 'first_author': None, 'id': 1227}, {'author': {'first_name': 'Jacobus', 'initials': 'JM', 'last_name': 'Meyer', 'id': 716}, 'first_author': None, 'id': 1228}, {'author': {'first_name': 'Benjamin', 'initials': 'B', 'last_name': 'Rodriguez', 'id': 472}, 'first_author': None, 'id': 1229}], 'id': 237}]

>  <classifications>  (230) 
[{'classification': 'Indan', 'id': 785}, {'classification': 'Indanes (Classyfire)', 'id': 968}]

>  <molecular_mass>  (230) 
204.22

$$$$
SANC00333_minRM1.pdb
     RDKit          3D

 46 49  0  0  1  0  0  0  0  0999 V2000
   -1.6260   -0.8730   -0.9770 H   0  0  0  0  0  0  0  0  0  0  0  0
   -1.8310   -0.9700    0.1200 C   0  0  1  0  0  0  0  0  0  0  0  0
   -3.3400   -0.8790    0.3300 C   0  0  0  0  0  0  0  0  0  0  0  0
   -3.8290    0.4950   -0.1520 C   0  0  2  0  0  0  0  0  0  0  0  0
   -4.8950    0.6490    0.1800 H   0  0  0  0  0  0  0  0  0  0  0  0
   -3.7610    0.4410   -1.5600 O   0  0  0  0  0  0  0  0  0  0  0  0
   -4.1660    1.6110   -2.2130 C   0  0  0  0  0  0  0  0  0  0  0  0
   -2.9820    1.6120    0.3880 C   0  0  0  0  0  0  0  0  0  0  0  0
   -1.7580    1.4380    0.8760 C   0  0  0  0  0  0  0  0  0  0  0  0
   -1.0930    0.1120    0.9470 C   0  0  1  0  0  0  0  0  0  0  0  0
   -1.1260   -0.4650    2.3780 C   0  0  0  0  0  0  0  0  0  0  0  0
   -1.2340   -1.9890    2.1640 C   0  0  0  0  0  0  0  0  0  0  0  0
   -1.2740   -2.2440    0.6850 N   0  0  0  0  0  0  0  0  0  0  0  0
    0.1350   -2.4080    0.1760 C   0  0  1  0  0  0  0  0  0  0  0  0
    0.1000   -3.0070   -1.0790 O   0  0  0  0  0  0  0  0  0  0  0  0
    0.9140   -1.1060    0.1330 C   0  0  0  0  0  0  0  0  0  0  0  0
    2.2440   -1.1710   -0.2890 C   0  0  0  0  0  0  0  0  0  0  0  0
    2.9950   -0.0090   -0.3450 C   0  0  0  0  0  0  0  0  0  0  0  0
    4.3050    0.0910   -0.7090 O   0  0  0  0  0  0  0  0  0  0  0  0
    4.8880   -1.0520   -1.2890 C   0  0  0  0  0  0  0  0  0  0  0  0
    2.4150    1.2250    0.0360 C   0  0  0  0  0  0  0  0  0  0  0  0
    3.2750    2.2770   -0.0510 O   0  0  0  0  0  0  0  0  0  0  0  0
    2.7600    3.5490    0.2480 C   0  0  0  0  0  0  0  0  0  0  0  0
    1.0960    1.2790    0.4560 C   0  0  0  0  0  0  0  0  0  0  0  0
    0.3390    0.1060    0.4910 C   0  0  0  0  0  0  0  0  0  0  0  0
   -3.8560   -1.7000   -0.2120 H   0  0  0  0  0  0  0  0  0  0  0  0
   -3.6370   -1.0140    1.3910 H   0  0  0  0  0  0  0  0  0  0  0  0
   -4.3360    1.3040   -3.2550 H   0  0  0  0  0  0  0  0  0  0  0  0
   -5.0940    2.0580   -1.8160 H   0  0  0  0  0  0  0  0  0  0  0  0
   -3.3820    2.3830   -2.2060 H   0  0  0  0  0  0  0  0  0  0  0  0
   -3.4400    2.6060    0.3620 H   0  0  0  0  0  0  0  0  0  0  0  0
   -1.1820    2.2840    1.2690 H   0  0  0  0  0  0  0  0  0  0  0  0
   -0.2320   -0.1810    2.9650 H   0  0  0  0  0  0  0  0  0  0  0  0
   -1.9790   -0.0680    2.9610 H   0  0  0  0  0  0  0  0  0  0  0  0
   -0.4210   -2.5430    2.6820 H   0  0  0  0  0  0  0  0  0  0  0  0
   -2.1670   -2.4100    2.5990 H   0  0  0  0  0  0  0  0  0  0  0  0
    0.6730   -3.1810    0.7940 H   0  0  0  0  0  0  0  0  0  0  0  0
   -0.2220   -2.3790   -1.7330 H   0  0  0  0  0  0  0  0  0  0  0  0
    2.6580   -2.1440   -0.5680 H   0  0  0  0  0  0  0  0  0  0  0  0
    5.0140   -1.8820   -0.5700 H   0  0  0  0  0  0  0  0  0  0  0  0
    4.3520   -1.4200   -2.1800 H   0  0  0  0  0  0  0  0  0  0  0  0
    5.8840   -0.7040   -1.6070 H   0  0  0  0  0  0  0  0  0  0  0  0
    2.4460    3.6560    1.3010 H   0  0  0  0  0  0  0  0  0  0  0  0
    3.6180    4.2170    0.0690 H   0  0  0  0  0  0  0  0  0  0  0  0
    1.9300    3.8560   -0.4080 H   0  0  0  0  0  0  0  0  0  0  0  0
    0.6290    2.2190    0.7650 H   0  0  0  0  0  0  0  0  0  0  0  0
  2  1  1  6
  2  3  1  0
  2 13  1  0
  2 10  1  0
  3 26  1  0
  3  4  1  0
  3 27  1  0
  4  6  1  0
  4  5  1  6
  4  8  1  0
  6  7  1  0
  7 28  1  0
  7 30  1  0
  7 29  1  0
  8 31  1  0
  8  9  2  0
  9 32  1  0
 10  9  1  1
 10 25  1  0
 10 11  1  0
 11 12  1  0
 11 34  1  0
 11 33  1  0
 12 36  1  0
 12 35  1  0
 13 12  1  0
 13 14  1  0
 14 15  1  0
 14 16  1  0
 14 37  1  1
 15 38  1  0
 16 17  2  0
 16 25  1  0
 17 39  1  0
 17 18  1  0
 18 19  1  0
 18 21  2  0
 19 20  1  0
 20 41  1  0
 20 42  1  0
 20 40  1  0
 21 22  1  0
 21 24  1  0
 22 23  1  0
 23 45  1  0
 23 44  1  0
 23 43  1  0
 24 25  2  0
 24 46  1  0
M  END
>  <id>  (231) 
333

>  <scaffolds>  (231) 
['c1ccccc1', 'C1=CCCCC1', 'C1CCNC1', 'C1=CC23CCN(Cc4ccccc42)C3CC1']

>  <name>  (231) 
Papyramine

>  <formula>  (231) 
C18H23NO4

>  <SMILES>  (231) 
[H][C@]12C[C@H](OC)C=C[C@@]14CCN2C(O)c3cc(OC)c(OC)cc34

>  <ChEMBL_id>  (231) 


>  <ZINC_id>  (231) 


>  <PubChem_id>  (231) 
 443727

>  <DrugBank_id>  (231) 


>  <CAS_no>  (231) 
81149-33-9

>  <references>  (231) 
[{'journal': {'name': 'Plant Medica', 'id': 23}, 'title': 'Acetylcholinesterase Enzyme Inhibitory Effects of Amaryllidaceae Alkaloids', 'year': 2004, 'start_page': 260, 'volume': 70, 'issue': 3, 'doi': '10.1055/s-2004-818919', 'isbn': '', 'despositor': {'code': 'DLP', 'first_name': 'David', 'last_name': 'Penkler', 'id': 23}, 'refauthors_set': [{'author': {'first_name': 'Esameldin', 'initials': 'EE', 'last_name': 'Elgorashi', 'id': 594}, 'first_author': True, 'id': 823}, {'author': {'first_name': 'Gary ', 'initials': 'GI', 'last_name': 'Stafford', 'id': 595}, 'first_author': False, 'id': 824}, {'author': {'first_name': 'Johannes', 'initials': 'J', 'last_name': 'Van Staden', 'id': 489}, 'first_author': False, 'id': 825}], 'id': 284}]

>  <classifications>  (231) 
[{'classification': 'Alkaloid', 'id': 738}, {'classification': 'Amaryllidaceae', 'id': 741}, {'classification': 'Quinolines and derivatives (Classyfire)', 'id': 948}]

>  <molecular_mass>  (231) 
317.38

$$$$
SANC00334_minRM1.pdb
     RDKit          3D

 40 42  0  0  1  0  0  0  0  0999 V2000
   -0.6650    3.8660    0.8410 C   0  0  0  0  0  0  0  0  0  0  0  0
   -1.7170    3.2670    0.1220 O   0  0  0  0  0  0  0  0  0  0  0  0
   -1.7480    1.8970    0.1100 C   0  0  0  0  0  0  0  0  0  0  0  0
   -0.7020    1.0650    0.4770 C   0  0  0  0  0  0  0  0  0  0  0  0
   -0.8470   -0.3180    0.3470 C   0  0  0  0  0  0  0  0  0  0  0  0
   -2.0300   -0.8590   -0.1340 C   0  0  0  0  0  0  0  0  0  0  0  0
   -3.0860   -0.0270   -0.5020 C   0  0  0  0  0  0  0  0  0  0  0  0
   -2.9580    1.3490   -0.3610 C   0  0  0  0  0  0  0  0  0  0  0  0
   -4.0440    2.0740   -0.7280 O   0  0  0  0  0  0  0  0  0  0  0  0
   -2.2260   -2.3350   -0.2910 C   0  0  0  0  0  0  0  0  0  0  0  0
   -1.1900   -3.1220    0.4330 N   0  0  0  0  0  0  0  0  0  0  0  0
   -1.2960   -4.5590    0.0790 C   0  0  0  0  0  0  0  0  0  0  0  0
    0.1640   -2.5940    0.1130 C   0  0  0  0  0  0  0  0  0  0  0  0
    0.2830   -1.2050    0.7630 C   0  0  1  0  0  0  0  0  0  0  0  0
    0.2030   -1.3190    1.8780 H   0  0  0  0  0  0  0  0  0  0  0  0
    1.6120   -0.6260    0.3850 C   0  0  0  0  0  0  0  0  0  0  0  0
    1.7970   -0.1100   -0.8930 C   0  0  0  0  0  0  0  0  0  0  0  0
    3.0220    0.4310   -1.2610 C   0  0  0  0  0  0  0  0  0  0  0  0
    4.0590    0.4500   -0.3300 C   0  0  0  0  0  0  0  0  0  0  0  0
    5.2880    0.9650   -0.5940 O   0  0  0  0  0  0  0  0  0  0  0  0
    3.8920   -0.0720    0.9540 C   0  0  0  0  0  0  0  0  0  0  0  0
    2.6660   -0.6190    1.3000 C   0  0  0  0  0  0  0  0  0  0  0  0
   -0.5790    3.5250    1.8860 H   0  0  0  0  0  0  0  0  0  0  0  0
    0.3080    3.7410    0.3360 H   0  0  0  0  0  0  0  0  0  0  0  0
   -0.9300    4.9360    0.8360 H   0  0  0  0  0  0  0  0  0  0  0  0
    0.2410    1.4660    0.8600 H   0  0  0  0  0  0  0  0  0  0  0  0
   -4.0100   -0.4440   -0.9090 H   0  0  0  0  0  0  0  0  0  0  0  0
   -3.8920    2.9910   -0.5090 H   0  0  0  0  0  0  0  0  0  0  0  0
   -3.2180   -2.6340    0.1260 H   0  0  0  0  0  0  0  0  0  0  0  0
   -2.2880   -2.5650   -1.3870 H   0  0  0  0  0  0  0  0  0  0  0  0
   -1.0890   -4.8160   -0.9770 H   0  0  0  0  0  0  0  0  0  0  0  0
   -0.5960   -5.1470    0.6980 H   0  0  0  0  0  0  0  0  0  0  0  0
   -2.3090   -4.9330    0.3090 H   0  0  0  0  0  0  0  0  0  0  0  0
    0.9450   -3.2730    0.5270 H   0  0  0  0  0  0  0  0  0  0  0  0
    0.3860   -2.5400   -0.9810 H   0  0  0  0  0  0  0  0  0  0  0  0
    0.9740   -0.1270   -1.6180 H   0  0  0  0  0  0  0  0  0  0  0  0
    3.1590    0.8300   -2.2660 H   0  0  0  0  0  0  0  0  0  0  0  0
    5.2600    1.3810   -1.4430 H   0  0  0  0  0  0  0  0  0  0  0  0
    4.7130   -0.0410    1.6690 H   0  0  0  0  0  0  0  0  0  0  0  0
    2.5410   -1.0590    2.3030 H   0  0  0  0  0  0  0  0  0  0  0  0
  1  2  1  0
  1 24  1  0
  1 25  1  0
  1 23  1  0
  2  3  1  0
  3  8  2  0
  3  4  1  0
  4  5  2  0
  4 26  1  0
  5  6  1  0
  5 14  1  0
  6  7  2  0
  6 10  1  0
  7 27  1  0
  7  8  1  0
  8  9  1  0
  9 28  1  0
 10 30  1  0
 10 29  1  0
 10 11  1  0
 11 12  1  0
 11 13  1  0
 12 31  1  0
 12 33  1  0
 12 32  1  0
 13 35  1  0
 13 34  1  0
 13 14  1  0
 14 16  1  0
 14 15  1  1
 16 17  2  0
 16 22  1  0
 17 36  1  0
 17 18  1  0
 18 37  1  0
 18 19  2  0
 19 20  1  0
 19 21  1  0
 20 38  1  0
 21 22  2  0
 21 39  1  0
 22 40  1  0
M  END
>  <id>  (232) 
334

>  <scaffolds>  (232) 
['c1ccccc1', 'c1ccc(Cc2ccccc2)cc1', 'c1ccc(C2CNCc3ccccc32)cc1', 'c1ccc(CCNCc2ccccc2)cc1']

>  <name>  (232) 
Cherylline

>  <formula>  (232) 
C17H19NO3

>  <SMILES>  (232) 
COc1cc2c(cc1O)CN(C)C[C@H]2c3ccc(O)cc3

>  <ChEMBL_id>  (232) 


>  <ZINC_id>  (232) 


>  <PubChem_id>  (232) 
618047

>  <DrugBank_id>  (232) 


>  <CAS_no>  (232) 
23367-61-5

>  <references>  (232) 
[{'journal': {'name': 'Plant Medica', 'id': 23}, 'title': 'Acetylcholinesterase Enzyme Inhibitory Effects of Amaryllidaceae Alkaloids', 'year': 2004, 'start_page': 260, 'volume': 70, 'issue': 3, 'doi': '10.1055/s-2004-818919', 'isbn': '', 'despositor': {'code': 'DLP', 'first_name': 'David', 'last_name': 'Penkler', 'id': 23}, 'refauthors_set': [{'author': {'first_name': 'Esameldin', 'initials': 'EE', 'last_name': 'Elgorashi', 'id': 594}, 'first_author': True, 'id': 823}, {'author': {'first_name': 'Gary ', 'initials': 'GI', 'last_name': 'Stafford', 'id': 595}, 'first_author': False, 'id': 824}, {'author': {'first_name': 'Johannes', 'initials': 'J', 'last_name': 'Van Staden', 'id': 489}, 'first_author': False, 'id': 825}], 'id': 284}, {'journal': {'name': 'Journal of Natural Products', 'id': 5}, 'title': 'Alkaloid Production in Crinum moorei Cultures', 'year': 2003, 'start_page': 1524, 'volume': 66, 'issue': 11, 'doi': '10.1021/np030206o', 'isbn': '', 'despositor': {'code': 'rah', 'first_name': 'Rowan', 'last_name': 'Hatherley', 'id': 20}, 'refauthors_set': [{'author': {'first_name': '', 'initials': 'CW', 'last_name': 'Fennell', 'id': 714}, 'first_author': True, 'id': 1043}, {'author': {'first_name': 'Esameldin', 'initials': 'EE', 'last_name': 'Elgorashi', 'id': 594}, 'first_author': None, 'id': 1121}, {'author': {'first_name': 'Johannes', 'initials': 'J', 'last_name': 'Van Staden', 'id': 489}, 'first_author': None, 'id': 1122}], 'id': 345}]

>  <classifications>  (232) 
[{'classification': 'Alkaloid', 'id': 738}, {'classification': 'Amaryllidaceae', 'id': 741}, {'classification': 'Tetrahydroisoquinolines (Classyfire)', 'id': 973}]

>  <molecular_mass>  (232) 
285.34

$$$$
SANC00335_minRM1.pdb
     RDKit          3D

 35 37  0  0  0  0  0  0  0  0999 V2000
    6.2290    1.6660   -0.7520 C   0  0  0  0  0  0  0  0  0  0  0  0
    5.6250    0.6440    0.0010 O   0  0  0  0  0  0  0  0  0  0  0  0
    4.2670    0.5470   -0.0610 C   0  0  0  0  0  0  0  0  0  0  0  0
    3.4190    1.3700   -0.7930 C   0  0  0  0  0  0  0  0  0  0  0  0
    2.0500    1.1250   -0.7760 C   0  0  0  0  0  0  0  0  0  0  0  0
    1.5390    0.0570   -0.0460 C   0  0  0  0  0  0  0  0  0  0  0  0
    0.1110   -0.2360   -0.0980 C   0  0  0  0  0  0  0  0  0  0  0  0
   -0.6380    0.8770    0.1690 O   0  0  0  0  0  0  0  0  0  0  0  0
   -1.9960    0.7760    0.0900 C   0  0  0  0  0  0  0  0  0  0  0  0
   -2.6930    1.9590    0.3010 C   0  0  0  0  0  0  0  0  0  0  0  0
   -4.0900    1.8980    0.2140 C   0  0  0  0  0  0  0  0  0  0  0  0
   -4.7180    3.0720    0.4290 O   0  0  0  0  0  0  0  0  0  0  0  0
   -4.7870    0.7180   -0.0590 C   0  0  0  0  0  0  0  0  0  0  0  0
   -4.0480   -0.4480   -0.2540 C   0  0  0  0  0  0  0  0  0  0  0  0
   -4.7420   -1.5600   -0.5170 O   0  0  0  0  0  0  0  0  0  0  0  0
   -2.6410   -0.4350   -0.1860 C   0  0  0  0  0  0  0  0  0  0  0  0
   -1.8770   -1.6410   -0.3970 C   0  0  0  0  0  0  0  0  0  0  0  0
   -2.4210   -2.7240   -0.6220 O   0  0  0  0  0  0  0  0  0  0  0  0
   -0.4300   -1.4540   -0.3440 C   0  0  0  0  0  0  0  0  0  0  0  0
    0.3980   -2.5210   -0.4690 O   0  0  0  0  0  0  0  0  0  0  0  0
    2.3720   -0.7680    0.7070 C   0  0  0  0  0  0  0  0  0  0  0  0
    3.7400   -0.5180    0.6960 C   0  0  0  0  0  0  0  0  0  0  0  0
    4.5130   -1.2920    1.5020 O   0  0  0  0  0  0  0  0  0  0  0  0
    6.0540    1.5730   -1.8360 H   0  0  0  0  0  0  0  0  0  0  0  0
    5.9340    2.6760   -0.4200 H   0  0  0  0  0  0  0  0  0  0  0  0
    7.3020    1.5300   -0.5520 H   0  0  0  0  0  0  0  0  0  0  0  0
    3.7940    2.2090   -1.3830 H   0  0  0  0  0  0  0  0  0  0  0  0
    1.3800    1.7800   -1.3410 H   0  0  0  0  0  0  0  0  0  0  0  0
   -2.1790    2.8970    0.5250 H   0  0  0  0  0  0  0  0  0  0  0  0
   -5.6580    2.9770    0.2420 H   0  0  0  0  0  0  0  0  0  0  0  0
   -5.8780    0.6880   -0.1180 H   0  0  0  0  0  0  0  0  0  0  0  0
   -4.1470   -2.3440   -0.5460 H   0  0  0  0  0  0  0  0  0  0  0  0
    0.0430   -3.0800   -1.1800 H   0  0  0  0  0  0  0  0  0  0  0  0
    1.9690   -1.5930    1.3050 H   0  0  0  0  0  0  0  0  0  0  0  0
    5.2950   -1.5460    1.0010 H   0  0  0  0  0  0  0  0  0  0  0  0
  1 24  1  0
  1 26  1  0
  1 25  1  0
  1  2  1  0
  2  3  1  0
  3  4  2  0
  3 22  1  0
  4 27  1  0
  4  5  1  0
  5 28  1  0
  5  6  2  0
  6  7  1  0
  6 21  1  0
  7 19  2  0
  7  8  1  0
  8  9  1  0
  9 16  2  0
  9 10  1  0
 10 11  2  0
 10 29  1  0
 11 13  1  0
 11 12  1  0
 12 30  1  0
 13 14  2  0
 13 31  1  0
 14 15  1  0
 14 16  1  0
 15 32  1  0
 16 17  1  0
 17 18  2  0
 17 19  1  0
 19 20  1  0
 20 33  1  0
 21 22  2  0
 21 34  1  0
 22 23  1  0
 23 35  1  0
M  END
>  <id>  (233) 
335

>  <scaffolds>  (233) 
['c1ccccc1', 'O=c1cc(-c2ccccc2)oc2ccccc12', 'O=c1ccoc2ccccc12']

>  <name>  (233) 
Tamarixetin

>  <formula>  (233) 
C16H12O7

>  <SMILES>  (233) 
COc3ccc(c2oc1cc(O)cc(O)c1c(=O)c2O)cc3O

>  <ChEMBL_id>  (233) 


>  <ZINC_id>  (233) 


>  <PubChem_id>  (233) 


>  <DrugBank_id>  (233) 


>  <CAS_no>  (233) 
603-61-2

>  <references>  (233) 
[{'journal': {'name': 'Journal of Natural Products', 'id': 5}, 'title': 'Bioactive Diterpenes and Other Constituents of Croton steenkampianus', 'year': 2008, 'start_page': 1919, 'volume': 71, 'issue': 11, 'doi': '10.1021/np800333r', 'isbn': '', 'despositor': {'code': 'NFA', 'first_name': 'Ngonidzashe', 'last_name': 'Faya', 'id': 21}, 'refauthors_set': [{'author': {'first_name': 'Adeboye', 'initials': 'AM', 'last_name': 'Adelekan', 'id': 461}, 'first_author': True, 'id': 631}, {'author': {'first_name': 'Erwin', 'initials': 'EA', 'last_name': 'Prozesky', 'id': 462}, 'first_author': None, 'id': 1224}, {'author': {'first_name': 'Ahmed', 'initials': 'AA', 'last_name': 'Hussein', 'id': 440}, 'first_author': None, 'id': 1225}, {'author': {'first_name': 'Luis', 'initials': 'D', 'last_name': 'Urena', 'id': 464}, 'first_author': None, 'id': 1226}, {'author': {'first_name': 'David', 'initials': 'DC', 'last_name': 'Liles', 'id': 466}, 'first_author': None, 'id': 1227}, {'author': {'first_name': 'Jacobus', 'initials': 'JM', 'last_name': 'Meyer', 'id': 716}, 'first_author': None, 'id': 1228}, {'author': {'first_name': 'Benjamin', 'initials': 'B', 'last_name': 'Rodriguez', 'id': 472}, 'first_author': None, 'id': 1229}], 'id': 237}]

>  <classifications>  (233) 
[{'classification': 'Flavonoids', 'id': 776}, {'classification': 'Flavonoids (Classyfire)', 'id': 941}]

>  <molecular_mass>  (233) 
316.26

$$$$
SANC00336_minRM1.pdb
     RDKit          3D

 38 40  0  0  1  0  0  0  0  0999 V2000
   -1.8680   -3.4220   -0.7190 C   0  0  0  0  0  0  0  0  0  0  0  0
   -1.3130   -2.1280   -0.7370 O   0  0  0  0  0  0  0  0  0  0  0  0
   -2.0470   -1.1140   -0.2240 C   0  0  0  0  0  0  0  0  0  0  0  0
   -3.2510   -1.2820    0.4570 C   0  0  0  0  0  0  0  0  0  0  0  0
   -3.8810   -0.1410    0.9660 C   0  0  0  0  0  0  0  0  0  0  0  0
   -5.0350   -0.2040    1.6660 O   0  0  0  0  0  0  0  0  0  0  0  0
   -3.3630    1.1440    0.8040 C   0  0  0  0  0  0  0  0  0  0  0  0
   -2.1600    1.2620    0.1090 C   0  0  0  0  0  0  0  0  0  0  0  0
   -1.7000    2.5340   -0.0130 O   0  0  0  0  0  0  0  0  0  0  0  0
   -0.7110    2.7420   -0.9950 C   0  0  0  0  0  0  0  0  0  0  0  0
    0.4160    1.7160   -0.9010 C   0  0  1  0  0  0  0  0  0  0  0  0
    1.1710    1.9280   -1.7000 H   0  0  0  0  0  0  0  0  0  0  0  0
    1.1020    1.7620    0.4670 C   0  0  0  0  0  0  0  0  0  0  0  0
    2.2930    0.8640    0.4500 C   0  0  0  0  0  0  0  0  0  0  0  0
    2.1470   -0.4920    0.7280 C   0  0  0  0  0  0  0  0  0  0  0  0
    3.2470   -1.3370    0.6990 C   0  0  0  0  0  0  0  0  0  0  0  0
    4.4980   -0.8010    0.3880 C   0  0  0  0  0  0  0  0  0  0  0  0
    5.6290   -1.5570    0.3900 O   0  0  0  0  0  0  0  0  0  0  0  0
    4.6630    0.5570    0.1110 C   0  0  0  0  0  0  0  0  0  0  0  0
    3.5500    1.3840    0.1480 C   0  0  0  0  0  0  0  0  0  0  0  0
   -0.1960    0.3440   -1.0960 C   0  0  0  0  0  0  0  0  0  0  0  0
    0.3450   -0.5070   -1.7710 O   0  0  0  0  0  0  0  0  0  0  0  0
   -1.4710    0.1570   -0.4040 C   0  0  0  0  0  0  0  0  0  0  0  0
   -1.1070   -4.0160   -1.2540 H   0  0  0  0  0  0  0  0  0  0  0  0
   -1.9820   -3.8280    0.3000 H   0  0  0  0  0  0  0  0  0  0  0  0
   -2.8270   -3.4980   -1.2570 H   0  0  0  0  0  0  0  0  0  0  0  0
   -3.7040   -2.2620    0.6030 H   0  0  0  0  0  0  0  0  0  0  0  0
   -5.3970   -1.0990    1.6070 H   0  0  0  0  0  0  0  0  0  0  0  0
   -3.8800    2.0210    1.2020 H   0  0  0  0  0  0  0  0  0  0  0  0
   -1.1720    2.7380   -2.0090 H   0  0  0  0  0  0  0  0  0  0  0  0
   -0.3680    3.7800   -0.7970 H   0  0  0  0  0  0  0  0  0  0  0  0
    1.3860    2.8070    0.7190 H   0  0  0  0  0  0  0  0  0  0  0  0
    0.3960    1.4790    1.2780 H   0  0  0  0  0  0  0  0  0  0  0  0
    1.1630   -0.9000    0.9780 H   0  0  0  0  0  0  0  0  0  0  0  0
    3.1280   -2.4000    0.9180 H   0  0  0  0  0  0  0  0  0  0  0  0
    5.4040   -2.4230    0.0400 H   0  0  0  0  0  0  0  0  0  0  0  0
    5.6530    0.9560   -0.1250 H   0  0  0  0  0  0  0  0  0  0  0  0
    3.6700    2.4540   -0.0620 H   0  0  0  0  0  0  0  0  0  0  0  0
  1 26  1  0
  1 24  1  0
  1  2  1  0
  1 25  1  0
  2  3  1  0
  3 23  2  0
  3  4  1  0
  4 27  1  0
  4  5  2  0
  5  7  1  0
  5  6  1  0
  6 28  1  0
  7  8  2  0
  7 29  1  0
  8 23  1  0
  8  9  1  0
  9 10  1  0
 10 30  1  0
 10 11  1  0
 10 31  1  0
 11 12  1  6
 11 21  1  0
 11 13  1  0
 13 14  1  0
 13 32  1  0
 13 33  1  0
 14 20  2  0
 14 15  1  0
 15 16  2  0
 15 34  1  0
 16 17  1  0
 16 35  1  0
 17 19  2  0
 17 18  1  0
 18 36  1  0
 19 37  1  0
 19 20  1  0
 20 38  1  0
 21 22  2  0
 21 23  1  0
M  END
>  <id>  (234) 
336

>  <scaffolds>  (234) 
['c1ccccc1', 'O=C1c2ccccc2OCC1Cc1ccccc1', 'O=C(CCc1ccccc1)c1ccccc1']

>  <name>  (234) 
4'-Demethyl-5-O-methyl-3,9-dihydroeucomin

>  <formula>  (234) 
C17H16O5

>  <SMILES>  (234) 
COc2cc(O)cc3OC[C@@H](Cc1ccc(O)cc1)C(=O)c23

>  <ChEMBL_id>  (234) 


>  <ZINC_id>  (234) 


>  <PubChem_id>  (234) 


>  <DrugBank_id>  (234) 


>  <CAS_no>  (234) 
27245-81-4

>  <references>  (234) 
[{'journal': {'name': 'Phytochemistry: Advances in Research (Book)', 'id': 13}, 'title': 'Chapter 3: The phytochemistry and ethnobotany of the southern African genus Eucomis (Hyacinthaceae: Hyacinthoideae)', 'year': 2006, 'start_page': 69, 'volume': None, 'issue': None, 'doi': '', 'isbn': '81-308-0034-9', 'despositor': {'code': 'rah', 'first_name': 'Rowan', 'last_name': 'Hatherley', 'id': 20}, 'refauthors_set': [{'author': {'first_name': 'Chantal', 'initials': 'C', 'last_name': 'Koorbanally', 'id': 523}, 'first_author': True, 'id': 851}, {'author': {'first_name': 'Neil', 'initials': 'NR', 'last_name': 'Crouch', 'id': 524}, 'first_author': False, 'id': 852}, {'author': {'first_name': 'Dulcie', 'initials': 'DA', 'last_name': 'Mulholland', 'id': 525}, 'first_author': False, 'id': 853}], 'id': 259}, {'journal': {'name': 'Experientia', 'id': 14}, 'title': "The homo-isoflavones III. isolation and structure of punctatin, 3,9-dihydro-punctatin, 4'-O-methyl-3,9-dihydro-punctatin, 4'-demethyl-eucomin and 4'-demethyl-5-O-methyl-3,9-dihydro-eucomin", 'year': 1970, 'start_page': 472, 'volume': 26, 'issue': 5, 'doi': '10.1007/BF01898447', 'isbn': '1420-9071', 'despositor': {'code': 'rah', 'first_name': 'Rowan', 'last_name': 'Hatherley', 'id': 20}, 'refauthors_set': [{'author': {'first_name': 'Christoph', 'initials': 'C', 'last_name': 'Tamm', 'id': 543}, 'first_author': False, 'id': 730}, {'author': {'first_name': '', 'initials': 'RE', 'last_name': 'Finckh', 'id': 545}, 'first_author': True, 'id': 731}], 'id': 263}, {'journal': {'name': 'Biochemical Systematics and Ecology', 'id': 24}, 'title': 'Coincident isolation of a novel homoisoflavonoid from Resnova humifusa and Eucomis montana (Hyacinthoideae: Hyacinthaceae)', 'year': 2006, 'start_page': 114, 'volume': 34, 'issue': None, 'doi': '10.1016/j.bse.2005.08.003', 'isbn': '', 'despositor': {'code': 'rah', 'first_name': 'Rowan', 'last_name': 'Hatherley', 'id': 20}, 'refauthors_set': [{'author': {'first_name': 'Chantal', 'initials': 'C', 'last_name': 'Koorbanally', 'id': 523}, 'first_author': True, 'id': 854}, {'author': {'first_name': 'Neil', 'initials': 'NR', 'last_name': 'Crouch', 'id': 524}, 'first_author': False, 'id': 855}, {'author': {'first_name': 'Avinash', 'initials': 'A', 'last_name': 'Harilal', 'id': 624}, 'first_author': False, 'id': 856}, {'author': {'first_name': 'Bavani', 'initials': 'B', 'last_name': 'Pillay', 'id': 625}, 'first_author': False, 'id': 857}, {'author': {'first_name': 'Dulcie', 'initials': 'DA', 'last_name': 'Mulholland', 'id': 525}, 'first_author': False, 'id': 858}], 'id': 286}, {'journal': {'name': 'South African Journal of Botany', 'id': 1}, 'title': 'Homoisoflavanones and spirocyclic nortriterpenoids from three Eucomis species: E. comosa, E. schiffii and E. pallidiflora subsp. pole-evansii (Hyacinthaceae)', 'year': 2006, 'start_page': 428, 'volume': 72, 'issue': None, 'doi': '10.1016/j.sajb.2005.12.006', 'isbn': '', 'despositor': {'code': 'rah', 'first_name': 'Rowan', 'last_name': 'Hatherley', 'id': 20}, 'refauthors_set': [{'author': {'first_name': 'Chantal', 'initials': 'C', 'last_name': 'Koorbanally', 'id': 523}, 'first_author': True, 'id': 1034}, {'author': {'first_name': 'Neil', 'initials': 'NR', 'last_name': 'Crouch', 'id': 524}, 'first_author': None, 'id': 1035}, {'author': {'first_name': 'Angela', 'initials': 'A', 'last_name': 'Langlois', 'id': 712}, 'first_author': None, 'id': 1036}, {'author': {'first_name': 'Karen', 'initials': 'K', 'last_name': 'Du Toit', 'id': 713}, 'first_author': None, 'id': 1037}, {'author': {'first_name': 'Dulcie', 'initials': 'DA', 'last_name': 'Mulholland', 'id': 525}, 'first_author': None, 'id': 1038}, {'author': {'first_name': 'Siegfried', 'initials': 'SE', 'last_name': 'Drewes', 'id': 613}, 'first_author': None, 'id': 1039}], 'id': 344}]

>  <classifications>  (234) 
[{'classification': 'Flavonoids', 'id': 776}, {'classification': 'Homoisoflavonoid', 'id': 783}, {'classification': 'Homoisoflavonoids (Classyfire)', 'id': 964}]

>  <molecular_mass>  (234) 
300.31

$$$$
SANC00337_minRM1.pdb
     RDKit          3D

 35 37  0  0  0  0  0  0  0  0999 V2000
   -5.2880   -0.3740    1.1330 C   0  0  0  0  0  0  0  0  0  0  0  0
   -4.7020   -0.0160   -0.0910 O   0  0  0  0  0  0  0  0  0  0  0  0
   -3.3690    0.2780    0.0100 C   0  0  0  0  0  0  0  0  0  0  0  0
   -2.9590    1.6110   -0.1230 C   0  0  0  0  0  0  0  0  0  0  0  0
   -3.8190    2.6370   -0.2480 O   0  0  0  0  0  0  0  0  0  0  0  0
   -1.6030    1.9850   -0.1720 C   0  0  0  0  0  0  0  0  0  0  0  0
   -0.6800    0.9490   -0.0600 C   0  0  0  0  0  0  0  0  0  0  0  0
    0.6280    1.3620   -0.0790 O   0  0  0  0  0  0  0  0  0  0  0  0
    1.6030    0.4070   -0.0520 C   0  0  0  0  0  0  0  0  0  0  0  0
    2.9160    0.8730   -0.0480 C   0  0  0  0  0  0  0  0  0  0  0  0
    3.2130    2.1870   -0.2250 O   0  0  0  0  0  0  0  0  0  0  0  0
    3.1180    2.9180    0.9750 C   0  0  0  0  0  0  0  0  0  0  0  0
    3.9570   -0.0830    0.0260 C   0  0  0  0  0  0  0  0  0  0  0  0
    5.2260    0.3350   -0.0650 O   0  0  0  0  0  0  0  0  0  0  0  0
    3.7150   -1.4470    0.0990 C   0  0  0  0  0  0  0  0  0  0  0  0
    2.3820   -1.8790    0.1120 C   0  0  0  0  0  0  0  0  0  0  0  0
    2.2030   -3.1930    0.2090 O   0  0  0  0  0  0  0  0  0  0  0  0
    1.3190   -0.9560    0.0610 C   0  0  0  0  0  0  0  0  0  0  0  0
   -0.0390   -1.4270    0.1130 C   0  0  0  0  0  0  0  0  0  0  0  0
   -0.3330   -2.6220    0.2800 O   0  0  0  0  0  0  0  0  0  0  0  0
   -1.0360   -0.3980    0.0590 C   0  0  0  0  0  0  0  0  0  0  0  0
   -2.4040   -0.7340    0.0690 C   0  0  0  0  0  0  0  0  0  0  0  0
   -2.8360   -1.9930    0.1600 O   0  0  0  0  0  0  0  0  0  0  0  0
   -5.2930    0.4670    1.8520 H   0  0  0  0  0  0  0  0  0  0  0  0
   -6.3240   -0.6360    0.8710 H   0  0  0  0  0  0  0  0  0  0  0  0
   -4.8070   -1.2310    1.6260 H   0  0  0  0  0  0  0  0  0  0  0  0
   -4.7440    2.3000   -0.3460 H   0  0  0  0  0  0  0  0  0  0  0  0
   -1.3040    3.0310   -0.3060 H   0  0  0  0  0  0  0  0  0  0  0  0
    2.1160    2.8880    1.4470 H   0  0  0  0  0  0  0  0  0  0  0  0
    3.8930    2.6640    1.7330 H   0  0  0  0  0  0  0  0  0  0  0  0
    3.2930    3.9540    0.6220 H   0  0  0  0  0  0  0  0  0  0  0  0
    5.4370    1.0880    0.3440 H   0  0  0  0  0  0  0  0  0  0  0  0
    4.5420   -2.1690    0.0650 H   0  0  0  0  0  0  0  0  0  0  0  0
    1.2210   -3.4010    0.2290 H   0  0  0  0  0  0  0  0  0  0  0  0
   -2.0690   -2.6040    0.2070 H   0  0  0  0  0  0  0  0  0  0  0  0
  1  2  1  0
  1 25  1  0
  1 26  1  0
  1 24  1  0
  2  3  1  0
  3  4  2  0
  3 22  1  0
  4  5  1  0
  4  6  1  0
  5 27  1  0
  6 28  1  0
  6  7  2  0
  7  8  1  0
  7 21  1  0
  8  9  1  0
  9 10  2  0
  9 18  1  0
 10 11  1  0
 10 13  1  0
 11 12  1  0
 12 31  1  0
 12 29  1  0
 12 30  1  0
 13 14  1  0
 13 15  2  0
 14 32  1  0
 15 33  1  0
 15 16  1  0
 16 18  2  0
 16 17  1  0
 17 34  1  0
 18 19  1  0
 19 21  1  0
 19 20  2  0
 21 22  2  0
 22 23  1  0
 23 35  1  0
M  END
>  <id>  (235) 
337

>  <scaffolds>  (235) 
['c1ccccc1', 'O=c1c2ccccc2oc2ccccc12', 'O=c1ccoc2ccccc12']

>  <name>  (235) 
1,3,6,8-tetrahydroxy-2,5-dimethoxyxanthone

>  <formula>  (235) 
C15H12O8

>  <SMILES>  (235) 
COc3c(O)cc2oc1c(OC)c(O)cc(O)c1c(=O)c2c3O

>  <ChEMBL_id>  (235) 


>  <ZINC_id>  (235) 


>  <PubChem_id>  (235) 


>  <DrugBank_id>  (235) 


>  <CAS_no>  (235) 
1140921-15-8

>  <references>  (235) 
[{'journal': {'name': 'Journal of Ethnopharmacology', 'id': 7}, 'title': 'Novel xanthones from Securidaca longepedunculata with activity against erectile dysfunction', 'year': 2008, 'start_page': 599, 'volume': 119, 'issue': None, 'doi': '10.1016/j.jep.2008.06.018', 'isbn': '', 'despositor': {'code': 'NFA', 'first_name': 'Ngonidzashe', 'last_name': 'Faya', 'id': 21}, 'refauthors_set': [{'author': {'first_name': 'Jacobus', 'initials': 'JJM', 'last_name': 'Meyer', 'id': 467}, 'first_author': True, 'id': 835}, {'author': {'first_name': '', 'initials': 'NC', 'last_name': 'Rakuambo', 'id': 609}, 'first_author': None, 'id': 1246}, {'author': {'first_name': 'Ahmed', 'initials': 'AA', 'last_name': 'Hussein', 'id': 440}, 'first_author': None, 'id': 1247}], 'id': 288}]

>  <classifications>  (235) 
[{'classification': 'Xanthone', 'id': 846}, {'classification': 'Benzopyrans (Classyfire)', 'id': 966}]

>  <molecular_mass>  (235) 
320.25

$$$$
SANC00338_minRM1.pdb
     RDKit          3D

 41 45  0  0  1  0  0  0  0  0999 V2000
    1.8310   -0.5150   -1.7090 H   0  0  0  0  0  0  0  0  0  0  0  0
    2.2520   -0.6820   -0.6830 C   0  0  2  0  0  0  0  0  0  0  0  0
    3.7820   -0.6540   -0.7710 C   0  0  0  0  0  0  0  0  0  0  0  0
    4.4130    0.6020   -0.2960 C   0  0  0  0  0  0  0  0  0  0  0  0
    3.7440    1.6690    0.1230 C   0  0  0  0  0  0  0  0  0  0  0  0
    2.2450    1.7210    0.1450 C   0  0  1  0  0  0  0  0  0  0  0  0
    1.9150    2.3890    0.9910 H   0  0  0  0  0  0  0  0  0  0  0  0
    1.7530    2.1920   -1.0800 O   0  0  0  0  0  0  0  0  0  0  0  0
    1.6500    0.3240    0.3230 C   0  0  2  0  0  0  0  0  0  0  0  0
    2.0090   -0.3070    1.6780 C   0  0  0  0  0  0  0  0  0  0  0  0
    2.0080   -1.8200    1.3790 C   0  0  0  0  0  0  0  0  0  0  0  0
    1.8150   -2.0040   -0.1020 N   0  0  0  0  0  0  0  0  0  0  0  0
    0.3680   -2.1650   -0.4150 C   0  0  0  0  0  0  0  0  0  0  0  0
   -0.4530   -0.9430   -0.1200 C   0  0  0  0  0  0  0  0  0  0  0  0
   -1.8550   -1.0570   -0.2180 C   0  0  0  0  0  0  0  0  0  0  0  0
   -2.3800   -2.2430   -0.6400 O   0  0  0  0  0  0  0  0  0  0  0  0
   -3.3860   -2.7590    0.2030 C   0  0  0  0  0  0  0  0  0  0  0  0
   -2.6030    0.0730    0.0250 C   0  0  0  0  0  0  0  0  0  0  0  0
   -3.9620    0.2480    0.0060 O   0  0  0  0  0  0  0  0  0  0  0  0
   -4.1910    1.6190    0.3250 C   0  0  0  0  0  0  0  0  0  0  0  0
   -2.9330    2.2470    0.5580 O   0  0  0  0  0  0  0  0  0  0  0  0
   -1.9780    1.2840    0.3600 C   0  0  0  0  0  0  0  0  0  0  0  0
   -0.6150    1.4240    0.4590 C   0  0  0  0  0  0  0  0  0  0  0  0
    0.1490    0.2750    0.2000 C   0  0  0  0  0  0  0  0  0  0  0  0
    4.2500   -1.5080   -0.2330 H   0  0  0  0  0  0  0  0  0  0  0  0
    4.0910   -0.8250   -1.8240 H   0  0  0  0  0  0  0  0  0  0  0  0
    5.5100    0.6030   -0.3080 H   0  0  0  0  0  0  0  0  0  0  0  0
    4.2610    2.5710    0.4640 H   0  0  0  0  0  0  0  0  0  0  0  0
    2.2490    2.9840   -1.3090 H   0  0  0  0  0  0  0  0  0  0  0  0
    2.9950    0.0380    2.0480 H   0  0  0  0  0  0  0  0  0  0  0  0
    1.2990   -0.0280    2.4790 H   0  0  0  0  0  0  0  0  0  0  0  0
    2.9740   -2.2990    1.6530 H   0  0  0  0  0  0  0  0  0  0  0  0
    1.2520   -2.3620    1.9870 H   0  0  0  0  0  0  0  0  0  0  0  0
    0.2740   -2.4290   -1.4950 H   0  0  0  0  0  0  0  0  0  0  0  0
   -0.0320   -3.0560    0.1230 H   0  0  0  0  0  0  0  0  0  0  0  0
   -3.0550   -2.8820    1.2460 H   0  0  0  0  0  0  0  0  0  0  0  0
   -4.3190   -2.1700    0.1940 H   0  0  0  0  0  0  0  0  0  0  0  0
   -3.5960   -3.7540   -0.2210 H   0  0  0  0  0  0  0  0  0  0  0  0
   -4.7070    2.1170   -0.5250 H   0  0  0  0  0  0  0  0  0  0  0  0
   -4.8140    1.6870    1.2440 H   0  0  0  0  0  0  0  0  0  0  0  0
   -0.1800    2.3910    0.7120 H   0  0  0  0  0  0  0  0  0  0  0  0
  2  1  1  6
  2  3  1  0
  2 12  1  0
  2  9  1  0
  3 26  1  0
  3  4  1  0
  3 25  1  0
  4 27  1  0
  4  5  2  0
  5  6  1  0
  5 28  1  0
  6  8  1  0
  6  9  1  0
  6  7  1  1
  8 29  1  0
  9 24  1  0
  9 10  1  1
 10 11  1  0
 10 30  1  0
 10 31  1  0
 11 32  1  0
 11 33  1  0
 12 11  1  0
 12 13  1  0
 13 34  1  0
 13 14  1  0
 13 35  1  0
 14 15  2  0
 14 24  1  0
 15 16  1  0
 15 18  1  0
 16 17  1  0
 17 38  1  0
 17 37  1  0
 17 36  1  0
 18 19  1  0
 18 22  2  0
 19 20  1  0
 20 39  1  0
 20 21  1  0
 20 40  1  0
 21 22  1  0
 22 23  1  0
 23 24  2  0
 23 41  1  0
M  END
>  <id>  (236) 
338

>  <scaffolds>  (236) 
['c1ccccc1', 'C1=CCCCC1', 'C1=CCC23CCN(Cc4cc5c(cc42)OCO5)C3C1', 'C1CCNC1', 'c1ccc2c(c1)OCO2']

>  <name>  (236) 
Buphanamine

>  <formula>  (236) 
C17H19NO4

>  <SMILES>  (236) 
[H][C@@]12CC=C[C@@H](O)[C@]15CC[N@]2Cc4c(OC)c3OCOc3cc45

>  <ChEMBL_id>  (236) 
CHEMBL1173111

>  <ZINC_id>  (236) 


>  <PubChem_id>  (236) 
 222152

>  <DrugBank_id>  (236) 


>  <CAS_no>  (236) 
6793-24-4

>  <references>  (236) 
[{'journal': {'name': 'Journal of Ethnopharmacology', 'id': 7}, 'title': 'Alkaloids from Boophane disticha with affinity to the serotonin transporter in rat brain', 'year': 2005, 'start_page': 367, 'volume': 98, 'issue': None, 'doi': '10.1016/j.jep.2005.01.037', 'isbn': '', 'despositor': {'code': 'DLP', 'first_name': 'David', 'last_name': 'Penkler', 'id': 23}, 'refauthors_set': [{'author': {'first_name': 'Mikkel', 'initials': 'M', 'last_name': 'Sandager', 'id': 607}, 'first_author': True, 'id': 830}, {'author': {'first_name': 'Nicolaj', 'initials': 'ND', 'last_name': 'Nielsena', 'id': 608}, 'first_author': False, 'id': 831}, {'author': {'first_name': 'Gary ', 'initials': 'GI', 'last_name': 'Stafford', 'id': 595}, 'first_author': False, 'id': 832}, {'author': {'first_name': 'Johannes', 'initials': 'J', 'last_name': 'Van Staden', 'id': 489}, 'first_author': False, 'id': 833}, {'author': {'first_name': 'Anna', 'initials': 'AK', 'last_name': 'Jager', 'id': 610}, 'first_author': False, 'id': 834}], 'id': 287}]

>  <classifications>  (236) 
[{'classification': 'Alkaloid', 'id': 738}, {'classification': 'Amaryllidaceae', 'id': 741}, {'classification': 'Quinolines and derivatives (Classyfire)', 'id': 948}]

>  <molecular_mass>  (236) 
301.34

$$$$
SANC00339_minRM1.pdb
     RDKit          3D

 44 48  0  0  1  0  0  0  0  0999 V2000
    1.4750   -0.9170   -1.3920 H   0  0  0  0  0  0  0  0  0  0  0  0
    1.7640   -0.9300   -0.3100 C   0  0  2  0  0  0  0  0  0  0  0  0
    3.2870   -1.0240   -0.2110 C   0  0  0  0  0  0  0  0  0  0  0  0
    3.9210    0.3160   -0.3850 C   0  0  0  0  0  0  0  0  0  0  0  0
    5.2420    0.1410   -0.6890 O   0  0  0  0  0  0  0  0  0  0  0  0
    6.0270    1.2910   -0.8610 C   0  0  0  0  0  0  0  0  0  0  0  0
    3.2990    1.4860   -0.2260 C   0  0  0  0  0  0  0  0  0  0  0  0
    1.8450    1.5920    0.0550 C   0  0  0  0  0  0  0  0  0  0  0  0
    1.1720    0.2840    0.4430 C   0  0  2  0  0  0  0  0  0  0  0  0
    1.3730   -0.1290    1.9110 C   0  0  0  0  0  0  0  0  0  0  0  0
    1.2130   -1.6630    1.8740 C   0  0  0  0  0  0  0  0  0  0  0  0
    1.1610   -2.0950    0.4310 N   0  0  0  0  0  0  0  0  0  0  0  0
   -0.2540   -2.2080   -0.0190 C   0  0  0  0  0  0  0  0  0  0  0  0
   -0.9860   -0.8970   -0.0280 C   0  0  0  0  0  0  0  0  0  0  0  0
   -0.3200    0.3060    0.2090 C   0  0  0  0  0  0  0  0  0  0  0  0
   -1.0160    1.5250    0.2770 C   0  0  0  0  0  0  0  0  0  0  0  0
   -2.3660    1.4710    0.0350 C   0  0  0  0  0  0  0  0  0  0  0  0
   -3.2560    2.5130    0.0260 O   0  0  0  0  0  0  0  0  0  0  0  0
   -4.5290    1.9550   -0.2930 C   0  0  0  0  0  0  0  0  0  0  0  0
   -4.3760    0.5450   -0.4560 O   0  0  0  0  0  0  0  0  0  0  0  0
   -3.0480    0.2770   -0.2490 C   0  0  0  0  0  0  0  0  0  0  0  0
   -2.3740   -0.9220   -0.2820 C   0  0  0  0  0  0  0  0  0  0  0  0
   -2.9770   -2.1330   -0.4490 O   0  0  0  0  0  0  0  0  0  0  0  0
   -3.8140   -2.2120   -1.5800 C   0  0  0  0  0  0  0  0  0  0  0  0
    3.6390   -1.4470    0.7560 H   0  0  0  0  0  0  0  0  0  0  0  0
    3.6610   -1.7530   -0.9650 H   0  0  0  0  0  0  0  0  0  0  0  0
    5.6930    1.9260   -1.6990 H   0  0  0  0  0  0  0  0  0  0  0  0
    6.1020    1.9140    0.0460 H   0  0  0  0  0  0  0  0  0  0  0  0
    7.0230    0.8910   -1.1020 H   0  0  0  0  0  0  0  0  0  0  0  0
    3.8060    2.4490   -0.3260 H   0  0  0  0  0  0  0  0  0  0  0  0
    1.6870    2.3490    0.8540 H   0  0  0  0  0  0  0  0  0  0  0  0
    1.3630    2.0150   -0.8570 H   0  0  0  0  0  0  0  0  0  0  0  0
    2.3680    0.1800    2.2850 H   0  0  0  0  0  0  0  0  0  0  0  0
    0.6530    0.3610    2.5930 H   0  0  0  0  0  0  0  0  0  0  0  0
    2.0700   -2.1870    2.3500 H   0  0  0  0  0  0  0  0  0  0  0  0
    0.3280   -1.9980    2.4580 H   0  0  0  0  0  0  0  0  0  0  0  0
   -0.2640   -2.6570   -1.0400 H   0  0  0  0  0  0  0  0  0  0  0  0
   -0.7820   -2.9560    0.6180 H   0  0  0  0  0  0  0  0  0  0  0  0
   -0.5420    2.4770    0.5180 H   0  0  0  0  0  0  0  0  0  0  0  0
   -5.2430    2.1600    0.5360 H   0  0  0  0  0  0  0  0  0  0  0  0
   -4.9000    2.3980   -1.2430 H   0  0  0  0  0  0  0  0  0  0  0  0
   -4.7630   -1.6660   -1.4530 H   0  0  0  0  0  0  0  0  0  0  0  0
   -3.3300   -1.8710   -2.5100 H   0  0  0  0  0  0  0  0  0  0  0  0
   -4.0300   -3.2920   -1.6680 H   0  0  0  0  0  0  0  0  0  0  0  0
  2  1  1  6
  2  3  1  0
  2 12  1  0
  2  9  1  0
  3 26  1  0
  3  4  1  0
  3 25  1  0
  4  5  1  0
  4  7  2  0
  5  6  1  0
  6 27  1  0
  6 29  1  0
  6 28  1  0
  7 30  1  0
  7  8  1  0
  8 32  1  0
  9  8  1  1
  8 31  1  0
  9 15  1  0
  9 10  1  0
 10 11  1  0
 10 33  1  0
 10 34  1  0
 11 35  1  0
 11 36  1  0
 12 11  1  0
 12 13  1  0
 13 37  1  0
 13 14  1  0
 13 38  1  0
 14 22  2  0
 14 15  1  0
 15 16  2  0
 16 17  1  0
 16 39  1  0
 17 21  2  0
 17 18  1  0
 18 19  1  0
 19 41  1  0
 19 20  1  0
 19 40  1  0
 20 21  1  0
 21 22  1  0
 22 23  1  0
 23 24  1  0
 24 43  1  0
 24 44  1  0
 24 42  1  0
M  END
>  <id>  (237) 
339

>  <scaffolds>  (237) 
['c1ccccc1', 'C1=CCCCC1', 'C1=CCC23CCN(Cc4cc5c(cc42)OCO5)C3C1', 'C1CCNC1', 'c1ccc2c(c1)OCO2']

>  <name>  (237) 
Buphanidrine

>  <formula>  (237) 
C18H21NO4

>  <SMILES>  (237) 
[H][C@@]12CC(OC)=CC[C@]13CC[N@]2Cc5c3cc4OCOc4c5OC

>  <ChEMBL_id>  (237) 
CHEMBL2009061

>  <ZINC_id>  (237) 


>  <PubChem_id>  (237) 
407581

>  <DrugBank_id>  (237) 


>  <CAS_no>  (237) 
1162-10-3

>  <references>  (237) 
[{'journal': {'name': 'Journal of Ethnopharmacology', 'id': 7}, 'title': 'Alkaloids from Boophane disticha with affinity to the serotonin transporter in rat brain', 'year': 2005, 'start_page': 367, 'volume': 98, 'issue': None, 'doi': '10.1016/j.jep.2005.01.037', 'isbn': '', 'despositor': {'code': 'DLP', 'first_name': 'David', 'last_name': 'Penkler', 'id': 23}, 'refauthors_set': [{'author': {'first_name': 'Mikkel', 'initials': 'M', 'last_name': 'Sandager', 'id': 607}, 'first_author': True, 'id': 830}, {'author': {'first_name': 'Nicolaj', 'initials': 'ND', 'last_name': 'Nielsena', 'id': 608}, 'first_author': False, 'id': 831}, {'author': {'first_name': 'Gary ', 'initials': 'GI', 'last_name': 'Stafford', 'id': 595}, 'first_author': False, 'id': 832}, {'author': {'first_name': 'Johannes', 'initials': 'J', 'last_name': 'Van Staden', 'id': 489}, 'first_author': False, 'id': 833}, {'author': {'first_name': 'Anna', 'initials': 'AK', 'last_name': 'Jager', 'id': 610}, 'first_author': False, 'id': 834}], 'id': 287}, {'journal': {'name': 'Journal of Ethnopharmacology', 'id': 7}, 'title': 'Antibacterial activity of crinane alkaloids from Boophone disticha (Amaryllidaceae)', 'year': 2012, 'start_page': 405, 'volume': 140, 'issue': None, 'doi': '10.1016/j.jep.2012.01.037', 'isbn': '', 'despositor': {'code': 'DLP', 'first_name': 'David', 'last_name': 'Penkler', 'id': 23}, 'refauthors_set': [{'author': {'first_name': 'Lee', 'initials': 'L', 'last_name': 'Cheesman', 'id': 619}, 'first_author': True, 'id': 843}, {'author': {'first_name': 'Jerald', 'initials': 'JJ', 'last_name': 'Nair', 'id': 620}, 'first_author': False, 'id': 844}, {'author': {'first_name': 'Johannes', 'initials': 'J', 'last_name': 'Van Staden', 'id': 489}, 'first_author': False, 'id': 845}], 'id': 292}]

>  <classifications>  (237) 
[{'classification': 'Alkaloid', 'id': 738}, {'classification': 'Amaryllidaceae', 'id': 741}, {'classification': 'Quinolines and derivatives (Classyfire)', 'id': 948}]

>  <molecular_mass>  (237) 
315.36

$$$$
SANC00340_minRM1.pdb
     RDKit          3D

 42 44  0  0  0  0  0  0  0  0999 V2000
   -5.8850   -0.8290    1.0920 C   0  0  0  0  0  0  0  0  0  0  0  0
   -5.3640   -0.3530   -0.1300 O   0  0  0  0  0  0  0  0  0  0  0  0
   -4.0680    0.0680   -0.0190 C   0  0  0  0  0  0  0  0  0  0  0  0
   -3.8010    1.4450   -0.0710 C   0  0  0  0  0  0  0  0  0  0  0  0
   -4.7630    2.3800   -0.1320 O   0  0  0  0  0  0  0  0  0  0  0  0
   -2.4880    1.9390   -0.0810 C   0  0  0  0  0  0  0  0  0  0  0  0
   -1.4570    1.0110   -0.0290 C   0  0  0  0  0  0  0  0  0  0  0  0
   -0.2040    1.5540   -0.0180 O   0  0  0  0  0  0  0  0  0  0  0  0
    0.8620    0.7050    0.0050 C   0  0  0  0  0  0  0  0  0  0  0  0
    2.1160    1.3160   -0.0060 C   0  0  0  0  0  0  0  0  0  0  0  0
    2.2320    2.6680   -0.1460 O   0  0  0  0  0  0  0  0  0  0  0  0
    2.3050    3.3260    1.1010 C   0  0  0  0  0  0  0  0  0  0  0  0
    3.2630    0.5120    0.0190 C   0  0  0  0  0  0  0  0  0  0  0  0
    4.4840    1.1080    0.1310 O   0  0  0  0  0  0  0  0  0  0  0  0
    5.0980    1.3020   -1.1280 C   0  0  0  0  0  0  0  0  0  0  0  0
    3.1630   -0.8770    0.0100 C   0  0  0  0  0  0  0  0  0  0  0  0
    4.2950   -1.6290   -0.1150 O   0  0  0  0  0  0  0  0  0  0  0  0
    4.7600   -2.1060    1.1300 C   0  0  0  0  0  0  0  0  0  0  0  0
    1.8960   -1.4870    0.0270 C   0  0  0  0  0  0  0  0  0  0  0  0
    1.8610   -2.8220    0.0530 O   0  0  0  0  0  0  0  0  0  0  0  0
    0.7400   -0.6880    0.0330 C   0  0  0  0  0  0  0  0  0  0  0  0
   -0.5740   -1.2870    0.0460 C   0  0  0  0  0  0  0  0  0  0  0  0
   -0.7330   -2.5200    0.0720 O   0  0  0  0  0  0  0  0  0  0  0  0
   -1.6830   -0.3710    0.0160 C   0  0  0  0  0  0  0  0  0  0  0  0
   -3.0080   -0.8450    0.0080 C   0  0  0  0  0  0  0  0  0  0  0  0
   -3.3130   -2.1430    0.0480 O   0  0  0  0  0  0  0  0  0  0  0  0
   -5.3320   -1.6870    1.5100 H   0  0  0  0  0  0  0  0  0  0  0  0
   -5.9400   -0.0430    1.8670 H   0  0  0  0  0  0  0  0  0  0  0  0
   -6.9040   -1.1570    0.8350 H   0  0  0  0  0  0  0  0  0  0  0  0
   -5.6350    1.9590   -0.1060 H   0  0  0  0  0  0  0  0  0  0  0  0
   -2.2930    3.0150   -0.1310 H   0  0  0  0  0  0  0  0  0  0  0  0
    2.3970    4.3900    0.8360 H   0  0  0  0  0  0  0  0  0  0  0  0
    1.3980    3.1820    1.7120 H   0  0  0  0  0  0  0  0  0  0  0  0
    3.1830    3.0220    1.6940 H   0  0  0  0  0  0  0  0  0  0  0  0
    5.2860    0.3550   -1.6610 H   0  0  0  0  0  0  0  0  0  0  0  0
    4.5180    1.9750   -1.7800 H   0  0  0  0  0  0  0  0  0  0  0  0
    6.0600    1.7750   -0.8810 H   0  0  0  0  0  0  0  0  0  0  0  0
    5.6560   -2.6890    0.8710 H   0  0  0  0  0  0  0  0  0  0  0  0
    5.0430   -1.2920    1.8170 H   0  0  0  0  0  0  0  0  0  0  0  0
    4.0370   -2.7650    1.6380 H   0  0  0  0  0  0  0  0  0  0  0  0
    0.9260   -3.1460    0.0230 H   0  0  0  0  0  0  0  0  0  0  0  0
   -2.4960   -2.6940   -0.0030 H   0  0  0  0  0  0  0  0  0  0  0  0
  1  2  1  0
  1 29  1  0
  1 27  1  0
  1 28  1  0
  2  3  1  0
  3  4  2  0
  3 25  1  0
  4  5  1  0
  4  6  1  0
  5 30  1  0
  6 31  1  0
  6  7  2  0
  7  8  1  0
  7 24  1  0
  8  9  1  0
  9 10  2  0
  9 21  1  0
 10 11  1  0
 10 13  1  0
 11 12  1  0
 12 32  1  0
 12 34  1  0
 12 33  1  0
 13 16  2  0
 13 14  1  0
 14 15  1  0
 15 36  1  0
 15 35  1  0
 15 37  1  0
 16 17  1  0
 16 19  1  0
 17 18  1  0
 18 38  1  0
 18 40  1  0
 18 39  1  0
 19 21  2  0
 19 20  1  0
 20 41  1  0
 21 22  1  0
 22 24  1  0
 22 23  2  0
 24 25  2  0
 25 26  1  0
 26 42  1  0
M  END
>  <id>  (238) 
340

>  <scaffolds>  (238) 
['c1ccccc1', 'O=c1c2ccccc2oc2ccccc12', 'O=c1ccoc2ccccc12']

>  <name>  (238) 
1,6,8-trihydroxy-2,3,4,7-tetramethoxyxanthone

>  <formula>  (238) 
C17H16O9

>  <SMILES>  (238) 
COc3c(O)cc2oc1c(OC)c(OC)c(OC)c(O)c1c(=O)c2c3O

>  <ChEMBL_id>  (238) 


>  <ZINC_id>  (238) 


>  <PubChem_id>  (238) 


>  <DrugBank_id>  (238) 


>  <CAS_no>  (238) 
1140921-16-9

>  <references>  (238) 
[{'journal': {'name': 'Journal of Ethnopharmacology', 'id': 7}, 'title': 'Novel xanthones from Securidaca longepedunculata with activity against erectile dysfunction', 'year': 2008, 'start_page': 599, 'volume': 119, 'issue': None, 'doi': '10.1016/j.jep.2008.06.018', 'isbn': '', 'despositor': {'code': 'NFA', 'first_name': 'Ngonidzashe', 'last_name': 'Faya', 'id': 21}, 'refauthors_set': [{'author': {'first_name': 'Jacobus', 'initials': 'JJM', 'last_name': 'Meyer', 'id': 467}, 'first_author': True, 'id': 835}, {'author': {'first_name': '', 'initials': 'NC', 'last_name': 'Rakuambo', 'id': 609}, 'first_author': None, 'id': 1246}, {'author': {'first_name': 'Ahmed', 'initials': 'AA', 'last_name': 'Hussein', 'id': 440}, 'first_author': None, 'id': 1247}], 'id': 288}]

>  <classifications>  (238) 
[{'classification': 'Xanthone', 'id': 846}, {'classification': 'Benzopyrans (Classyfire)', 'id': 966}]

>  <molecular_mass>  (238) 
364.3

$$$$
SANC00341_minRM1.pdb
     RDKit          3D

 52 53  0  0  1  0  0  0  0  0999 V2000
   -1.9130    0.8230   -2.1380 H   0  0  0  0  0  0  0  0  0  0  0  0
   -2.0860    0.4820   -1.0820 C   0  0  1  0  0  0  0  0  0  0  0  0
   -3.5470    0.2680   -0.8570 C   0  0  0  0  0  0  0  0  0  0  0  0
   -4.3390   -0.1790   -1.8260 C   0  0  0  0  0  0  0  0  0  0  0  0
   -4.1170    0.5340    0.4700 C   0  0  0  0  0  0  0  0  0  0  0  0
   -5.2680    0.2940    0.7880 O   0  0  0  0  0  0  0  0  0  0  0  0
   -3.3820    1.1170    1.4610 O   0  0  0  0  0  0  0  0  0  0  0  0
   -1.9890    1.1620    1.3050 C   0  0  0  0  0  0  0  0  0  0  0  0
   -1.5710    1.5570   -0.1140 C   0  0  2  0  0  0  0  0  0  0  0  0
   -2.1480    2.8770   -0.5380 C   0  0  0  0  0  0  0  0  0  0  0  0
   -2.7920    3.7410    0.2350 C   0  0  0  0  0  0  0  0  0  0  0  0
   -0.0470    1.6850   -0.1890 C   0  0  0  0  0  0  0  0  0  0  0  0
    0.6430    0.3360    0.0390 C   0  0  2  0  0  0  0  0  0  0  0  0
    0.4620   -0.0330    1.0830 H   0  0  0  0  0  0  0  0  0  0  0  0
    2.0290    0.4850   -0.2160 O   0  0  0  0  0  0  0  0  0  0  0  0
    2.8060    1.0750    0.7320 C   0  0  0  0  0  0  0  0  0  0  0  0
    2.3090    1.4480    1.7820 O   0  0  0  0  0  0  0  0  0  0  0  0
    4.2250    1.1770    0.3450 C   0  0  0  0  0  0  0  0  0  0  0  0
    5.1080    1.5510    1.2690 C   0  0  0  0  0  0  0  0  0  0  0  0
    4.5610    0.8410   -1.0760 C   0  0  0  0  0  0  0  0  0  0  0  0
    5.8990    1.1810   -1.2920 O   0  0  0  0  0  0  0  0  0  0  0  0
    0.1720   -0.6750   -1.0170 C   0  0  1  0  0  0  0  0  0  0  0  0
    0.3890   -0.2490   -2.0350 H   0  0  0  0  0  0  0  0  0  0  0  0
    0.8680   -1.9920   -0.9030 C   0  0  0  0  0  0  0  0  0  0  0  0
    1.2920   -2.6650   -1.9710 C   0  0  0  0  0  0  0  0  0  0  0  0
    1.1350   -2.5870    0.4220 C   0  0  0  0  0  0  0  0  0  0  0  0
    2.1230   -3.2290    0.7420 O   0  0  0  0  0  0  0  0  0  0  0  0
    0.1220   -2.4040    1.3090 O   0  0  0  0  0  0  0  0  0  0  0  0
    0.2720   -2.9820    2.5890 C   0  0  0  0  0  0  0  0  0  0  0  0
   -1.3570   -0.8660   -0.8850 C   0  0  2  0  0  0  0  0  0  0  0  0
   -1.6290   -1.3080    0.1100 H   0  0  0  0  0  0  0  0  0  0  0  0
   -1.8020   -1.6760   -1.9370 O   0  0  0  0  0  0  0  0  0  0  0  0
   -3.9830   -0.3920   -2.8240 H   0  0  0  0  0  0  0  0  0  0  0  0
   -5.4020   -0.3720   -1.6980 H   0  0  0  0  0  0  0  0  0  0  0  0
   -1.6560    1.8970    2.0720 H   0  0  0  0  0  0  0  0  0  0  0  0
   -1.5580    0.1860    1.6240 H   0  0  0  0  0  0  0  0  0  0  0  0
   -1.9910    3.1150   -1.5980 H   0  0  0  0  0  0  0  0  0  0  0  0
   -3.1720    4.6830   -0.1580 H   0  0  0  0  0  0  0  0  0  0  0  0
   -3.0200    3.6290    1.2890 H   0  0  0  0  0  0  0  0  0  0  0  0
    0.2570    2.1070   -1.1710 H   0  0  0  0  0  0  0  0  0  0  0  0
    0.3030    2.4350    0.5510 H   0  0  0  0  0  0  0  0  0  0  0  0
    6.1760    1.6460    1.0850 H   0  0  0  0  0  0  0  0  0  0  0  0
    4.8370    1.7880    2.2960 H   0  0  0  0  0  0  0  0  0  0  0  0
    4.3700   -0.2430   -1.2580 H   0  0  0  0  0  0  0  0  0  0  0  0
    3.8920    1.3990   -1.7700 H   0  0  0  0  0  0  0  0  0  0  0  0
    6.1460    0.8100   -2.1470 H   0  0  0  0  0  0  0  0  0  0  0  0
    1.8020   -3.6260   -1.9190 H   0  0  0  0  0  0  0  0  0  0  0  0
    1.1670   -2.3140   -2.9900 H   0  0  0  0  0  0  0  0  0  0  0  0
   -0.5930   -2.5940    3.1480 H   0  0  0  0  0  0  0  0  0  0  0  0
    0.2320   -4.0840    2.5510 H   0  0  0  0  0  0  0  0  0  0  0  0
    1.2050   -2.6730    3.1020 H   0  0  0  0  0  0  0  0  0  0  0  0
   -1.5150   -2.5750   -1.7470 H   0  0  0  0  0  0  0  0  0  0  0  0
  2  1  1  6
  2 30  1  0
  2  3  1  0
  2  9  1  0
  3  4  2  0
  3  5  1  0
  4 33  1  0
  4 34  1  0
  5  6  2  0
  5  7  1  0
  7  8  1  0
  8  9  1  0
  8 36  1  0
  8 35  1  0
  9 10  1  6
  9 12  1  0
 10 37  1  0
 10 11  2  0
 11 38  1  0
 11 39  1  0
 12 40  1  0
 12 13  1  0
 12 41  1  0
 13 22  1  0
 13 15  1  0
 13 14  1  1
 15 16  1  0
 16 18  1  0
 16 17  2  0
 18 20  1  0
 18 19  2  0
 19 42  1  0
 19 43  1  0
 20 45  1  0
 20 21  1  0
 20 44  1  0
 21 46  1  0
 22 23  1  6
 22 24  1  0
 22 30  1  0
 24 25  2  0
 24 26  1  0
 25 48  1  0
 25 47  1  0
 26 27  2  0
 26 28  1  0
 28 29  1  0
 29 50  1  0
 29 51  1  0
 29 49  1  0
 30 32  1  0
 30 31  1  1
 32 52  1  0
M  END
>  <id>  (239) 
341

>  <scaffolds>  (239) 
['C1CCOCC1', 'C1CCCCC1', 'C=C1C(=O)OCC2CCCCC12']

>  <name>  (239) 
Vernodalol

>  <formula>  (239) 
C20H24O8

>  <SMILES>  (239) 
[H][C@]12C(=C)C(=O)OC[C@@]1(C=C)C[C@H](OC(=O)C(=C)CO)[C@@H](C(=C)C(=O)OC)[C@@H]2O

>  <ChEMBL_id>  (239) 


>  <ZINC_id>  (239) 


>  <PubChem_id>  (239) 
442318

>  <DrugBank_id>  (239) 


>  <CAS_no>  (239) 
65388-17-2

>  <references>  (239) 
[{'journal': {'name': 'Journal of Ethnopharmacology', 'id': 7}, 'title': 'Bioactive sesquiterpene lactones from the leaves of Vernonia amygdalina', 'year': 2006, 'start_page': 117, 'volume': 106, 'issue': None, 'doi': '10.1016/j.jep.2005.12.016', 'isbn': '', 'despositor': {'code': 'DLP', 'first_name': 'David', 'last_name': 'Penkler', 'id': 23}, 'refauthors_set': [{'author': {'first_name': '', 'initials': 'P', 'last_name': 'Erasto', 'id': 611}, 'first_author': True, 'id': 836}, {'author': {'first_name': '', 'initials': 'DS', 'last_name': 'Grierson', 'id': 612}, 'first_author': False, 'id': 837}, {'author': {'first_name': 'Anthonia ', 'initials': 'AF', 'last_name': 'Afolayan', 'id': 548}, 'first_author': False, 'id': 838}], 'id': 289}]

>  <classifications>  (239) 
[{'classification': 'Diterpene', 'id': 771}, {'classification': 'Terpenoid', 'id': 839}, {'classification': 'Phenol lipids (Classyfire)', 'id': 951}]

>  <molecular_mass>  (239) 
392.4

$$$$
SANC00342_minRM1.pdb
     RDKit          3D

 53 57  0  0  0  0  0  0  0  0999 V2000
   -7.0570    1.2320    1.0230 C   0  0  0  0  0  0  0  0  0  0  0  0
   -6.9150    0.2100   -0.1080 C   0  0  0  0  0  0  0  0  0  0  0  0
   -8.2240   -0.5430   -0.3470 C   0  0  0  0  0  0  0  0  0  0  0  0
   -6.4530    0.9160   -1.3480 C   0  0  0  0  0  0  0  0  0  0  0  0
   -5.1480    1.0570   -1.5890 C   0  0  0  0  0  0  0  0  0  0  0  0
   -4.1990    0.4590   -0.6710 C   0  0  0  0  0  0  0  0  0  0  0  0
   -2.8400    0.7350   -0.6970 C   0  0  0  0  0  0  0  0  0  0  0  0
   -1.9780    0.1090    0.1970 C   0  0  0  0  0  0  0  0  0  0  0  0
   -0.5620    0.4350    0.1720 C   0  0  0  0  0  0  0  0  0  0  0  0
   -0.1450    1.6980    0.3810 C   0  0  0  0  0  0  0  0  0  0  0  0
    1.1510    2.1040    0.3440 O   0  0  0  0  0  0  0  0  0  0  0  0
    2.1140    1.1630    0.1070 C   0  0  0  0  0  0  0  0  0  0  0  0
    3.4220    1.6220    0.1610 C   0  0  0  0  0  0  0  0  0  0  0  0
    4.4300    0.6790   -0.0820 C   0  0  0  0  0  0  0  0  0  0  0  0
    5.6910    1.1610   -0.0240 O   0  0  0  0  0  0  0  0  0  0  0  0
    6.7260    0.2120    0.2270 C   0  0  0  0  0  0  0  0  0  0  0  0
    7.9960    0.9240   -0.2350 C   0  0  0  0  0  0  0  0  0  0  0  0
    6.7500   -0.0610    1.7330 C   0  0  0  0  0  0  0  0  0  0  0  0
    6.5170   -1.0800   -0.5000 C   0  0  0  0  0  0  0  0  0  0  0  0
    5.2800   -1.5070   -0.7640 C   0  0  0  0  0  0  0  0  0  0  0  0
    4.1620   -0.6570   -0.4140 C   0  0  0  0  0  0  0  0  0  0  0  0
    2.8270   -1.0800   -0.4330 C   0  0  0  0  0  0  0  0  0  0  0  0
    2.5940   -2.3610   -0.7230 O   0  0  0  0  0  0  0  0  0  0  0  0
    1.7880   -0.1700   -0.1560 C   0  0  0  0  0  0  0  0  0  0  0  0
    0.4080   -0.6070   -0.1490 C   0  0  0  0  0  0  0  0  0  0  0  0
    0.1140   -1.7790   -0.3940 O   0  0  0  0  0  0  0  0  0  0  0  0
   -2.4910   -0.8240    1.1110 C   0  0  0  0  0  0  0  0  0  0  0  0
   -1.7490   -1.4750    2.0320 O   0  0  0  0  0  0  0  0  0  0  0  0
   -3.8550   -1.1330    1.1520 C   0  0  0  0  0  0  0  0  0  0  0  0
   -4.6910   -0.4640    0.2670 C   0  0  0  0  0  0  0  0  0  0  0  0
   -6.0080   -0.7970    0.3180 O   0  0  0  0  0  0  0  0  0  0  0  0
   -6.1100    1.7510    1.2290 H   0  0  0  0  0  0  0  0  0  0  0  0
   -7.8010    2.0020    0.7800 H   0  0  0  0  0  0  0  0  0  0  0  0
   -7.3750    0.7630    1.9650 H   0  0  0  0  0  0  0  0  0  0  0  0
   -9.0370    0.1490   -0.6060 H   0  0  0  0  0  0  0  0  0  0  0  0
   -8.1350   -1.2680   -1.1680 H   0  0  0  0  0  0  0  0  0  0  0  0
   -8.5470   -1.1030    0.5420 H   0  0  0  0  0  0  0  0  0  0  0  0
   -7.2250    1.3310   -1.9970 H   0  0  0  0  0  0  0  0  0  0  0  0
   -4.7600    1.5820   -2.4660 H   0  0  0  0  0  0  0  0  0  0  0  0
   -2.4470    1.4630   -1.4140 H   0  0  0  0  0  0  0  0  0  0  0  0
   -0.7750    2.5650    0.6110 H   0  0  0  0  0  0  0  0  0  0  0  0
    3.6600    2.6680    0.3750 H   0  0  0  0  0  0  0  0  0  0  0  0
    8.1310    1.8980    0.2580 H   0  0  0  0  0  0  0  0  0  0  0  0
    8.8890    0.3230   -0.0090 H   0  0  0  0  0  0  0  0  0  0  0  0
    7.9940    1.1100   -1.3180 H   0  0  0  0  0  0  0  0  0  0  0  0
    5.8210   -0.5400    2.0770 H   0  0  0  0  0  0  0  0  0  0  0  0
    7.5760   -0.7310    2.0050 H   0  0  0  0  0  0  0  0  0  0  0  0
    6.8710    0.8600    2.3210 H   0  0  0  0  0  0  0  0  0  0  0  0
    7.4100   -1.6550   -0.7470 H   0  0  0  0  0  0  0  0  0  0  0  0
    5.0760   -2.4670   -1.2480 H   0  0  0  0  0  0  0  0  0  0  0  0
    1.6280   -2.5580   -0.7320 H   0  0  0  0  0  0  0  0  0  0  0  0
   -0.8600   -1.0850    2.0580 H   0  0  0  0  0  0  0  0  0  0  0  0
   -4.2420   -1.8820    1.8490 H   0  0  0  0  0  0  0  0  0  0  0  0
  1  2  1  0
  1 33  1  0
  1 32  1  0
  1 34  1  0
  2  4  1  0
  2  3  1  0
  2 31  1  0
  3 36  1  0
  3 35  1  0
  3 37  1  0
  4 38  1  0
  4  5  2  0
  5 39  1  0
  5  6  1  0
  6  7  2  0
  6 30  1  0
  7 40  1  0
  7  8  1  0
  8  9  1  0
  8 27  2  0
  9 25  1  0
  9 10  2  0
 10 11  1  0
 10 41  1  0
 11 12  1  0
 12 24  2  0
 12 13  1  0
 13 14  2  0
 13 42  1  0
 14 21  1  0
 14 15  1  0
 15 16  1  0
 16 19  1  0
 16 17  1  0
 16 18  1  0
 17 45  1  0
 17 44  1  0
 17 43  1  0
 18 47  1  0
 18 46  1  0
 18 48  1  0
 19 20  2  0
 19 49  1  0
 20 50  1  0
 20 21  1  0
 21 22  2  0
 22 23  1  0
 22 24  1  0
 23 51  1  0
 24 25  1  0
 25 26  2  0
 27 29  1  0
 27 28  1  0
 28 52  1  0
 29 30  2  0
 29 53  1  0
 30 31  1  0
M  END
>  <id>  (240) 
342

>  <scaffolds>  (240) 
['c1ccccc1', 'O=c1c(-c2ccccc2)coc2ccccc12', 'O=c1c(-c2ccc3c(c2)C=CCO3)coc2ccccc12', 'O=c1c(-c2ccccc2)coc2cc3c(cc12)C=CCO3', 'C1=Cc2ccccc2OC1', 'O=c1ccoc2ccccc12', 'O=c1c(-c2ccc3c(c2)C=CCO3)coc2cc3c(cc12)C=CCO3']

>  <name>  (240) 
Kraussianone 1

>  <formula>  (240) 
C25H22O6

>  <SMILES>  (240) 
CC5(C)C=Cc4cc(c3coc2cc1OC(C)(C)C=Cc1c(O)c2c3=O)c(O)cc4O5

>  <ChEMBL_id>  (240) 


>  <ZINC_id>  (240) 


>  <PubChem_id>  (240) 


>  <DrugBank_id>  (240) 


>  <CAS_no>  (240) 
497858-65-8

>  <references>  (240) 
[{'journal': {'name': 'Phytochemistry', 'id': 10}, 'title': 'Pyrano-isoflavones with erectile-dysfunction activity from Eriosema kraussianum', 'year': 2002, 'start_page': 739, 'volume': 59, 'issue': 7, 'doi': '10.1016/S0031-9422(02)00035-3', 'isbn': '', 'despositor': {'code': 'NFA', 'first_name': 'Ngonidzashe', 'last_name': 'Faya', 'id': 21}, 'refauthors_set': [{'author': {'first_name': 'Siegfried', 'initials': 'SE', 'last_name': 'Drewes', 'id': 613}, 'first_author': True, 'id': 839}, {'author': {'first_name': 'Marion', 'initials': 'MM', 'last_name': 'Horn', 'id': 614}, 'first_author': None, 'id': 1235}, {'author': {'first_name': 'Orde', 'initials': 'OQ', 'last_name': 'Munro', 'id': 615}, 'first_author': None, 'id': 1236}, {'author': {'first_name': 'Jabu', 'initials': 'JTB', 'last_name': 'Dhlamini', 'id': 616}, 'first_author': None, 'id': 1237}, {'author': {'first_name': 'Jacobus', 'initials': 'JM', 'last_name': 'Meyer', 'id': 716}, 'first_author': None, 'id': 1238}, {'author': {'first_name': '', 'initials': 'NC', 'last_name': 'Rakuambo', 'id': 609}, 'first_author': None, 'id': 1239}], 'id': 290}]

>  <classifications>  (240) 
[{'classification': 'Pyrano-isoflavone', 'id': 816}, {'classification': 'Isoflavonoids (Classyfire)', 'id': 963}]

>  <molecular_mass>  (240) 
418.44

$$$$
SANC00343_minRM1.pdb
     RDKit          3D

 53 55  0  0  1  0  0  0  0  0999 V2000
   -1.1070   -1.1060   -1.6150 H   0  0  0  0  0  0  0  0  0  0  0  0
   -1.1480   -1.0660   -0.4950 C   0  0  2  0  0  0  0  0  0  0  0  0
   -0.3240   -2.2180    0.0930 C   0  0  0  0  0  0  0  0  0  0  0  0
    1.1570   -2.0510   -0.2280 C   0  0  0  0  0  0  0  0  0  0  0  0
    1.6710   -0.7200    0.3150 C   0  0  1  0  0  0  0  0  0  0  0  0
    1.3960   -0.6660    1.4060 H   0  0  0  0  0  0  0  0  0  0  0  0
    3.2100   -0.6380    0.2780 C   0  0  1  0  0  0  0  0  0  0  0  0
    3.7740   -1.6990    1.2360 C   0  0  0  0  0  0  0  0  0  0  0  0
    3.8080   -0.9040   -1.0980 C   0  0  0  0  0  0  0  0  0  0  0  0
    3.6180    0.7530    0.8190 C   0  0  1  0  0  0  0  0  0  0  0  0
    3.3160    0.8350    1.9030 H   0  0  0  0  0  0  0  0  0  0  0  0
    5.0120    0.8320    0.7040 O   0  0  0  0  0  0  0  0  0  0  0  0
    2.9490    1.8840    0.0320 C   0  0  0  0  0  0  0  0  0  0  0  0
    1.4350    1.7750    0.1270 C   0  0  0  0  0  0  0  0  0  0  0  0
    0.9230    0.4280   -0.3980 C   0  0  1  0  0  0  0  0  0  0  0  0
    1.0890    0.3750   -1.9120 C   0  0  0  0  0  0  0  0  0  0  0  0
   -0.5610    0.2630    0.0070 C   0  0  1  0  0  0  0  0  0  0  0  0
   -0.6190    0.2730    1.1320 H   0  0  0  0  0  0  0  0  0  0  0  0
   -1.4880    1.3530   -0.4480 C   0  0  0  0  0  0  0  0  0  0  0  0
   -1.2510    2.2340   -1.2450 O   0  0  0  0  0  0  0  0  0  0  0  0
   -2.8750    1.2650    0.1990 C   0  0  2  0  0  0  0  0  0  0  0  0
   -3.6040    1.9070   -0.3720 H   0  0  0  0  0  0  0  0  0  0  0  0
   -2.6790    1.7570    1.4940 O   0  0  0  0  0  0  0  0  0  0  0  0
   -3.3570   -0.1560    0.2240 C   0  0  0  0  0  0  0  0  0  0  0  0
   -4.7350   -0.3230    0.6810 C   0  0  0  0  0  0  0  0  0  0  0  0
   -5.7710    0.2720    0.1020 C   0  0  0  0  0  0  0  0  0  0  0  0
   -2.5940   -1.2000   -0.1150 C   0  0  0  0  0  0  0  0  0  0  0  0
   -3.1790   -2.5680   -0.1610 C   0  0  0  0  0  0  0  0  0  0  0  0
   -0.4870   -2.2890    1.1890 H   0  0  0  0  0  0  0  0  0  0  0  0
   -0.6720   -3.1960   -0.3030 H   0  0  0  0  0  0  0  0  0  0  0  0
    1.7360   -2.9020    0.1940 H   0  0  0  0  0  0  0  0  0  0  0  0
    1.3120   -2.1240   -1.3280 H   0  0  0  0  0  0  0  0  0  0  0  0
    3.4680   -2.7170    0.9480 H   0  0  0  0  0  0  0  0  0  0  0  0
    4.8730   -1.6930    1.2570 H   0  0  0  0  0  0  0  0  0  0  0  0
    3.4460   -1.5580    2.2760 H   0  0  0  0  0  0  0  0  0  0  0  0
    3.5170   -0.1620   -1.8550 H   0  0  0  0  0  0  0  0  0  0  0  0
    4.9090   -0.8940   -1.0800 H   0  0  0  0  0  0  0  0  0  0  0  0
    3.5280   -1.8900   -1.4950 H   0  0  0  0  0  0  0  0  0  0  0  0
    5.2860    1.6760    1.0750 H   0  0  0  0  0  0  0  0  0  0  0  0
    3.2760    2.8720    0.4250 H   0  0  0  0  0  0  0  0  0  0  0  0
    3.2930    1.8980   -1.0230 H   0  0  0  0  0  0  0  0  0  0  0  0
    1.1110    1.9350    1.1770 H   0  0  0  0  0  0  0  0  0  0  0  0
    0.9830    2.6200   -0.4330 H   0  0  0  0  0  0  0  0  0  0  0  0
    2.0890    0.7110   -2.2340 H   0  0  0  0  0  0  0  0  0  0  0  0
    0.9790   -0.6420   -2.3230 H   0  0  0  0  0  0  0  0  0  0  0  0
    0.3790    1.0100   -2.4570 H   0  0  0  0  0  0  0  0  0  0  0  0
   -3.5200    1.6880    1.9580 H   0  0  0  0  0  0  0  0  0  0  0  0
   -4.8610   -0.9750    1.5540 H   0  0  0  0  0  0  0  0  0  0  0  0
   -6.7910    0.1550    0.4580 H   0  0  0  0  0  0  0  0  0  0  0  0
   -5.7060    0.9110   -0.7730 H   0  0  0  0  0  0  0  0  0  0  0  0
   -4.2300   -2.5720   -0.4910 H   0  0  0  0  0  0  0  0  0  0  0  0
   -2.6530   -3.2410   -0.8550 H   0  0  0  0  0  0  0  0  0  0  0  0
   -3.1570   -3.0410    0.8330 H   0  0  0  0  0  0  0  0  0  0  0  0
  2  1  1  6
  2 27  1  0
  2 17  1  0
  2  3  1  0
  3 30  1  0
  3  4  1  0
  3 29  1  0
  4 32  1  0
  4 31  1  0
  4  5  1  0
  5 15  1  0
  5  7  1  0
  5  6  1  1
  7  9  1  6
  7 10  1  0
  7  8  1  0
  8 33  1  0
  8 34  1  0
  8 35  1  0
  9 36  1  0
  9 38  1  0
  9 37  1  0
 10 13  1  0
 10 12  1  0
 10 11  1  1
 12 39  1  0
 13 41  1  0
 13 14  1  0
 13 40  1  0
 14 43  1  0
 14 15  1  0
 14 42  1  0
 15 16  1  6
 15 17  1  0
 16 46  1  0
 16 45  1  0
 16 44  1  0
 17 19  1  0
 17 18  1  1
 19 20  2  0
 19 21  1  0
 21 22  1  6
 21 24  1  0
 21 23  1  0
 23 47  1  0
 24 27  2  0
 24 25  1  0
 25 26  2  0
 25 48  1  0
 26 50  1  0
 26 49  1  0
 27 28  1  0
 28 52  1  0
 28 51  1  0
 28 53  1  0
M  END
>  <id>  (241) 
343

>  <scaffolds>  (241) 
['C1=CC2CCCCC2CC1', 'C1=CCCCC1', 'C1CCCCC1', 'O=C1CC=CCC1', 'C1CCC2CCCCC2C1']

>  <name>  (241) 
Niloticane

>  <formula>  (241) 
C20H30O3

>  <SMILES>  (241) 
[H][C@@]23CC[C@@]1([H])C(C)(C)[C@@H](O)CC[C@]1(C)[C@@]2([H])C(=O)[C@H](O)C(C=C)=C3C

>  <ChEMBL_id>  (241) 


>  <ZINC_id>  (241) 


>  <PubChem_id>  (241) 


>  <DrugBank_id>  (241) 


>  <CAS_no>  (241) 
1291096-13-3

>  <references>  (241) 
[{'journal': {'name': 'Journal of Ethnopharmacology', 'id': 7}, 'title': 'In vitro biological activities of niloticane, a new bioactive cassane diterpene from the bark of Acacia nilotica subsp. kraussiana', 'year': 2010, 'start_page': 555, 'volume': 128, 'issue': None, 'doi': '10.1016/j.jep.2010.01.057', 'isbn': '', 'despositor': {'code': 'DLP', 'first_name': 'David', 'last_name': 'Penkler', 'id': 23}, 'refauthors_set': [{'author': {'first_name': '', 'initials': 'IMS', 'last_name': 'Eldeen', 'id': 617}, 'first_author': True, 'id': 840}, {'author': {'first_name': 'Fanie', 'initials': 'FR', 'last_name': 'Van Heerden', 'id': 634}, 'first_author': False, 'id': 841}, {'author': {'first_name': 'Johannes', 'initials': 'J', 'last_name': 'Van Staden', 'id': 489}, 'first_author': False, 'id': 842}], 'id': 291}]

>  <classifications>  (241) 
[{'classification': 'Diterpene', 'id': 771}, {'classification': 'Terpenoid', 'id': 839}, {'classification': 'Phenol lipids (Classyfire)', 'id': 951}]

>  <molecular_mass>  (241) 
318.45

$$$$
SANC00344_minRM1.pdb
     RDKit          3D

 55 58  0  0  0  0  0  0  0  0999 V2000
    8.3020   -0.7250   -0.0130 C   0  0  0  0  0  0  0  0  0  0  0  0
    7.2280   -1.2960   -0.8700 C   0  0  0  0  0  0  0  0  0  0  0  0
    7.6490   -1.9730   -2.1290 C   0  0  0  0  0  0  0  0  0  0  0  0
    5.9330   -1.2600   -0.5450 C   0  0  0  0  0  0  0  0  0  0  0  0
    5.3760   -0.6690    0.7050 C   0  0  0  0  0  0  0  0  0  0  0  0
    4.1490    0.1180    0.3760 C   0  0  0  0  0  0  0  0  0  0  0  0
    4.2390    1.4250   -0.1210 C   0  0  0  0  0  0  0  0  0  0  0  0
    5.4090    2.0450   -0.3670 O   0  0  0  0  0  0  0  0  0  0  0  0
    3.1140    2.2190   -0.3950 C   0  0  0  0  0  0  0  0  0  0  0  0
    1.8720    1.6440   -0.1830 C   0  0  0  0  0  0  0  0  0  0  0  0
    0.8000    2.4430   -0.4660 O   0  0  0  0  0  0  0  0  0  0  0  0
   -0.4440    1.9280   -0.2940 C   0  0  0  0  0  0  0  0  0  0  0  0
   -0.7080    0.6790    0.1370 C   0  0  0  0  0  0  0  0  0  0  0  0
   -2.0910    0.2370    0.2220 C   0  0  0  0  0  0  0  0  0  0  0  0
   -2.8510    0.1690   -0.9410 C   0  0  0  0  0  0  0  0  0  0  0  0
   -4.1900   -0.1900   -0.8840 C   0  0  0  0  0  0  0  0  0  0  0  0
   -5.0350   -0.2850   -2.0580 C   0  0  0  0  0  0  0  0  0  0  0  0
   -6.3550   -0.3880   -1.8950 C   0  0  0  0  0  0  0  0  0  0  0  0
   -6.9510   -0.3380   -0.5190 C   0  0  0  0  0  0  0  0  0  0  0  0
   -7.2930    1.1160   -0.1800 C   0  0  0  0  0  0  0  0  0  0  0  0
   -8.1810   -1.2400   -0.4100 C   0  0  0  0  0  0  0  0  0  0  0  0
   -6.0750   -0.8320    0.4840 O   0  0  0  0  0  0  0  0  0  0  0  0
   -4.7700   -0.4710    0.3610 C   0  0  0  0  0  0  0  0  0  0  0  0
   -4.0270   -0.4540    1.5380 C   0  0  0  0  0  0  0  0  0  0  0  0
   -2.6790   -0.1050    1.4480 C   0  0  0  0  0  0  0  0  0  0  0  0
   -2.0170   -0.0020    2.6270 O   0  0  0  0  0  0  0  0  0  0  0  0
    0.3900   -0.2240    0.4530 C   0  0  0  0  0  0  0  0  0  0  0  0
    0.2460   -1.3830    0.8530 O   0  0  0  0  0  0  0  0  0  0  0  0
    1.7130    0.3330    0.2710 C   0  0  0  0  0  0  0  0  0  0  0  0
    2.8700   -0.4280    0.5410 C   0  0  0  0  0  0  0  0  0  0  0  0
    2.7850   -1.6920    0.9630 O   0  0  0  0  0  0  0  0  0  0  0  0
    9.3190   -0.9250   -0.3870 H   0  0  0  0  0  0  0  0  0  0  0  0
    8.2240    0.3730    0.0660 H   0  0  0  0  0  0  0  0  0  0  0  0
    8.2760   -1.1280    1.0110 H   0  0  0  0  0  0  0  0  0  0  0  0
    8.6890   -1.7650   -2.4190 H   0  0  0  0  0  0  0  0  0  0  0  0
    7.5570   -3.0670   -2.0400 H   0  0  0  0  0  0  0  0  0  0  0  0
    7.0270   -1.6710   -2.9880 H   0  0  0  0  0  0  0  0  0  0  0  0
    5.1860   -1.7350   -1.1890 H   0  0  0  0  0  0  0  0  0  0  0  0
    5.1630   -1.4900    1.4270 H   0  0  0  0  0  0  0  0  0  0  0  0
    6.0970   -0.0330    1.2650 H   0  0  0  0  0  0  0  0  0  0  0  0
    6.1330    1.4040   -0.3640 H   0  0  0  0  0  0  0  0  0  0  0  0
    3.2240    3.2440   -0.7580 H   0  0  0  0  0  0  0  0  0  0  0  0
   -1.1780    2.6960   -0.5640 H   0  0  0  0  0  0  0  0  0  0  0  0
   -2.3920    0.4080   -1.9070 H   0  0  0  0  0  0  0  0  0  0  0  0
   -4.5600   -0.2680   -3.0440 H   0  0  0  0  0  0  0  0  0  0  0  0
   -7.0520   -0.4850   -2.7290 H   0  0  0  0  0  0  0  0  0  0  0  0
   -8.0300    1.5300   -0.8820 H   0  0  0  0  0  0  0  0  0  0  0  0
   -7.7170    1.2150    0.8290 H   0  0  0  0  0  0  0  0  0  0  0  0
   -6.4060    1.7640   -0.2210 H   0  0  0  0  0  0  0  0  0  0  0  0
   -7.9500   -2.2830   -0.6690 H   0  0  0  0  0  0  0  0  0  0  0  0
   -8.6010   -1.2480    0.6060 H   0  0  0  0  0  0  0  0  0  0  0  0
   -8.9810   -0.9040   -1.0850 H   0  0  0  0  0  0  0  0  0  0  0  0
   -4.4830   -0.6950    2.5030 H   0  0  0  0  0  0  0  0  0  0  0  0
   -1.1950   -0.5030    2.5520 H   0  0  0  0  0  0  0  0  0  0  0  0
    1.8420   -1.9750    1.0690 H   0  0  0  0  0  0  0  0  0  0  0  0
  1  2  1  0
  1 32  1  0
  1 33  1  0
  1 34  1  0
  2  3  1  0
  2  4  2  0
  3 37  1  0
  3 35  1  0
  3 36  1  0
  4 38  1  0
  4  5  1  0
  5  6  1  0
  5 40  1  0
  5 39  1  0
  6  7  2  0
  6 30  1  0
  7  9  1  0
  7  8  1  0
  8 41  1  0
  9 42  1  0
  9 10  2  0
 10 11  1  0
 10 29  1  0
 11 12  1  0
 12 43  1  0
 12 13  2  0
 13 14  1  0
 13 27  1  0
 14 15  2  0
 14 25  1  0
 15 44  1  0
 15 16  1  0
 16 17  1  0
 16 23  2  0
 17 45  1  0
 17 18  2  0
 18 46  1  0
 18 19  1  0
 19 21  1  0
 19 20  1  0
 19 22  1  0
 20 47  1  0
 20 49  1  0
 20 48  1  0
 21 52  1  0
 21 50  1  0
 21 51  1  0
 22 23  1  0
 23 24  1  0
 24 25  2  0
 24 53  1  0
 25 26  1  0
 26 54  1  0
 27 29  1  0
 27 28  2  0
 29 30  2  0
 30 31  1  0
 31 55  1  0
M  END
>  <id>  (242) 
344

>  <scaffolds>  (242) 
['c1ccccc1', 'O=c1c(-c2ccccc2)coc2ccccc12', 'O=c1c(-c2ccc3c(c2)C=CCO3)coc2ccccc12', 'C1=Cc2ccccc2OC1', 'O=c1ccoc2ccccc12']

>  <name>  (242) 
Kraussianone 2

>  <formula>  (242) 
C25H24O6

>  <SMILES>  (242) 
CC(C)=CCc4c(O)cc3occ(c2cc1C=CC(C)(C)Oc1cc2O)c(=O)c3c4O

>  <ChEMBL_id>  (242) 


>  <ZINC_id>  (242) 


>  <PubChem_id>  (242) 


>  <DrugBank_id>  (242) 


>  <CAS_no>  (242) 
497858-66-9

>  <references>  (242) 
[{'journal': {'name': 'Phytochemistry', 'id': 10}, 'title': 'Pyrano-isoflavones with erectile-dysfunction activity from Eriosema kraussianum', 'year': 2002, 'start_page': 739, 'volume': 59, 'issue': 7, 'doi': '10.1016/S0031-9422(02)00035-3', 'isbn': '', 'despositor': {'code': 'NFA', 'first_name': 'Ngonidzashe', 'last_name': 'Faya', 'id': 21}, 'refauthors_set': [{'author': {'first_name': 'Siegfried', 'initials': 'SE', 'last_name': 'Drewes', 'id': 613}, 'first_author': True, 'id': 839}, {'author': {'first_name': 'Marion', 'initials': 'MM', 'last_name': 'Horn', 'id': 614}, 'first_author': None, 'id': 1235}, {'author': {'first_name': 'Orde', 'initials': 'OQ', 'last_name': 'Munro', 'id': 615}, 'first_author': None, 'id': 1236}, {'author': {'first_name': 'Jabu', 'initials': 'JTB', 'last_name': 'Dhlamini', 'id': 616}, 'first_author': None, 'id': 1237}, {'author': {'first_name': 'Jacobus', 'initials': 'JM', 'last_name': 'Meyer', 'id': 716}, 'first_author': None, 'id': 1238}, {'author': {'first_name': '', 'initials': 'NC', 'last_name': 'Rakuambo', 'id': 609}, 'first_author': None, 'id': 1239}], 'id': 290}, {'journal': {'name': 'Phytochemistry', 'id': 10}, 'title': 'Minor pyrano-isoflavones from Eriosema kraussianum: activity-, structure-, and chemical reaction studies', 'year': 2004, 'start_page': 1955, 'volume': 64, 'issue': None, 'doi': '10.1016/j.phytochem.2004.04.030', 'isbn': '', 'despositor': {'code': 'NFA', 'first_name': 'Ngonidzashe', 'last_name': 'Faya', 'id': 21}, 'refauthors_set': [{'author': {'first_name': 'Siegfried', 'initials': 'SE', 'last_name': 'Drewes', 'id': 613}, 'first_author': True, 'id': 850}, {'author': {'first_name': 'Marion', 'initials': 'MM', 'last_name': 'Horn', 'id': 614}, 'first_author': None, 'id': 1240}, {'author': {'first_name': 'Fatima', 'initials': 'F', 'last_name': 'Khan', 'id': 623}, 'first_author': None, 'id': 1241}, {'author': {'first_name': 'Orde', 'initials': 'OQ', 'last_name': 'Munro', 'id': 615}, 'first_author': None, 'id': 1242}, {'author': {'first_name': 'Jabu', 'initials': 'JTB', 'last_name': 'Dhlamini', 'id': 616}, 'first_author': None, 'id': 1243}, {'author': {'first_name': '', 'initials': 'NC', 'last_name': 'Rakuambo', 'id': 609}, 'first_author': None, 'id': 1244}, {'author': {'first_name': 'Jacobus', 'initials': 'JM', 'last_name': 'Meyer', 'id': 716}, 'first_author': None, 'id': 1245}], 'id': 294}]

>  <classifications>  (242) 
[{'classification': 'Pyrano-isoflavone', 'id': 816}, {'classification': 'Isoflavonoids (Classyfire)', 'id': 963}]

>  <molecular_mass>  (242) 
420.45

$$$$
SANC00345_minRM1.pdb
     RDKit          3D

 43 47  0  0  1  0  0  0  0  0999 V2000
    1.4450   -0.9570   -1.1490 H   0  0  0  0  0  0  0  0  0  0  0  0
    1.7100   -1.0790   -0.0650 C   0  0  2  0  0  0  0  0  0  0  0  0
    3.2330   -1.1330    0.0380 C   0  0  0  0  0  0  0  0  0  0  0  0
    3.7340    0.1990   -0.4260 C   0  0  0  0  0  0  0  0  0  0  0  0
    4.8480    0.0630   -1.1800 O   0  0  0  0  0  0  0  0  0  0  0  0
    5.4190    1.2340   -1.7100 C   0  0  0  0  0  0  0  0  0  0  0  0
    3.1230    1.3480   -0.0940 C   0  0  0  0  0  0  0  0  0  0  0  0
    1.9490    1.3160    0.7810 C   0  0  0  0  0  0  0  0  0  0  0  0
    1.6840    2.2560    1.5120 O   0  0  0  0  0  0  0  0  0  0  0  0
    1.1160    0.0550    0.8060 C   0  0  2  0  0  0  0  0  0  0  0  0
    1.1220   -0.5450    2.2280 C   0  0  0  0  0  0  0  0  0  0  0  0
    1.1170   -2.0670    1.9980 C   0  0  0  0  0  0  0  0  0  0  0  0
    1.0720   -2.3070    0.5160 N   0  0  0  0  0  0  0  0  0  0  0  0
   -0.3460   -2.3100    0.0500 C   0  0  0  0  0  0  0  0  0  0  0  0
   -1.0100   -0.9610    0.0520 C   0  0  0  0  0  0  0  0  0  0  0  0
   -0.3160    0.2090    0.3780 C   0  0  0  0  0  0  0  0  0  0  0  0
   -0.9320    1.4680    0.3300 C   0  0  0  0  0  0  0  0  0  0  0  0
   -2.2530    1.4820   -0.0490 C   0  0  0  0  0  0  0  0  0  0  0  0
   -3.0750    2.5710   -0.1740 O   0  0  0  0  0  0  0  0  0  0  0  0
   -4.3480    2.0720   -0.5770 C   0  0  0  0  0  0  0  0  0  0  0  0
   -4.2580    0.6540   -0.7100 O   0  0  0  0  0  0  0  0  0  0  0  0
   -2.9730    0.3210   -0.3730 C   0  0  0  0  0  0  0  0  0  0  0  0
   -2.3640   -0.9130   -0.3340 C   0  0  0  0  0  0  0  0  0  0  0  0
   -3.0300   -2.0840   -0.5520 O   0  0  0  0  0  0  0  0  0  0  0  0
   -3.5940   -2.1820   -1.8410 C   0  0  0  0  0  0  0  0  0  0  0  0
    3.6020   -1.3200    1.0690 H   0  0  0  0  0  0  0  0  0  0  0  0
    3.6360   -1.9820   -0.5560 H   0  0  0  0  0  0  0  0  0  0  0  0
    5.7820    1.9250   -0.9330 H   0  0  0  0  0  0  0  0  0  0  0  0
    6.2790    0.8610   -2.2870 H   0  0  0  0  0  0  0  0  0  0  0  0
    4.7400    1.7770   -2.3870 H   0  0  0  0  0  0  0  0  0  0  0  0
    3.4650    2.3410   -0.3920 H   0  0  0  0  0  0  0  0  0  0  0  0
    2.0040   -0.2190    2.8140 H   0  0  0  0  0  0  0  0  0  0  0  0
    0.2570   -0.1990    2.8250 H   0  0  0  0  0  0  0  0  0  0  0  0
    2.0370   -2.5560    2.3890 H   0  0  0  0  0  0  0  0  0  0  0  0
    0.2900   -2.5730    2.5420 H   0  0  0  0  0  0  0  0  0  0  0  0
   -0.3570   -2.7280   -0.9850 H   0  0  0  0  0  0  0  0  0  0  0  0
   -0.9380   -3.0410    0.6500 H   0  0  0  0  0  0  0  0  0  0  0  0
   -0.4340    2.4060    0.5790 H   0  0  0  0  0  0  0  0  0  0  0  0
   -5.1090    2.3250    0.1950 H   0  0  0  0  0  0  0  0  0  0  0  0
   -4.6300    2.5190   -1.5560 H   0  0  0  0  0  0  0  0  0  0  0  0
   -4.0310   -3.1920   -1.8580 H   0  0  0  0  0  0  0  0  0  0  0  0
   -4.3950   -1.4490   -2.0320 H   0  0  0  0  0  0  0  0  0  0  0  0
   -2.8430   -2.1000   -2.6440 H   0  0  0  0  0  0  0  0  0  0  0  0
  2  1  1  6
  2  3  1  0
  2 13  1  0
  2 10  1  0
  3 27  1  0
  3  4  1  0
  3 26  1  0
  4  5  1  0
  4  7  2  0
  5  6  1  0
  6 30  1  0
  6 29  1  0
  6 28  1  0
  7 31  1  0
  7  8  1  0
  8  9  2  0
 10  8  1  1
 10 16  1  0
 10 11  1  0
 11 12  1  0
 11 32  1  0
 11 33  1  0
 12 34  1  0
 12 35  1  0
 13 12  1  0
 13 14  1  0
 14 36  1  0
 14 15  1  0
 14 37  1  0
 15 23  2  0
 15 16  1  0
 16 17  2  0
 17 18  1  0
 17 38  1  0
 18 22  2  0
 18 19  1  0
 19 20  1  0
 20 40  1  0
 20 21  1  0
 20 39  1  0
 21 22  1  0
 22 23  1  0
 23 24  1  0
 24 25  1  0
 25 43  1  0
 25 42  1  0
 25 41  1  0
M  END
>  <id>  (243) 
345

>  <scaffolds>  (243) 
['c1ccccc1', 'C1=CCCCC1', 'O=C1C=CCCC1', 'C1=CCC23CCN(Cc4cc5c(cc42)OCO5)C3C1', 'O=C1C=CCC2N3CCC12c1cc2c(cc1C3)OCO2', 'C1CCNC1', 'c1ccc2c(c1)OCO2']

>  <name>  (243) 
Distichamine

>  <formula>  (243) 
C18H19NO5

>  <SMILES>  (243) 
[H][C@@]12CC(OC)=CC(=O)[C@]13CC[N@]2Cc5c3cc4OCOc4c5OC

>  <ChEMBL_id>  (243) 


>  <ZINC_id>  (243) 


>  <PubChem_id>  (243) 


>  <DrugBank_id>  (243) 


>  <CAS_no>  (243) 
1356-75-8

>  <references>  (243) 
[{'journal': {'name': 'Journal of Ethnopharmacology', 'id': 7}, 'title': 'Antibacterial activity of crinane alkaloids from Boophone disticha (Amaryllidaceae)', 'year': 2012, 'start_page': 405, 'volume': 140, 'issue': None, 'doi': '10.1016/j.jep.2012.01.037', 'isbn': '', 'despositor': {'code': 'DLP', 'first_name': 'David', 'last_name': 'Penkler', 'id': 23}, 'refauthors_set': [{'author': {'first_name': 'Lee', 'initials': 'L', 'last_name': 'Cheesman', 'id': 619}, 'first_author': True, 'id': 843}, {'author': {'first_name': 'Jerald', 'initials': 'JJ', 'last_name': 'Nair', 'id': 620}, 'first_author': False, 'id': 844}, {'author': {'first_name': 'Johannes', 'initials': 'J', 'last_name': 'Van Staden', 'id': 489}, 'first_author': False, 'id': 845}], 'id': 292}]

>  <classifications>  (243) 
[{'classification': 'Alkaloid', 'id': 738}, {'classification': 'Crinane', 'id': 764}, {'classification': 'Quinolines and derivatives (Classyfire)', 'id': 948}]

>  <molecular_mass>  (243) 
329.35

$$$$
SANC00346_minRM1.pdb
     RDKit          3D

 58 61  0  0  0  0  0  0  0  0999 V2000
   -8.0800   -0.6930   -0.0510 C   0  0  0  0  0  0  0  0  0  0  0  0
   -6.9690   -1.5670    0.5450 C   0  0  0  0  0  0  0  0  0  0  0  0
   -7.4450   -2.1560    1.8810 C   0  0  0  0  0  0  0  0  0  0  0  0
   -6.6260   -2.5910   -0.3420 O   0  0  0  0  0  0  0  0  0  0  0  0
   -5.6690   -0.7720    0.7730 C   0  0  0  0  0  0  0  0  0  0  0  0
   -5.1510   -0.1150   -0.5040 C   0  0  0  0  0  0  0  0  0  0  0  0
   -3.8680    0.5990   -0.2300 C   0  0  0  0  0  0  0  0  0  0  0  0
   -3.8510    1.9630    0.0870 C   0  0  0  0  0  0  0  0  0  0  0  0
   -4.9700    2.7030    0.2110 O   0  0  0  0  0  0  0  0  0  0  0  0
   -2.6660    2.6880    0.2850 C   0  0  0  0  0  0  0  0  0  0  0  0
   -1.4750    1.9930    0.1560 C   0  0  0  0  0  0  0  0  0  0  0  0
   -0.3400    2.7300    0.3420 O   0  0  0  0  0  0  0  0  0  0  0  0
    0.8580    2.1080    0.2030 C   0  0  0  0  0  0  0  0  0  0  0  0
    1.0200    0.8050   -0.1010 C   0  0  0  0  0  0  0  0  0  0  0  0
    2.3650    0.2600   -0.1940 C   0  0  0  0  0  0  0  0  0  0  0  0
    3.1610    0.2510    0.9470 C   0  0  0  0  0  0  0  0  0  0  0  0
    4.4770   -0.1910    0.8810 C   0  0  0  0  0  0  0  0  0  0  0  0
    5.3480   -0.2530    2.0380 C   0  0  0  0  0  0  0  0  0  0  0  0
    6.6520   -0.4650    1.8500 C   0  0  0  0  0  0  0  0  0  0  0  0
    7.2060   -0.5820    0.4620 C   0  0  0  0  0  0  0  0  0  0  0  0
    7.6510    0.8070   -0.0100 C   0  0  0  0  0  0  0  0  0  0  0  0
    8.3600   -1.5840    0.4030 C   0  0  0  0  0  0  0  0  0  0  0  0
    6.2630   -1.0860   -0.4730 O   0  0  0  0  0  0  0  0  0  0  0  0
    4.9940   -0.6180   -0.3500 C   0  0  0  0  0  0  0  0  0  0  0  0
    4.2110   -0.6610   -1.5000 C   0  0  0  0  0  0  0  0  0  0  0  0
    2.8910   -0.2170   -1.4020 C   0  0  0  0  0  0  0  0  0  0  0  0
    2.2070   -0.1710   -2.5710 O   0  0  0  0  0  0  0  0  0  0  0  0
   -0.1500   -0.0400   -0.3010 C   0  0  0  0  0  0  0  0  0  0  0  0
   -0.1030   -1.2380   -0.6020 O   0  0  0  0  0  0  0  0  0  0  0  0
   -1.4240    0.6310   -0.1460 C   0  0  0  0  0  0  0  0  0  0  0  0
   -2.6390   -0.0660   -0.3190 C   0  0  0  0  0  0  0  0  0  0  0  0
   -2.6650   -1.3760   -0.5700 O   0  0  0  0  0  0  0  0  0  0  0  0
   -8.1860    0.2570    0.4890 H   0  0  0  0  0  0  0  0  0  0  0  0
   -7.9020   -0.4520   -1.1100 H   0  0  0  0  0  0  0  0  0  0  0  0
   -9.0630   -1.1850   -0.0170 H   0  0  0  0  0  0  0  0  0  0  0  0
   -8.3500   -2.7720    1.7720 H   0  0  0  0  0  0  0  0  0  0  0  0
   -6.6820   -2.8020    2.3400 H   0  0  0  0  0  0  0  0  0  0  0  0
   -7.6860   -1.3710    2.6100 H   0  0  0  0  0  0  0  0  0  0  0  0
   -7.4110   -3.1250   -0.4950 H   0  0  0  0  0  0  0  0  0  0  0  0
   -5.8380   -0.0100    1.5620 H   0  0  0  0  0  0  0  0  0  0  0  0
   -4.8860   -1.4460    1.1840 H   0  0  0  0  0  0  0  0  0  0  0  0
   -5.0180   -0.8690   -1.3110 H   0  0  0  0  0  0  0  0  0  0  0  0
   -5.8970    0.5990   -0.9200 H   0  0  0  0  0  0  0  0  0  0  0  0
   -5.7470    2.1290    0.1350 H   0  0  0  0  0  0  0  0  0  0  0  0
   -2.6890    3.7570    0.5140 H   0  0  0  0  0  0  0  0  0  0  0  0
    1.6540    2.8430    0.3710 H   0  0  0  0  0  0  0  0  0  0  0  0
    2.7510    0.5960    1.9020 H   0  0  0  0  0  0  0  0  0  0  0  0
    4.9030   -0.1410    3.0310 H   0  0  0  0  0  0  0  0  0  0  0  0
    7.3660   -0.5320    2.6720 H   0  0  0  0  0  0  0  0  0  0  0  0
    8.4370    1.2200    0.6360 H   0  0  0  0  0  0  0  0  0  0  0  0
    8.0510    0.7850   -1.0340 H   0  0  0  0  0  0  0  0  0  0  0  0
    6.8190    1.5260   -0.0070 H   0  0  0  0  0  0  0  0  0  0  0  0
    8.0570   -2.5800    0.7560 H   0  0  0  0  0  0  0  0  0  0  0  0
    8.7460   -1.7110   -0.6190 H   0  0  0  0  0  0  0  0  0  0  0  0
    9.2030   -1.2560    1.0270 H   0  0  0  0  0  0  0  0  0  0  0  0
    4.6160   -1.0220   -2.4500 H   0  0  0  0  0  0  0  0  0  0  0  0
    1.3150   -0.5150   -2.4170 H   0  0  0  0  0  0  0  0  0  0  0  0
   -1.7480   -1.7230   -0.7480 H   0  0  0  0  0  0  0  0  0  0  0  0
  1 34  1  0
  1 35  1  0
  1 33  1  0
  1  2  1  0
  2  4  1  0
  2  5  1  0
  2  3  1  0
  3 36  1  0
  3 37  1  0
  3 38  1  0
  4 39  1  0
  5  6  1  0
  5 41  1  0
  5 40  1  0
  6 42  1  0
  6 43  1  0
  6  7  1  0
  7 31  2  0
  7  8  1  0
  8  9  1  0
  8 10  2  0
  9 44  1  0
 10 11  1  0
 10 45  1  0
 11 30  2  0
 11 12  1  0
 12 13  1  0
 13 14  2  0
 13 46  1  0
 14 28  1  0
 14 15  1  0
 15 26  2  0
 15 16  1  0
 16 17  2  0
 16 47  1  0
 17 24  1  0
 17 18  1  0
 18 19  2  0
 18 48  1  0
 19 20  1  0
 19 49  1  0
 20 23  1  0
 20 21  1  0
 20 22  1  0
 21 51  1  0
 21 52  1  0
 21 50  1  0
 22 54  1  0
 22 53  1  0
 22 55  1  0
 23 24  1  0
 24 25  2  0
 25 56  1  0
 25 26  1  0
 26 27  1  0
 27 57  1  0
 28 29  2  0
 28 30  1  0
 30 31  1  0
 31 32  1  0
 32 58  1  0
M  END
>  <id>  (244) 
346

>  <scaffolds>  (244) 
['c1ccccc1', 'O=c1c(-c2ccccc2)coc2ccccc12', 'O=c1c(-c2ccc3c(c2)C=CCO3)coc2ccccc12', 'C1=Cc2ccccc2OC1', 'O=c1ccoc2ccccc12']

>  <name>  (244) 
Kraussianone 3

>  <formula>  (244) 
C25H26O7

>  <SMILES>  (244) 
CC(C)(O)CCc4c(O)cc3occ(c2cc1C=CC(C)(C)Oc1cc2O)c(=O)c3c4O

>  <ChEMBL_id>  (244) 


>  <ZINC_id>  (244) 


>  <PubChem_id>  (244) 


>  <DrugBank_id>  (244) 


>  <CAS_no>  (244) 
497858-67-0

>  <references>  (244) 
[{'journal': {'name': 'Phytochemistry', 'id': 10}, 'title': 'Pyrano-isoflavones with erectile-dysfunction activity from Eriosema kraussianum', 'year': 2002, 'start_page': 739, 'volume': 59, 'issue': 7, 'doi': '10.1016/S0031-9422(02)00035-3', 'isbn': '', 'despositor': {'code': 'NFA', 'first_name': 'Ngonidzashe', 'last_name': 'Faya', 'id': 21}, 'refauthors_set': [{'author': {'first_name': 'Siegfried', 'initials': 'SE', 'last_name': 'Drewes', 'id': 613}, 'first_author': True, 'id': 839}, {'author': {'first_name': 'Marion', 'initials': 'MM', 'last_name': 'Horn', 'id': 614}, 'first_author': None, 'id': 1235}, {'author': {'first_name': 'Orde', 'initials': 'OQ', 'last_name': 'Munro', 'id': 615}, 'first_author': None, 'id': 1236}, {'author': {'first_name': 'Jabu', 'initials': 'JTB', 'last_name': 'Dhlamini', 'id': 616}, 'first_author': None, 'id': 1237}, {'author': {'first_name': 'Jacobus', 'initials': 'JM', 'last_name': 'Meyer', 'id': 716}, 'first_author': None, 'id': 1238}, {'author': {'first_name': '', 'initials': 'NC', 'last_name': 'Rakuambo', 'id': 609}, 'first_author': None, 'id': 1239}], 'id': 290}, {'journal': {'name': 'Phytochemistry', 'id': 10}, 'title': 'Minor pyrano-isoflavones from Eriosema kraussianum: activity-, structure-, and chemical reaction studies', 'year': 2004, 'start_page': 1955, 'volume': 64, 'issue': None, 'doi': '10.1016/j.phytochem.2004.04.030', 'isbn': '', 'despositor': {'code': 'NFA', 'first_name': 'Ngonidzashe', 'last_name': 'Faya', 'id': 21}, 'refauthors_set': [{'author': {'first_name': 'Siegfried', 'initials': 'SE', 'last_name': 'Drewes', 'id': 613}, 'first_author': True, 'id': 850}, {'author': {'first_name': 'Marion', 'initials': 'MM', 'last_name': 'Horn', 'id': 614}, 'first_author': None, 'id': 1240}, {'author': {'first_name': 'Fatima', 'initials': 'F', 'last_name': 'Khan', 'id': 623}, 'first_author': None, 'id': 1241}, {'author': {'first_name': 'Orde', 'initials': 'OQ', 'last_name': 'Munro', 'id': 615}, 'first_author': None, 'id': 1242}, {'author': {'first_name': 'Jabu', 'initials': 'JTB', 'last_name': 'Dhlamini', 'id': 616}, 'first_author': None, 'id': 1243}, {'author': {'first_name': '', 'initials': 'NC', 'last_name': 'Rakuambo', 'id': 609}, 'first_author': None, 'id': 1244}, {'author': {'first_name': 'Jacobus', 'initials': 'JM', 'last_name': 'Meyer', 'id': 716}, 'first_author': None, 'id': 1245}], 'id': 294}]

>  <classifications>  (244) 
[{'classification': 'Pyrano-isoflavone', 'id': 816}, {'classification': 'Isoflavonoids (Classyfire)', 'id': 963}]

>  <molecular_mass>  (244) 
438.47

$$$$
SANC00347_minRM1.pdb
     RDKit          3D

 54 59  0  0  1  0  0  0  0  0999 V2000
    7.2960   -0.4940   -1.2300 C   0  0  0  0  0  0  0  0  0  0  0  0
    6.9170   -0.0090    0.1720 C   0  0  1  0  0  0  0  0  0  0  0  0
    8.0390   -0.2720    1.1770 C   0  0  0  0  0  0  0  0  0  0  0  0
    6.5810    1.4490    0.1070 C   0  0  0  0  0  0  0  0  0  0  0  0
    5.3150    1.8560   -0.0010 C   0  0  0  0  0  0  0  0  0  0  0  0
    4.2560    0.8680   -0.0120 C   0  0  0  0  0  0  0  0  0  0  0  0
    2.9300    1.2110   -0.3040 C   0  0  0  0  0  0  0  0  0  0  0  0
    1.9800    0.2280   -0.2090 C   0  0  0  0  0  0  0  0  0  0  0  0
    2.3340   -1.0910    0.1790 C   0  0  0  0  0  0  0  0  0  0  0  0
    3.6280   -1.4770    0.4300 C   0  0  0  0  0  0  0  0  0  0  0  0
    4.5880   -0.4510    0.3160 C   0  0  0  0  0  0  0  0  0  0  0  0
    5.8490   -0.8280    0.6320 O   0  0  0  0  0  0  0  0  0  0  0  0
    1.2480   -1.9310    0.3170 O   0  0  0  0  0  0  0  0  0  0  0  0
    0.1470   -1.0420    0.4120 C   0  0  2  0  0  0  0  0  0  0  0  0
   -1.0000   -1.6710   -0.0870 O   0  0  0  0  0  0  0  0  0  0  0  0
   -2.0440   -0.7800   -0.1060 C   0  0  0  0  0  0  0  0  0  0  0  0
   -3.3040   -1.3520   -0.1190 C   0  0  0  0  0  0  0  0  0  0  0  0
   -4.4050   -0.4850   -0.0530 C   0  0  0  0  0  0  0  0  0  0  0  0
   -5.6150   -1.0880   -0.0610 O   0  0  0  0  0  0  0  0  0  0  0  0
   -6.6910   -0.3640    0.5310 C   0  0  1  0  0  0  0  0  0  0  0  0
   -7.9460   -1.0220   -0.0470 C   0  0  0  0  0  0  0  0  0  0  0  0
   -6.6010   -0.5620    2.0480 C   0  0  0  0  0  0  0  0  0  0  0  0
   -6.6470    1.1010    0.2260 C   0  0  0  0  0  0  0  0  0  0  0  0
   -5.4800    1.7060   -0.0030 C   0  0  0  0  0  0  0  0  0  0  0  0
   -4.2730    0.9070   -0.0110 C   0  0  0  0  0  0  0  0  0  0  0  0
   -2.9820    1.4510   -0.0130 C   0  0  0  0  0  0  0  0  0  0  0  0
   -2.8940    2.7840    0.0460 O   0  0  0  0  0  0  0  0  0  0  0  0
   -1.8470    0.6210   -0.0680 C   0  0  0  0  0  0  0  0  0  0  0  0
   -0.5270    1.2180   -0.1840 C   0  0  0  0  0  0  0  0  0  0  0  0
   -0.3280    2.4230   -0.1090 O   0  0  0  0  0  0  0  0  0  0  0  0
    0.5220    0.1800   -0.5020 C   0  0  1  0  0  0  0  0  0  0  0  0
    0.2800   -0.1890   -1.8280 O   0  0  0  0  0  0  0  0  0  0  0  0
    6.4740   -0.3550   -1.9460 H   0  0  0  0  0  0  0  0  0  0  0  0
    8.1630    0.0540   -1.6230 H   0  0  0  0  0  0  0  0  0  0  0  0
    7.5570   -1.5610   -1.2410 H   0  0  0  0  0  0  0  0  0  0  0  0
    8.9670    0.2330    0.8770 H   0  0  0  0  0  0  0  0  0  0  0  0
    7.7800    0.0880    2.1830 H   0  0  0  0  0  0  0  0  0  0  0  0
    8.2710   -1.3420    1.2700 H   0  0  0  0  0  0  0  0  0  0  0  0
    7.4240    2.1410    0.1250 H   0  0  0  0  0  0  0  0  0  0  0  0
    5.0370    2.9110   -0.0610 H   0  0  0  0  0  0  0  0  0  0  0  0
    2.6600    2.2330   -0.5850 H   0  0  0  0  0  0  0  0  0  0  0  0
    3.8990   -2.4970    0.7090 H   0  0  0  0  0  0  0  0  0  0  0  0
    0.0060   -0.7580    1.4950 H   0  0  0  0  0  0  0  0  0  0  0  0
   -3.4400   -2.4350   -0.1730 H   0  0  0  0  0  0  0  0  0  0  0  0
   -7.9620   -2.1080    0.1240 H   0  0  0  0  0  0  0  0  0  0  0  0
   -8.8540   -0.6080    0.4130 H   0  0  0  0  0  0  0  0  0  0  0  0
   -8.0260   -0.8690   -1.1330 H   0  0  0  0  0  0  0  0  0  0  0  0
   -5.6760   -0.1340    2.4600 H   0  0  0  0  0  0  0  0  0  0  0  0
   -7.4380   -0.0750    2.5670 H   0  0  0  0  0  0  0  0  0  0  0  0
   -6.6190   -1.6240    2.3300 H   0  0  0  0  0  0  0  0  0  0  0  0
   -7.5990    1.6330    0.2340 H   0  0  0  0  0  0  0  0  0  0  0  0
   -5.3990    2.7790   -0.1990 H   0  0  0  0  0  0  0  0  0  0  0  0
   -1.9560    3.0810   -0.0210 H   0  0  0  0  0  0  0  0  0  0  0  0
    0.9650    0.2150   -2.3700 H   0  0  0  0  0  0  0  0  0  0  0  0
  1 33  1  0
  1 34  1  0
  1 35  1  0
  2  1  1  6
  2  4  1  0
  2 12  1  0
  2  3  1  0
  3 36  1  0
  3 38  1  0
  3 37  1  0
  4  5  2  0
  4 39  1  0
  5 40  1  0
  5  6  1  0
  6  7  2  0
  6 11  1  0
  7 41  1  0
  7  8  1  0
  8 31  1  0
  8  9  2  0
  9 13  1  0
  9 10  1  0
 10 11  2  0
 10 42  1  0
 11 12  1  0
 13 14  1  0
 14 31  1  0
 14 15  1  0
 14 43  1  1
 15 16  1  0
 16 17  2  0
 16 28  1  0
 17 44  1  0
 17 18  1  0
 18 19  1  0
 18 25  2  0
 19 20  1  0
 20 21  1  6
 20 23  1  0
 20 22  1  0
 21 47  1  0
 21 45  1  0
 21 46  1  0
 22 50  1  0
 22 48  1  0
 22 49  1  0
 23 24  2  0
 23 51  1  0
 24 52  1  0
 24 25  1  0
 25 26  1  0
 26 28  2  0
 26 27  1  0
 27 53  1  0
 28 29  1  0
 29 31  1  0
 29 30  2  0
 31 32  1  6
 32 54  1  0
M  END
>  <id>  (245) 
347

>  <scaffolds>  (245) 
['c1ccccc1', 'c1ccc(CCc2ccccc2)cc1', 'C1=Cc2ccccc2OC1', 'O=C1c2ccccc2OC2Oc3cc4c(cc3C12)C=CCO4', 'O=C1c2cc3c(cc2OC2Oc4cc5c(cc4C12)C=CCO5)OCC=C3', 'c1ccc(CCOc2ccccc2)cc1']

>  <name>  (245) 
Kraussianone 4

>  <formula>  (245) 
C25H22O7

>  <SMILES>  (245) 
CC2(C)C=Cc1cc5c(cc1O2)OC6Oc4cc3OC(C)(C)C=Cc3c(O)c4C(=O)C56O

>  <ChEMBL_id>  (245) 


>  <ZINC_id>  (245) 


>  <PubChem_id>  (245) 


>  <DrugBank_id>  (245) 


>  <CAS_no>  (245) 
497858-68-1

>  <references>  (245) 
[{'journal': {'name': 'Phytochemistry', 'id': 10}, 'title': 'Pyrano-isoflavones with erectile-dysfunction activity from Eriosema kraussianum', 'year': 2002, 'start_page': 739, 'volume': 59, 'issue': 7, 'doi': '10.1016/S0031-9422(02)00035-3', 'isbn': '', 'despositor': {'code': 'NFA', 'first_name': 'Ngonidzashe', 'last_name': 'Faya', 'id': 21}, 'refauthors_set': [{'author': {'first_name': 'Siegfried', 'initials': 'SE', 'last_name': 'Drewes', 'id': 613}, 'first_author': True, 'id': 839}, {'author': {'first_name': 'Marion', 'initials': 'MM', 'last_name': 'Horn', 'id': 614}, 'first_author': None, 'id': 1235}, {'author': {'first_name': 'Orde', 'initials': 'OQ', 'last_name': 'Munro', 'id': 615}, 'first_author': None, 'id': 1236}, {'author': {'first_name': 'Jabu', 'initials': 'JTB', 'last_name': 'Dhlamini', 'id': 616}, 'first_author': None, 'id': 1237}, {'author': {'first_name': 'Jacobus', 'initials': 'JM', 'last_name': 'Meyer', 'id': 716}, 'first_author': None, 'id': 1238}, {'author': {'first_name': '', 'initials': 'NC', 'last_name': 'Rakuambo', 'id': 609}, 'first_author': None, 'id': 1239}], 'id': 290}]

>  <classifications>  (245) 
[{'classification': 'Pyrano-isoflavone', 'id': 816}, {'classification': 'Isoflavonoids (Classyfire)', 'id': 963}]

>  <molecular_mass>  (245) 
434.44

$$$$
SANC00348_minRM1.pdb
     RDKit          3D

 56 60  0  0  1  0  0  0  0  0999 V2000
    8.4220   -0.6090    0.4270 C   0  0  0  0  0  0  0  0  0  0  0  0
    7.4530   -1.0780   -0.5980 C   0  0  0  0  0  0  0  0  0  0  0  0
    8.0550   -1.5630   -1.8690 C   0  0  0  0  0  0  0  0  0  0  0  0
    6.1320   -1.0780   -0.4080 C   0  0  0  0  0  0  0  0  0  0  0  0
    5.4710   -0.6510    0.8590 C   0  0  0  0  0  0  0  0  0  0  0  0
    4.1770    0.0310    0.5570 C   0  0  0  0  0  0  0  0  0  0  0  0
    4.1430    1.3860    0.2100 C   0  0  0  0  0  0  0  0  0  0  0  0
    5.2490    2.1460    0.0760 O   0  0  0  0  0  0  0  0  0  0  0  0
    2.9460    2.0910   -0.0090 C   0  0  0  0  0  0  0  0  0  0  0  0
    1.7610    1.3830    0.0880 C   0  0  0  0  0  0  0  0  0  0  0  0
    0.6180    2.1310   -0.0620 O   0  0  0  0  0  0  0  0  0  0  0  0
   -0.4710    1.4230    0.4690 C   0  0  1  0  0  0  0  0  0  0  0  0
   -1.6620    2.1430    0.1940 O   0  0  0  0  0  0  0  0  0  0  0  0
   -2.6250    1.1600    0.0990 C   0  0  0  0  0  0  0  0  0  0  0  0
   -3.9730    1.4030    0.2100 C   0  0  0  0  0  0  0  0  0  0  0  0
   -4.7920    0.2590    0.1520 C   0  0  0  0  0  0  0  0  0  0  0  0
   -6.1170    0.5050    0.3100 O   0  0  0  0  0  0  0  0  0  0  0  0
   -7.0220   -0.4840   -0.1630 C   0  0  1  0  0  0  0  0  0  0  0  0
   -8.2840   -0.2470    0.6720 C   0  0  0  0  0  0  0  0  0  0  0  0
   -7.2680   -0.2120   -1.6480 C   0  0  0  0  0  0  0  0  0  0  0  0
   -6.5230   -1.8870    0.0040 C   0  0  0  0  0  0  0  0  0  0  0  0
   -5.2160   -2.1410    0.0600 C   0  0  0  0  0  0  0  0  0  0  0  0
   -4.2790   -1.0370    0.0180 C   0  0  0  0  0  0  0  0  0  0  0  0
   -2.9020   -1.2400   -0.1260 C   0  0  0  0  0  0  0  0  0  0  0  0
   -2.0880   -0.1390   -0.0960 C   0  0  0  0  0  0  0  0  0  0  0  0
   -0.6270    0.0580   -0.2950 C   0  0  1  0  0  0  0  0  0  0  0  0
   -0.3210    0.2620   -1.6400 O   0  0  0  0  0  0  0  0  0  0  0  0
    0.5080   -0.7820    0.2390 C   0  0  0  0  0  0  0  0  0  0  0  0
    0.4450   -1.9800    0.4910 O   0  0  0  0  0  0  0  0  0  0  0  0
    1.7350   -0.0080    0.3380 C   0  0  0  0  0  0  0  0  0  0  0  0
    2.9580   -0.6610    0.5840 C   0  0  0  0  0  0  0  0  0  0  0  0
    3.0150   -1.9690    0.8590 O   0  0  0  0  0  0  0  0  0  0  0  0
    9.4720   -0.7830    0.1450 H   0  0  0  0  0  0  0  0  0  0  0  0
    8.3300    0.4720    0.6140 H   0  0  0  0  0  0  0  0  0  0  0  0
    8.2830   -1.1190    1.3940 H   0  0  0  0  0  0  0  0  0  0  0  0
    8.6650   -2.4690   -1.7010 H   0  0  0  0  0  0  0  0  0  0  0  0
    7.3110   -1.8240   -2.6420 H   0  0  0  0  0  0  0  0  0  0  0  0
    8.7150   -0.8020   -2.3210 H   0  0  0  0  0  0  0  0  0  0  0  0
    5.4480   -1.4440   -1.1810 H   0  0  0  0  0  0  0  0  0  0  0  0
    5.3270   -1.5420    1.5110 H   0  0  0  0  0  0  0  0  0  0  0  0
    6.1060    0.0200    1.4820 H   0  0  0  0  0  0  0  0  0  0  0  0
    6.0320    1.6020    0.2270 H   0  0  0  0  0  0  0  0  0  0  0  0
    2.9590    3.1570   -0.2570 H   0  0  0  0  0  0  0  0  0  0  0  0
   -0.3710    1.3010    1.5840 H   0  0  0  0  0  0  0  0  0  0  0  0
   -4.3860    2.4070    0.3380 H   0  0  0  0  0  0  0  0  0  0  0  0
   -8.6440    0.7890    0.5970 H   0  0  0  0  0  0  0  0  0  0  0  0
   -9.1070   -0.8940    0.3360 H   0  0  0  0  0  0  0  0  0  0  0  0
   -8.1200   -0.4540    1.7370 H   0  0  0  0  0  0  0  0  0  0  0  0
   -6.3520   -0.3350   -2.2410 H   0  0  0  0  0  0  0  0  0  0  0  0
   -8.0210   -0.9000   -2.0600 H   0  0  0  0  0  0  0  0  0  0  0  0
   -7.6360    0.8080   -1.8260 H   0  0  0  0  0  0  0  0  0  0  0  0
   -7.2820   -2.6710    0.0410 H   0  0  0  0  0  0  0  0  0  0  0  0
   -4.8150   -3.1550    0.1520 H   0  0  0  0  0  0  0  0  0  0  0  0
   -2.4870   -2.2460   -0.2450 H   0  0  0  0  0  0  0  0  0  0  0  0
   -0.9880   -0.1830   -2.1760 H   0  0  0  0  0  0  0  0  0  0  0  0
    2.1250   -2.3870    0.7900 H   0  0  0  0  0  0  0  0  0  0  0  0
  1  2  1  0
  1 33  1  0
  1 34  1  0
  1 35  1  0
  2  3  1  0
  2  4  2  0
  3 37  1  0
  3 38  1  0
  3 36  1  0
  4 39  1  0
  4  5  1  0
  5  6  1  0
  5 41  1  0
  5 40  1  0
  6  7  2  0
  6 31  1  0
  7  9  1  0
  7  8  1  0
  8 42  1  0
  9 43  1  0
  9 10  2  0
 10 11  1  0
 10 30  1  0
 11 12  1  0
 12 26  1  0
 12 13  1  0
 12 44  1  1
 13 14  1  0
 14 25  2  0
 14 15  1  0
 15 16  2  0
 15 45  1  0
 16 23  1  0
 16 17  1  0
 17 18  1  0
 18 20  1  6
 18 21  1  0
 18 19  1  0
 19 47  1  0
 19 46  1  0
 19 48  1  0
 20 49  1  0
 20 50  1  0
 20 51  1  0
 21 52  1  0
 21 22  2  0
 22 23  1  0
 22 53  1  0
 23 24  2  0
 24 54  1  0
 24 25  1  0
 25 26  1  0
 26 27  1  6
 26 28  1  0
 27 55  1  0
 28 30  1  0
 28 29  2  0
 30 31  2  0
 31 32  1  0
 32 56  1  0
M  END
>  <id>  (246) 
348

>  <scaffolds>  (246) 
['c1ccccc1', 'c1ccc(CCc2ccccc2)cc1', 'C1=Cc2ccccc2OC1', 'O=C1c2ccccc2OC2Oc3cc4c(cc3C12)C=CCO4', 'c1ccc(CCOc2ccccc2)cc1']

>  <name>  (246) 
Kraussianone 5

>  <formula>  (246) 
C25H24O7

>  <SMILES>  (246) 
C/C(C)=C\Cc5c(O)cc4OC3Oc2cc1OC(C)(C)C=Cc1cc2C3(O)C(=O)c4c5O

>  <ChEMBL_id>  (246) 


>  <ZINC_id>  (246) 


>  <PubChem_id>  (246) 


>  <DrugBank_id>  (246) 


>  <CAS_no>  (246) 
497858-69-2

>  <references>  (246) 
[{'journal': {'name': 'Phytochemistry', 'id': 10}, 'title': 'Pyrano-isoflavones with erectile-dysfunction activity from Eriosema kraussianum', 'year': 2002, 'start_page': 739, 'volume': 59, 'issue': 7, 'doi': '10.1016/S0031-9422(02)00035-3', 'isbn': '', 'despositor': {'code': 'NFA', 'first_name': 'Ngonidzashe', 'last_name': 'Faya', 'id': 21}, 'refauthors_set': [{'author': {'first_name': 'Siegfried', 'initials': 'SE', 'last_name': 'Drewes', 'id': 613}, 'first_author': True, 'id': 839}, {'author': {'first_name': 'Marion', 'initials': 'MM', 'last_name': 'Horn', 'id': 614}, 'first_author': None, 'id': 1235}, {'author': {'first_name': 'Orde', 'initials': 'OQ', 'last_name': 'Munro', 'id': 615}, 'first_author': None, 'id': 1236}, {'author': {'first_name': 'Jabu', 'initials': 'JTB', 'last_name': 'Dhlamini', 'id': 616}, 'first_author': None, 'id': 1237}, {'author': {'first_name': 'Jacobus', 'initials': 'JM', 'last_name': 'Meyer', 'id': 716}, 'first_author': None, 'id': 1238}, {'author': {'first_name': '', 'initials': 'NC', 'last_name': 'Rakuambo', 'id': 609}, 'first_author': None, 'id': 1239}], 'id': 290}, {'journal': {'name': 'Phytochemistry', 'id': 10}, 'title': 'Minor pyrano-isoflavones from Eriosema kraussianum: activity-, structure-, and chemical reaction studies', 'year': 2004, 'start_page': 1955, 'volume': 64, 'issue': None, 'doi': '10.1016/j.phytochem.2004.04.030', 'isbn': '', 'despositor': {'code': 'NFA', 'first_name': 'Ngonidzashe', 'last_name': 'Faya', 'id': 21}, 'refauthors_set': [{'author': {'first_name': 'Siegfried', 'initials': 'SE', 'last_name': 'Drewes', 'id': 613}, 'first_author': True, 'id': 850}, {'author': {'first_name': 'Marion', 'initials': 'MM', 'last_name': 'Horn', 'id': 614}, 'first_author': None, 'id': 1240}, {'author': {'first_name': 'Fatima', 'initials': 'F', 'last_name': 'Khan', 'id': 623}, 'first_author': None, 'id': 1241}, {'author': {'first_name': 'Orde', 'initials': 'OQ', 'last_name': 'Munro', 'id': 615}, 'first_author': None, 'id': 1242}, {'author': {'first_name': 'Jabu', 'initials': 'JTB', 'last_name': 'Dhlamini', 'id': 616}, 'first_author': None, 'id': 1243}, {'author': {'first_name': '', 'initials': 'NC', 'last_name': 'Rakuambo', 'id': 609}, 'first_author': None, 'id': 1244}, {'author': {'first_name': 'Jacobus', 'initials': 'JM', 'last_name': 'Meyer', 'id': 716}, 'first_author': None, 'id': 1245}], 'id': 294}]

>  <classifications>  (246) 
[{'classification': 'Pyrano-isoflavone', 'id': 816}, {'classification': 'Isoflavonoids (Classyfire)', 'id': 963}]

>  <molecular_mass>  (246) 
436.45

$$$$
SANC00349_minRM1.pdb
     RDKit          3D

 34 36  0  0  1  0  0  0  0  0999 V2000
   -0.9490   -1.1640   -1.2210 H   0  0  0  0  0  0  0  0  0  0  0  0
   -1.1330   -1.0640   -0.1170 C   0  0  1  0  0  0  0  0  0  0  0  0
   -2.3570   -1.9070    0.2450 C   0  0  0  0  0  0  0  0  0  0  0  0
   -3.6050   -1.3450   -0.3360 C   0  0  0  0  0  0  0  0  0  0  0  0
   -3.7090   -0.0830   -0.7460 C   0  0  0  0  0  0  0  0  0  0  0  0
   -2.5820    0.8610   -0.6590 C   0  0  0  0  0  0  0  0  0  0  0  0
   -2.6260    1.9480   -1.2050 O   0  0  0  0  0  0  0  0  0  0  0  0
   -1.3870    0.4220    0.1810 C   0  0  1  0  0  0  0  0  0  0  0  0
   -1.7860    0.6720    1.6320 C   0  0  0  0  0  0  0  0  0  0  0  0
   -0.1650    1.2620   -0.2100 C   0  0  0  0  0  0  0  0  0  0  0  0
    1.0900    0.7450    0.4870 C   0  0  2  0  0  0  0  0  0  0  0  0
    1.0720    1.1430    1.8080 O   0  0  0  0  0  0  0  0  0  0  0  0
    2.2680    1.3160   -0.0790 O   0  0  0  0  0  0  0  0  0  0  0  0
    3.1090    0.3000   -0.4710 C   0  0  0  0  0  0  0  0  0  0  0  0
    4.1880    0.5890   -0.9260 O   0  0  0  0  0  0  0  0  0  0  0  0
    2.4390   -1.0110   -0.2500 C   0  0  0  0  0  0  0  0  0  0  0  0
    3.0740   -2.2800   -0.6220 C   0  0  0  0  0  0  0  0  0  0  0  0
    1.2450   -0.7580    0.2940 C   0  0  0  0  0  0  0  0  0  0  0  0
    0.0970   -1.6120    0.6190 C   0  0  0  0  0  0  0  0  0  0  0  0
   -2.2140   -2.9540   -0.1020 H   0  0  0  0  0  0  0  0  0  0  0  0
   -2.4800   -1.9990    1.3470 H   0  0  0  0  0  0  0  0  0  0  0  0
   -4.4560   -2.0330   -0.4010 H   0  0  0  0  0  0  0  0  0  0  0  0
   -4.6370    0.3130   -1.1720 H   0  0  0  0  0  0  0  0  0  0  0  0
   -2.8150    0.3490    1.8500 H   0  0  0  0  0  0  0  0  0  0  0  0
   -1.1420    0.1540    2.3540 H   0  0  0  0  0  0  0  0  0  0  0  0
   -1.7390    1.7400    1.8910 H   0  0  0  0  0  0  0  0  0  0  0  0
   -0.0100    1.2390   -1.3100 H   0  0  0  0  0  0  0  0  0  0  0  0
   -0.3250    2.3380    0.0220 H   0  0  0  0  0  0  0  0  0  0  0  0
    1.8990    0.8880    2.2330 H   0  0  0  0  0  0  0  0  0  0  0  0
    3.8640   -2.1440   -1.3780 H   0  0  0  0  0  0  0  0  0  0  0  0
    3.5460   -2.7570    0.2520 H   0  0  0  0  0  0  0  0  0  0  0  0
    2.3520   -3.0000   -1.0350 H   0  0  0  0  0  0  0  0  0  0  0  0
   -0.0500   -1.6430    1.7200 H   0  0  0  0  0  0  0  0  0  0  0  0
    0.2840   -2.6700    0.3340 H   0  0  0  0  0  0  0  0  0  0  0  0
  2  1  1  6
  2  8  1  0
  2  3  1  0
  2 19  1  0
  3  4  1  0
  3 20  1  0
  3 21  1  0
  4  5  2  0
  4 22  1  0
  5 23  1  0
  5  6  1  0
  6  7  2  0
  6  8  1  0
  8 10  1  0
  8  9  1  1
  9 24  1  0
  9 26  1  0
  9 25  1  0
 10 27  1  0
 10 28  1  0
 10 11  1  0
 11 13  1  0
 11 18  1  0
 11 12  1  1
 12 29  1  0
 13 14  1  0
 14 15  2  0
 14 16  1  0
 16 17  1  0
 16 18  2  0
 17 30  1  0
 17 32  1  0
 17 31  1  0
 18 19  1  0
 19 34  1  0
 19 33  1  0
M  END
>  <id>  (247) 
349

>  <scaffolds>  (247) 
['C1=CCCCC1', 'C1=CCC2CCCCC2C1', 'C1CCCCC1', 'O=C1C=CCCC1']

>  <name>  (247) 
9a[beta]-hydroxy- 4a[alpha]H-3,5[alpha],8[beta]a- trimethyl-4,4a,8a,9-tetrahydronaphtho-([2,3b]-dihydrofuran-2-one)-8-one

>  <formula>  (247) 
C14H16O4

>  <SMILES>  (247) 
[H][C@]13CC=CC(=O)[C@]1(C)C[C@]2(O)OC(=O)C(C)=C2C3

>  <ChEMBL_id>  (247) 


>  <ZINC_id>  (247) 


>  <PubChem_id>  (247) 


>  <DrugBank_id>  (247) 


>  <CAS_no>  (247) 
1187534-32-2

>  <references>  (247) 
[{'journal': {'name': 'Journal of Ethnopharmacology', 'id': 7}, 'title': 'The bioactivity of novel furanoterpenoids isolated from Siphonochilus aethiopicus', 'year': 2009, 'start_page': 92, 'volume': 121, 'issue': None, 'doi': '10.1016/j.jep.2008.10.007', 'isbn': '', 'despositor': {'code': 'DLP', 'first_name': 'David', 'last_name': 'Penkler', 'id': 23}, 'refauthors_set': [{'author': {'first_name': 'Carmen', 'initials': 'CA', 'last_name': 'Lategan', 'id': 488}, 'first_author': True, 'id': 846}, {'author': {'first_name': 'William', 'initials': 'WE', 'last_name': 'Campbell', 'id': 621}, 'first_author': False, 'id': 847}, {'author': {'first_name': 'Tracy', 'initials': 'T', 'last_name': 'Seaman', 'id': 622}, 'first_author': False, 'id': 848}, {'author': {'first_name': 'Peter', 'initials': 'PJ', 'last_name': 'Smith', 'id': 490}, 'first_author': False, 'id': 849}], 'id': 293}]

>  <classifications>  (247) 
[{'classification': 'Furanoterpenoid', 'id': 779}, {'classification': 'Terpenoid', 'id': 839}, {'classification': 'Naphthofurans (Classyfire)', 'id': 974}]

>  <molecular_mass>  (247) 
248.27

$$$$
SANC00350_minRM1.pdb
     RDKit          3D

 36 38  0  0  0  0  0  0  0  0999 V2000
    6.4680    1.2490    0.1210 C   0  0  0  0  0  0  0  0  0  0  0  0
    5.1900    1.5360    0.6250 O   0  0  0  0  0  0  0  0  0  0  0  0
    4.2230    0.5900    0.4540 C   0  0  0  0  0  0  0  0  0  0  0  0
    4.3980   -0.6410   -0.1700 C   0  0  0  0  0  0  0  0  0  0  0  0
    3.3090   -1.4970   -0.2810 C   0  0  0  0  0  0  0  0  0  0  0  0
    2.0650   -1.1290    0.2140 C   0  0  0  0  0  0  0  0  0  0  0  0
    0.9450   -2.0510    0.0960 C   0  0  0  0  0  0  0  0  0  0  0  0
   -0.2730   -1.6870   -0.3070 C   0  0  0  0  0  0  0  0  0  0  0  0
   -1.4250   -2.6370   -0.3720 C   0  0  0  0  0  0  0  0  0  0  0  0
   -2.5440   -2.1750    0.3560 O   0  0  0  0  0  0  0  0  0  0  0  0
   -2.8770   -0.8670    0.2060 C   0  0  0  0  0  0  0  0  0  0  0  0
   -4.1390   -0.5070    0.6590 C   0  0  0  0  0  0  0  0  0  0  0  0
   -4.4940    0.8460    0.5560 C   0  0  0  0  0  0  0  0  0  0  0  0
   -5.7270    1.1370    1.0250 O   0  0  0  0  0  0  0  0  0  0  0  0
   -3.6620    1.8120   -0.0110 C   0  0  0  0  0  0  0  0  0  0  0  0
   -2.4110    1.3990   -0.4790 C   0  0  0  0  0  0  0  0  0  0  0  0
   -1.6470    2.3450   -1.0360 O   0  0  0  0  0  0  0  0  0  0  0  0
   -1.9880    0.0640   -0.3480 C   0  0  0  0  0  0  0  0  0  0  0  0
   -0.6450   -0.3290   -0.7250 C   0  0  0  0  0  0  0  0  0  0  0  0
    0.0910    0.4360   -1.3410 O   0  0  0  0  0  0  0  0  0  0  0  0
    1.9090    0.1000    0.8610 C   0  0  0  0  0  0  0  0  0  0  0  0
    2.9800    0.9660    0.9860 C   0  0  0  0  0  0  0  0  0  0  0  0
    7.0460    2.1570    0.3550 H   0  0  0  0  0  0  0  0  0  0  0  0
    6.9500    0.3850    0.6050 H   0  0  0  0  0  0  0  0  0  0  0  0
    6.4800    1.1080   -0.9740 H   0  0  0  0  0  0  0  0  0  0  0  0
    5.3570   -0.9570   -0.5820 H   0  0  0  0  0  0  0  0  0  0  0  0
    3.4370   -2.4660   -0.7700 H   0  0  0  0  0  0  0  0  0  0  0  0
    1.1570   -3.0920    0.3820 H   0  0  0  0  0  0  0  0  0  0  0  0
   -1.7160   -2.8190   -1.4330 H   0  0  0  0  0  0  0  0  0  0  0  0
   -1.2220   -3.6300    0.0850 H   0  0  0  0  0  0  0  0  0  0  0  0
   -4.8290   -1.2430    1.0780 H   0  0  0  0  0  0  0  0  0  0  0  0
   -5.8310    2.0980    1.0690 H   0  0  0  0  0  0  0  0  0  0  0  0
   -3.9610    2.8580   -0.1090 H   0  0  0  0  0  0  0  0  0  0  0  0
   -0.8080    1.9530   -1.3770 H   0  0  0  0  0  0  0  0  0  0  0  0
    0.9400    0.3800    1.2880 H   0  0  0  0  0  0  0  0  0  0  0  0
    2.8610    1.9340    1.4840 H   0  0  0  0  0  0  0  0  0  0  0  0
  1 25  1  0
  1 23  1  0
  1 24  1  0
  1  2  1  0
  2  3  1  0
  3  4  2  0
  3 22  1  0
  4 26  1  0
  4  5  1  0
  5 27  1  0
  5  6  2  0
  6  7  1  0
  6 21  1  0
  7  8  2  0
  7 28  1  0
  8 19  1  0
  8  9  1  0
  9 29  1  0
  9 30  1  0
  9 10  1  0
 10 11  1  0
 11 18  2  0
 11 12  1  0
 12 13  2  0
 12 31  1  0
 13 15  1  0
 13 14  1  0
 14 32  1  0
 15 16  2  0
 15 33  1  0
 16 17  1  0
 16 18  1  0
 17 34  1  0
 18 19  1  0
 19 20  2  0
 21 22  2  0
 21 35  1  0
 22 36  1  0
M  END
>  <id>  (248) 
350

>  <scaffolds>  (248) 
['c1ccccc1', 'O=C1C(=Cc2ccccc2)COc2ccccc21', 'O=C(C=Cc1ccccc1)c1ccccc1', 'C(=Cc1ccccc1)Cc1ccccc1']

>  <name>  (248) 
Eucomin

>  <formula>  (248) 
C17H14O5

>  <SMILES>  (248) 
COc3ccc(C=C2COc1cc(O)cc(O)c1C2=O)cc3

>  <ChEMBL_id>  (248) 


>  <ZINC_id>  (248) 


>  <PubChem_id>  (248) 


>  <DrugBank_id>  (248) 


>  <CAS_no>  (248) 
27589-19-1

>  <references>  (248) 
[{'journal': {'name': 'Biochemical Systematics and Ecology', 'id': 24}, 'title': 'Coincident isolation of a novel homoisoflavonoid from Resnova humifusa and Eucomis montana (Hyacinthoideae: Hyacinthaceae)', 'year': 2006, 'start_page': 114, 'volume': 34, 'issue': None, 'doi': '10.1016/j.bse.2005.08.003', 'isbn': '', 'despositor': {'code': 'rah', 'first_name': 'Rowan', 'last_name': 'Hatherley', 'id': 20}, 'refauthors_set': [{'author': {'first_name': 'Chantal', 'initials': 'C', 'last_name': 'Koorbanally', 'id': 523}, 'first_author': True, 'id': 854}, {'author': {'first_name': 'Neil', 'initials': 'NR', 'last_name': 'Crouch', 'id': 524}, 'first_author': False, 'id': 855}, {'author': {'first_name': 'Avinash', 'initials': 'A', 'last_name': 'Harilal', 'id': 624}, 'first_author': False, 'id': 856}, {'author': {'first_name': 'Bavani', 'initials': 'B', 'last_name': 'Pillay', 'id': 625}, 'first_author': False, 'id': 857}, {'author': {'first_name': 'Dulcie', 'initials': 'DA', 'last_name': 'Mulholland', 'id': 525}, 'first_author': False, 'id': 858}], 'id': 286}]

>  <classifications>  (248) 
[{'classification': 'Flavonoids', 'id': 776}, {'classification': 'Homoisoflavonoid', 'id': 783}, {'classification': 'Homoisoflavonoids (Classyfire)', 'id': 964}]

>  <molecular_mass>  (248) 
298.29

$$$$
SANC00351_minRM1.pdb
     RDKit          3D

 39 41  0  0  1  0  0  0  0  0999 V2000
   -6.3340    0.4940   -0.2220 C   0  0  0  0  0  0  0  0  0  0  0  0
   -5.1170    1.1200    0.0920 O   0  0  0  0  0  0  0  0  0  0  0  0
   -4.0160    0.3210    0.2100 C   0  0  0  0  0  0  0  0  0  0  0  0
   -3.9820   -1.0530    0.0200 C   0  0  0  0  0  0  0  0  0  0  0  0
   -2.7800   -1.7340    0.1830 C   0  0  0  0  0  0  0  0  0  0  0  0
   -1.6210   -1.0550    0.5340 C   0  0  0  0  0  0  0  0  0  0  0  0
   -0.3410   -1.8010    0.7230 C   0  0  0  0  0  0  0  0  0  0  0  0
    0.4050   -1.8850   -0.6160 C   0  0  2  0  0  0  0  0  0  0  0  0
   -0.2680   -2.3230   -1.3950 H   0  0  0  0  0  0  0  0  0  0  0  0
    1.6620   -2.7520   -0.4840 C   0  0  0  0  0  0  0  0  0  0  0  0
    2.5920   -2.2100    0.4250 O   0  0  0  0  0  0  0  0  0  0  0  0
    2.9520   -0.9230    0.1870 C   0  0  0  0  0  0  0  0  0  0  0  0
    4.1530   -0.5080    0.7380 C   0  0  0  0  0  0  0  0  0  0  0  0
    4.5410    0.8190    0.5010 C   0  0  0  0  0  0  0  0  0  0  0  0
    5.7300    1.1570    1.0450 O   0  0  0  0  0  0  0  0  0  0  0  0
    3.7760    1.7170   -0.2430 C   0  0  0  0  0  0  0  0  0  0  0  0
    2.5600    1.2610   -0.7620 C   0  0  0  0  0  0  0  0  0  0  0  0
    1.8480    2.1590   -1.4480 O   0  0  0  0  0  0  0  0  0  0  0  0
    2.1260   -0.0580   -0.5480 C   0  0  0  0  0  0  0  0  0  0  0  0
    0.8270   -0.4960   -1.0200 C   0  0  0  0  0  0  0  0  0  0  0  0
    0.1230    0.2540   -1.6990 O   0  0  0  0  0  0  0  0  0  0  0  0
   -1.6400    0.3260    0.7120 C   0  0  0  0  0  0  0  0  0  0  0  0
   -2.8370    1.0160    0.5380 C   0  0  0  0  0  0  0  0  0  0  0  0
   -2.7860    2.3480    0.7820 O   0  0  0  0  0  0  0  0  0  0  0  0
   -6.6500   -0.2290    0.5490 H   0  0  0  0  0  0  0  0  0  0  0  0
   -7.0580    1.3170   -0.2550 H   0  0  0  0  0  0  0  0  0  0  0  0
   -6.3260   -0.0020   -1.2040 H   0  0  0  0  0  0  0  0  0  0  0  0
   -4.8730   -1.6220   -0.2550 H   0  0  0  0  0  0  0  0  0  0  0  0
   -2.7560   -2.8160    0.0250 H   0  0  0  0  0  0  0  0  0  0  0  0
    0.2960   -1.3360    1.5030 H   0  0  0  0  0  0  0  0  0  0  0  0
   -0.5350   -2.8270    1.1040 H   0  0  0  0  0  0  0  0  0  0  0  0
    1.4440   -3.7540   -0.0640 H   0  0  0  0  0  0  0  0  0  0  0  0
    2.1340   -2.9080   -1.4810 H   0  0  0  0  0  0  0  0  0  0  0  0
    4.7830   -1.1850    1.3190 H   0  0  0  0  0  0  0  0  0  0  0  0
    5.9460    2.0540    0.8040 H   0  0  0  0  0  0  0  0  0  0  0  0
    4.0930    2.7450   -0.4150 H   0  0  0  0  0  0  0  0  0  0  0  0
    1.0010    1.7710   -1.7500 H   0  0  0  0  0  0  0  0  0  0  0  0
   -0.7370    0.8720    1.0060 H   0  0  0  0  0  0  0  0  0  0  0  0
   -3.4650    2.7960    0.2290 H   0  0  0  0  0  0  0  0  0  0  0  0
  1 27  1  0
  1 26  1  0
  1  2  1  0
  1 25  1  0
  2  3  1  0
  3  4  2  0
  3 23  1  0
  4 28  1  0
  4  5  1  0
  5 29  1  0
  5  6  2  0
  6 22  1  0
  6  7  1  0
  7  8  1  0
  7 31  1  0
  7 30  1  0
  8  9  1  6
  8 20  1  0
  8 10  1  0
 10 33  1  0
 10 32  1  0
 10 11  1  0
 11 12  1  0
 12 19  2  0
 12 13  1  0
 13 14  2  0
 13 34  1  0
 14 16  1  0
 14 15  1  0
 15 35  1  0
 16 17  2  0
 16 36  1  0
 17 18  1  0
 17 19  1  0
 18 37  1  0
 19 20  1  0
 20 21  2  0
 22 23  2  0
 22 38  1  0
 23 24  1  0
 24 39  1  0
M  END
>  <id>  (249) 
351

>  <scaffolds>  (249) 
['c1ccccc1', 'O=C1c2ccccc2OCC1Cc1ccccc1', 'O=C(CCc1ccccc1)c1ccccc1']

>  <name>  (249) 
5,7-dihydroxy-3-(3'-hydroxy-4'-methoxybenzyl)-4-chromanone

>  <formula>  (249) 
C17H16O6

>  <SMILES>  (249) 
COc3ccc(C[C@@H]2COc1cc(O)cc(O)c1C2=O)cc3O

>  <ChEMBL_id>  (249) 


>  <ZINC_id>  (249) 


>  <PubChem_id>  (249) 


>  <DrugBank_id>  (249) 


>  <CAS_no>  (249) 
96910-99-5

>  <references>  (249) 
[{'journal': {'name': 'Biochemical Systematics and Ecology', 'id': 24}, 'title': 'Coincident isolation of a novel homoisoflavonoid from Resnova humifusa and Eucomis montana (Hyacinthoideae: Hyacinthaceae)', 'year': 2006, 'start_page': 114, 'volume': 34, 'issue': None, 'doi': '10.1016/j.bse.2005.08.003', 'isbn': '', 'despositor': {'code': 'rah', 'first_name': 'Rowan', 'last_name': 'Hatherley', 'id': 20}, 'refauthors_set': [{'author': {'first_name': 'Chantal', 'initials': 'C', 'last_name': 'Koorbanally', 'id': 523}, 'first_author': True, 'id': 854}, {'author': {'first_name': 'Neil', 'initials': 'NR', 'last_name': 'Crouch', 'id': 524}, 'first_author': False, 'id': 855}, {'author': {'first_name': 'Avinash', 'initials': 'A', 'last_name': 'Harilal', 'id': 624}, 'first_author': False, 'id': 856}, {'author': {'first_name': 'Bavani', 'initials': 'B', 'last_name': 'Pillay', 'id': 625}, 'first_author': False, 'id': 857}, {'author': {'first_name': 'Dulcie', 'initials': 'DA', 'last_name': 'Mulholland', 'id': 525}, 'first_author': False, 'id': 858}], 'id': 286}]

>  <classifications>  (249) 
[{'classification': 'Flavonoids', 'id': 776}, {'classification': 'Homoisoflavonoid', 'id': 783}, {'classification': 'Homoisoflavonoids (Classyfire)', 'id': 964}]

>  <molecular_mass>  (249) 
316.3

$$$$
SANC00352_minRM1.pdb
     RDKit          3D

 56 60  0  0  1  0  0  0  0  0999 V2000
   -7.4310   -1.2010   -0.7980 C   0  0  0  0  0  0  0  0  0  0  0  0
   -7.2150   -0.1090    0.2540 C   0  0  1  0  0  0  0  0  0  0  0  0
   -8.4970    0.6870    0.4990 C   0  0  0  0  0  0  0  0  0  0  0  0
   -6.7130   -0.7510    1.5120 C   0  0  0  0  0  0  0  0  0  0  0  0
   -5.4010   -0.9130    1.6980 C   0  0  0  0  0  0  0  0  0  0  0  0
   -4.4840   -0.3930    0.7040 C   0  0  0  0  0  0  0  0  0  0  0  0
   -3.1340   -0.7040    0.6860 C   0  0  0  0  0  0  0  0  0  0  0  0
   -2.2950   -0.1540   -0.2780 C   0  0  0  0  0  0  0  0  0  0  0  0
   -0.8840   -0.4950   -0.2620 C   0  0  0  0  0  0  0  0  0  0  0  0
   -0.4900   -1.7720   -0.4250 C   0  0  0  0  0  0  0  0  0  0  0  0
    0.7970   -2.2080   -0.3740 O   0  0  0  0  0  0  0  0  0  0  0  0
    1.7790   -1.2710   -0.1790 C   0  0  0  0  0  0  0  0  0  0  0  0
    3.0770   -1.7550   -0.2130 C   0  0  0  0  0  0  0  0  0  0  0  0
    4.1060   -0.8210    0.0020 C   0  0  0  0  0  0  0  0  0  0  0  0
    5.3450   -1.3710    0.0020 O   0  0  0  0  0  0  0  0  0  0  0  0
    6.4370   -0.4740   -0.1390 C   0  0  1  0  0  0  0  0  0  0  0  0
    7.6610   -1.3210    0.2140 C   0  0  0  0  0  0  0  0  0  0  0  0
    6.5050    0.0060   -1.5840 C   0  0  0  0  0  0  0  0  0  0  0  0
    6.2620    0.6870    0.8690 C   0  0  1  0  0  0  0  0  0  0  0  0
    7.3900    1.4920    0.7250 O   0  0  0  0  0  0  0  0  0  0  0  0
    4.9800    1.4700    0.5470 C   0  0  0  0  0  0  0  0  0  0  0  0
    3.8680    0.5310    0.2560 C   0  0  0  0  0  0  0  0  0  0  0  0
    2.5410    0.9800    0.2290 C   0  0  0  0  0  0  0  0  0  0  0  0
    2.3300    2.2820    0.4280 O   0  0  0  0  0  0  0  0  0  0  0  0
    1.4790    0.0790    0.0160 C   0  0  0  0  0  0  0  0  0  0  0  0
    0.1100    0.5460   -0.0220 C   0  0  0  0  0  0  0  0  0  0  0  0
   -0.1500    1.7510    0.0950 O   0  0  0  0  0  0  0  0  0  0  0  0
   -2.8250    0.7380   -1.2220 C   0  0  0  0  0  0  0  0  0  0  0  0
   -2.0940    1.3200   -2.1960 O   0  0  0  0  0  0  0  0  0  0  0  0
   -4.1840    1.0760   -1.2260 C   0  0  0  0  0  0  0  0  0  0  0  0
   -4.9940    0.4930   -0.2590 C   0  0  0  0  0  0  0  0  0  0  0  0
   -6.3070    0.8440   -0.2810 O   0  0  0  0  0  0  0  0  0  0  0  0
   -6.5060   -1.7540   -1.0090 H   0  0  0  0  0  0  0  0  0  0  0  0
   -8.1840   -1.9320   -0.4700 H   0  0  0  0  0  0  0  0  0  0  0  0
   -7.7800   -0.7880   -1.7560 H   0  0  0  0  0  0  0  0  0  0  0  0
   -9.3120    0.0370    0.8450 H   0  0  0  0  0  0  0  0  0  0  0  0
   -8.3560    1.4690    1.2610 H   0  0  0  0  0  0  0  0  0  0  0  0
   -8.8480    1.1960   -0.4110 H   0  0  0  0  0  0  0  0  0  0  0  0
   -7.4620   -1.1090    2.2200 H   0  0  0  0  0  0  0  0  0  0  0  0
   -4.9830   -1.3960    2.5860 H   0  0  0  0  0  0  0  0  0  0  0  0
   -2.7220   -1.3840    1.4410 H   0  0  0  0  0  0  0  0  0  0  0  0
   -1.1390   -2.6330   -0.6290 H   0  0  0  0  0  0  0  0  0  0  0  0
    3.2970   -2.8070   -0.4050 H   0  0  0  0  0  0  0  0  0  0  0  0
    7.7550   -2.2040   -0.4350 H   0  0  0  0  0  0  0  0  0  0  0  0
    8.5860   -0.7370    0.1030 H   0  0  0  0  0  0  0  0  0  0  0  0
    7.6340   -1.6940    1.2470 H   0  0  0  0  0  0  0  0  0  0  0  0
    5.5760    0.4820   -1.9280 H   0  0  0  0  0  0  0  0  0  0  0  0
    7.3170    0.7340   -1.7260 H   0  0  0  0  0  0  0  0  0  0  0  0
    6.6970   -0.8250   -2.2790 H   0  0  0  0  0  0  0  0  0  0  0  0
    6.2010    0.2640    1.9110 H   0  0  0  0  0  0  0  0  0  0  0  0
    7.3020    2.2340    1.3310 H   0  0  0  0  0  0  0  0  0  0  0  0
    4.7130    2.1230    1.4100 H   0  0  0  0  0  0  0  0  0  0  0  0
    5.1270    2.1780   -0.2970 H   0  0  0  0  0  0  0  0  0  0  0  0
    1.3590    2.4980    0.3870 H   0  0  0  0  0  0  0  0  0  0  0  0
   -1.2010    0.9430   -2.2220 H   0  0  0  0  0  0  0  0  0  0  0  0
   -4.5890    1.7770   -1.9600 H   0  0  0  0  0  0  0  0  0  0  0  0
  1 35  1  0
  1 33  1  0
  1 34  1  0
  2  1  1  6
  2 32  1  0
  2  3  1  0
  2  4  1  0
  3 38  1  0
  3 36  1  0
  3 37  1  0
  4  5  2  0
  4 39  1  0
  5  6  1  0
  5 40  1  0
  6 31  2  0
  6  7  1  0
  7  8  2  0
  7 41  1  0
  8 28  1  0
  8  9  1  0
  9 10  2  0
  9 26  1  0
 10 42  1  0
 10 11  1  0
 11 12  1  0
 12 13  2  0
 12 25  1  0
 13 43  1  0
 13 14  1  0
 14 15  1  0
 14 22  2  0
 15 16  1  0
 16 18  1  6
 16 17  1  0
 16 19  1  0
 17 44  1  0
 17 45  1  0
 17 46  1  0
 18 49  1  0
 18 47  1  0
 18 48  1  0
 19 21  1  0
 19 20  1  0
 19 50  1  1
 20 51  1  0
 21 53  1  0
 21 22  1  0
 21 52  1  0
 22 23  1  0
 23 25  2  0
 23 24  1  0
 24 54  1  0
 25 26  1  0
 26 27  2  0
 28 29  1  0
 28 30  2  0
 29 55  1  0
 30 56  1  0
 30 31  1  0
 31 32  1  0
M  END
>  <id>  (250) 
352

>  <scaffolds>  (250) 
['c1ccccc1', 'O=c1c(-c2ccccc2)coc2ccccc12', 'O=c1c(-c2ccc3c(c2)C=CCO3)coc2ccccc12', 'C1=Cc2ccccc2OC1', 'O=c1ccoc2ccccc12', 'O=c1c(-c2ccc3c(c2)C=CCO3)coc2cc3c(cc12)CCCO3']

>  <name>  (250) 
Kraussianone 6

>  <formula>  (250) 
C25H24O7

>  <SMILES>  (250) 
CC5(C)C=Cc4cc(c3coc2cc1OC(C)(C)C(O)Cc1c(O)c2c3=O)c(O)cc4O5

>  <ChEMBL_id>  (250) 


>  <ZINC_id>  (250) 


>  <PubChem_id>  (250) 


>  <DrugBank_id>  (250) 


>  <CAS_no>  (250) 
761456-86-4

>  <references>  (250) 
[{'journal': {'name': 'Phytochemistry', 'id': 10}, 'title': 'Minor pyrano-isoflavones from Eriosema kraussianum: activity-, structure-, and chemical reaction studies', 'year': 2004, 'start_page': 1955, 'volume': 64, 'issue': None, 'doi': '10.1016/j.phytochem.2004.04.030', 'isbn': '', 'despositor': {'code': 'NFA', 'first_name': 'Ngonidzashe', 'last_name': 'Faya', 'id': 21}, 'refauthors_set': [{'author': {'first_name': 'Siegfried', 'initials': 'SE', 'last_name': 'Drewes', 'id': 613}, 'first_author': True, 'id': 850}, {'author': {'first_name': 'Marion', 'initials': 'MM', 'last_name': 'Horn', 'id': 614}, 'first_author': None, 'id': 1240}, {'author': {'first_name': 'Fatima', 'initials': 'F', 'last_name': 'Khan', 'id': 623}, 'first_author': None, 'id': 1241}, {'author': {'first_name': 'Orde', 'initials': 'OQ', 'last_name': 'Munro', 'id': 615}, 'first_author': None, 'id': 1242}, {'author': {'first_name': 'Jabu', 'initials': 'JTB', 'last_name': 'Dhlamini', 'id': 616}, 'first_author': None, 'id': 1243}, {'author': {'first_name': '', 'initials': 'NC', 'last_name': 'Rakuambo', 'id': 609}, 'first_author': None, 'id': 1244}, {'author': {'first_name': 'Jacobus', 'initials': 'JM', 'last_name': 'Meyer', 'id': 716}, 'first_author': None, 'id': 1245}], 'id': 294}]

>  <classifications>  (250) 
[{'classification': 'Pyrano-isoflavone', 'id': 816}, {'classification': 'Isoflavonoids (Classyfire)', 'id': 963}]

>  <molecular_mass>  (250) 
436.45

$$$$
SANC00353_minRM1.pdb
     RDKit          3D

 33 35  0  0  1  0  0  0  0  0999 V2000
   -0.8680   -0.9660   -1.2650 H   0  0  0  0  0  0  0  0  0  0  0  0
   -1.0580   -1.0040   -0.1590 C   0  0  1  0  0  0  0  0  0  0  0  0
   -2.2790   -1.8900    0.0870 C   0  0  0  0  0  0  0  0  0  0  0  0
   -3.5260   -1.2650   -0.4260 C   0  0  0  0  0  0  0  0  0  0  0  0
   -3.6330    0.0380   -0.6780 C   0  0  0  0  0  0  0  0  0  0  0  0
   -2.5120    0.9690   -0.4700 C   0  0  0  0  0  0  0  0  0  0  0  0
   -2.5580    2.1150   -0.8750 O   0  0  0  0  0  0  0  0  0  0  0  0
   -1.3200    0.4340    0.3150 C   0  0  1  0  0  0  0  0  0  0  0  0
   -1.7200    0.5130    1.7840 C   0  0  0  0  0  0  0  0  0  0  0  0
   -0.0880    1.3080    0.0410 C   0  0  0  0  0  0  0  0  0  0  0  0
    1.1220    0.7290    0.7670 C   0  0  2  0  0  0  0  0  0  0  0  0
    1.0550    0.8520    1.8760 H   0  0  0  0  0  0  0  0  0  0  0  0
    2.3070    1.4000    0.3550 O   0  0  0  0  0  0  0  0  0  0  0  0
    3.1750    0.4720   -0.1760 C   0  0  0  0  0  0  0  0  0  0  0  0
    4.2620    0.8490   -0.5410 O   0  0  0  0  0  0  0  0  0  0  0  0
    2.5250   -0.8630   -0.1850 C   0  0  0  0  0  0  0  0  0  0  0  0
    3.1960   -2.0510   -0.7240 C   0  0  0  0  0  0  0  0  0  0  0  0
    1.3090   -0.7120    0.3530 C   0  0  0  0  0  0  0  0  0  0  0  0
    0.1730   -1.6310    0.5090 C   0  0  0  0  0  0  0  0  0  0  0  0
   -2.1280   -2.8840   -0.3900 H   0  0  0  0  0  0  0  0  0  0  0  0
   -2.4100   -2.1260    1.1670 H   0  0  0  0  0  0  0  0  0  0  0  0
   -4.3750   -1.9410   -0.5800 H   0  0  0  0  0  0  0  0  0  0  0  0
   -4.5610    0.4800   -1.0590 H   0  0  0  0  0  0  0  0  0  0  0  0
   -2.7230    0.1020    1.9730 H   0  0  0  0  0  0  0  0  0  0  0  0
   -1.0360   -0.0300    2.4490 H   0  0  0  0  0  0  0  0  0  0  0  0
   -1.7460    1.5530    2.1450 H   0  0  0  0  0  0  0  0  0  0  0  0
    0.1060    1.3810   -1.0510 H   0  0  0  0  0  0  0  0  0  0  0  0
   -0.2600    2.3600    0.3530 H   0  0  0  0  0  0  0  0  0  0  0  0
    4.0000   -1.7880   -1.4290 H   0  0  0  0  0  0  0  0  0  0  0  0
    3.6590   -2.6440    0.0830 H   0  0  0  0  0  0  0  0  0  0  0  0
    2.5000   -2.7170   -1.2580 H   0  0  0  0  0  0  0  0  0  0  0  0
    0.0060   -1.8440    1.5870 H   0  0  0  0  0  0  0  0  0  0  0  0
    0.3910   -2.6260    0.0640 H   0  0  0  0  0  0  0  0  0  0  0  0
  2  1  1  6
  2  3  1  0
  2  8  1  0
  2 19  1  0
  3  4  1  0
  3 20  1  0
  3 21  1  0
  4  5  2  0
  4 22  1  0
  5 23  1  0
  5  6  1  0
  6  7  2  0
  6  8  1  0
  8 10  1  0
  8  9  1  1
  9 24  1  0
  9 26  1  0
  9 25  1  0
 10 27  1  0
 10 28  1  0
 10 11  1  0
 11 18  1  0
 11 13  1  0
 11 12  1  1
 13 14  1  0
 14 15  2  0
 14 16  1  0
 16 17  1  0
 16 18  2  0
 17 29  1  0
 17 31  1  0
 17 30  1  0
 18 19  1  0
 19 33  1  0
 19 32  1  0
M  END
>  <id>  (251) 
353

>  <scaffolds>  (251) 
['C1=CCCCC1', 'C1=CCC2CCCCC2C1', 'C1CCCCC1', 'O=C1C=CCCC1']

>  <name>  (251) 
4a[alpha]H-3,5[alpha],8[beta]a- trimethyl-4,4a,8a,9-tetrahydronaphtho-([2,3b]-dihydrofuran-2-one)-8-one

>  <formula>  (251) 
C14H16O3

>  <SMILES>  (251) 
[H][C@]13CC=CC(=O)[C@]1(C)C[C@]2([H])OC(=O)C(C)=C2C3

>  <ChEMBL_id>  (251) 


>  <ZINC_id>  (251) 


>  <PubChem_id>  (251) 


>  <DrugBank_id>  (251) 


>  <CAS_no>  (251) 
1187534-33-3

>  <references>  (251) 
[{'journal': {'name': 'Journal of Ethnopharmacology', 'id': 7}, 'title': 'The bioactivity of novel furanoterpenoids isolated from Siphonochilus aethiopicus', 'year': 2009, 'start_page': 92, 'volume': 121, 'issue': None, 'doi': '10.1016/j.jep.2008.10.007', 'isbn': '', 'despositor': {'code': 'DLP', 'first_name': 'David', 'last_name': 'Penkler', 'id': 23}, 'refauthors_set': [{'author': {'first_name': 'Carmen', 'initials': 'CA', 'last_name': 'Lategan', 'id': 488}, 'first_author': True, 'id': 846}, {'author': {'first_name': 'William', 'initials': 'WE', 'last_name': 'Campbell', 'id': 621}, 'first_author': False, 'id': 847}, {'author': {'first_name': 'Tracy', 'initials': 'T', 'last_name': 'Seaman', 'id': 622}, 'first_author': False, 'id': 848}, {'author': {'first_name': 'Peter', 'initials': 'PJ', 'last_name': 'Smith', 'id': 490}, 'first_author': False, 'id': 849}], 'id': 293}]

>  <classifications>  (251) 
[{'classification': 'Furanoterpenoid', 'id': 779}, {'classification': 'Terpenoid', 'id': 839}, {'classification': 'Naphthofurans (Classyfire)', 'id': 974}]

>  <molecular_mass>  (251) 
232.27

$$$$
SANC00354_minRM1.pdb
     RDKit          3D

 31 33  0  0  1  0  0  0  0  0999 V2000
   -0.9760   -0.7230   -1.4430 H   0  0  0  0  0  0  0  0  0  0  0  0
   -1.0880   -0.9530   -0.3490 C   0  0  1  0  0  0  0  0  0  0  0  0
   -2.2590   -1.9190   -0.1750 C   0  0  0  0  0  0  0  0  0  0  0  0
   -3.5580   -1.2710   -0.4930 C   0  0  0  0  0  0  0  0  0  0  0  0
   -3.7230    0.0490   -0.5220 C   0  0  0  0  0  0  0  0  0  0  0  0
   -2.6200    0.9840   -0.2410 C   0  0  0  0  0  0  0  0  0  0  0  0
   -2.7360    2.1770   -0.4500 O   0  0  0  0  0  0  0  0  0  0  0  0
   -1.3610    0.3820    0.3690 C   0  0  1  0  0  0  0  0  0  0  0  0
   -1.6390    0.2200    1.8620 C   0  0  0  0  0  0  0  0  0  0  0  0
   -0.1910    1.3090    0.2290 C   0  0  0  0  0  0  0  0  0  0  0  0
    1.0180    0.7680    0.1080 C   0  0  0  0  0  0  0  0  0  0  0  0
    2.1910    1.4930    0.0160 O   0  0  0  0  0  0  0  0  0  0  0  0
    3.2240    0.5660   -0.0940 C   0  0  0  0  0  0  0  0  0  0  0  0
    4.3480    0.9910   -0.1850 O   0  0  0  0  0  0  0  0  0  0  0  0
    2.6530   -0.8060   -0.0740 C   0  0  0  0  0  0  0  0  0  0  0  0
    3.4970   -2.0000   -0.1670 C   0  0  0  0  0  0  0  0  0  0  0  0
    1.3210   -0.6680    0.0460 C   0  0  0  0  0  0  0  0  0  0  0  0
    0.2080   -1.6260    0.1250 C   0  0  0  0  0  0  0  0  0  0  0  0
   -2.1110   -2.8120   -0.8210 H   0  0  0  0  0  0  0  0  0  0  0  0
   -2.3040   -2.3360    0.8560 H   0  0  0  0  0  0  0  0  0  0  0  0
   -4.3960   -1.9490   -0.6970 H   0  0  0  0  0  0  0  0  0  0  0  0
   -4.6890    0.5060   -0.7640 H   0  0  0  0  0  0  0  0  0  0  0  0
   -2.5500   -0.3580    2.0680 H   0  0  0  0  0  0  0  0  0  0  0  0
   -0.8120   -0.2750    2.3890 H   0  0  0  0  0  0  0  0  0  0  0  0
   -1.7760    1.1970    2.3520 H   0  0  0  0  0  0  0  0  0  0  0  0
   -0.3580    2.3890    0.2690 H   0  0  0  0  0  0  0  0  0  0  0  0
    3.9430   -2.2470    0.8100 H   0  0  0  0  0  0  0  0  0  0  0  0
    2.9360   -2.8850   -0.5010 H   0  0  0  0  0  0  0  0  0  0  0  0
    4.3330   -1.8570   -0.8700 H   0  0  0  0  0  0  0  0  0  0  0  0
    0.1240   -2.0080    1.1660 H   0  0  0  0  0  0  0  0  0  0  0  0
    0.4210   -2.5310   -0.4850 H   0  0  0  0  0  0  0  0  0  0  0  0
  2  1  1  6
  2  3  1  0
  2 18  1  0
  2  8  1  0
  3 19  1  0
  3  4  1  0
  3 20  1  0
  4 21  1  0
  4  5  2  0
  5 22  1  0
  5  6  1  0
  6  7  2  0
  6  8  1  0
  8 10  1  0
  8  9  1  1
  9 23  1  0
  9 25  1  0
  9 24  1  0
 10 11  2  0
 10 26  1  0
 11 12  1  0
 11 17  1  0
 12 13  1  0
 13 14  2  0
 13 15  1  0
 15 16  1  0
 15 17  2  0
 16 29  1  0
 16 28  1  0
 16 27  1  0
 17 18  1  0
 18 31  1  0
 18 30  1  0
M  END
>  <id>  (252) 
354

>  <scaffolds>  (252) 
['C1=CCCCC1', 'O=C1C=CCCC1', 'C=C1C=CCCC1']

>  <name>  (252) 
4a[alpha]H-3,5[alpha],8[beta]a- trimethyl-4,4a,8a-trihydronaphtho-([2,3b]-dihydrofuran-2- one)-8-one

>  <formula>  (252) 
C14H16O3

>  <SMILES>  (252) 
[H][C@]13CC=CC(=O)[C@]1(C)C=c2oc(=O)c(C)c2C3

>  <ChEMBL_id>  (252) 


>  <ZINC_id>  (252) 


>  <PubChem_id>  (252) 


>  <DrugBank_id>  (252) 


>  <CAS_no>  (252) 
1187534-34-4

>  <references>  (252) 
[{'journal': {'name': 'Journal of Ethnopharmacology', 'id': 7}, 'title': 'The bioactivity of novel furanoterpenoids isolated from Siphonochilus aethiopicus', 'year': 2009, 'start_page': 92, 'volume': 121, 'issue': None, 'doi': '10.1016/j.jep.2008.10.007', 'isbn': '', 'despositor': {'code': 'DLP', 'first_name': 'David', 'last_name': 'Penkler', 'id': 23}, 'refauthors_set': [{'author': {'first_name': 'Carmen', 'initials': 'CA', 'last_name': 'Lategan', 'id': 488}, 'first_author': True, 'id': 846}, {'author': {'first_name': 'William', 'initials': 'WE', 'last_name': 'Campbell', 'id': 621}, 'first_author': False, 'id': 847}, {'author': {'first_name': 'Tracy', 'initials': 'T', 'last_name': 'Seaman', 'id': 622}, 'first_author': False, 'id': 848}, {'author': {'first_name': 'Peter', 'initials': 'PJ', 'last_name': 'Smith', 'id': 490}, 'first_author': False, 'id': 849}], 'id': 293}]

>  <classifications>  (252) 
[{'classification': 'Furanoterpenoid', 'id': 779}, {'classification': 'Terpenoid', 'id': 839}, {'classification': 'Naphthofurans (Classyfire)', 'id': 974}]

>  <molecular_mass>  (252) 
232.27

$$$$
SANC00355_minRM1.pdb
     RDKit          3D

 56 59  0  0  1  0  0  0  0  0999 V2000
    8.1930   -1.1020   -1.1890 C   0  0  0  0  0  0  0  0  0  0  0  0
    7.0840   -1.5410   -0.6050 C   0  0  0  0  0  0  0  0  0  0  0  0
    7.0960   -2.6950    0.3310 C   0  0  0  0  0  0  0  0  0  0  0  0
    5.7560   -0.8640   -0.8430 C   0  0  1  0  0  0  0  0  0  0  0  0
    4.8210   -1.7370   -1.3920 O   0  0  0  0  0  0  0  0  0  0  0  0
    5.2730   -0.2380    0.4820 C   0  0  0  0  0  0  0  0  0  0  0  0
    4.0070    0.5160    0.2750 C   0  0  0  0  0  0  0  0  0  0  0  0
    4.0080    1.8830   -0.0320 C   0  0  0  0  0  0  0  0  0  0  0  0
    5.1360    2.6080   -0.1850 O   0  0  0  0  0  0  0  0  0  0  0  0
    2.8340    2.6310   -0.2020 C   0  0  0  0  0  0  0  0  0  0  0  0
    1.6320    1.9540   -0.0720 C   0  0  0  0  0  0  0  0  0  0  0  0
    0.5090    2.7090   -0.2530 O   0  0  0  0  0  0  0  0  0  0  0  0
   -0.6970    2.1030   -0.1250 C   0  0  0  0  0  0  0  0  0  0  0  0
   -0.8800    0.8000    0.1680 C   0  0  0  0  0  0  0  0  0  0  0  0
   -2.2330    0.2700    0.2350 C   0  0  0  0  0  0  0  0  0  0  0  0
   -3.0190    0.2870   -0.9130 C   0  0  0  0  0  0  0  0  0  0  0  0
   -4.3350   -0.1540   -0.8680 C   0  0  0  0  0  0  0  0  0  0  0  0
   -5.2020   -0.1780   -2.0310 C   0  0  0  0  0  0  0  0  0  0  0  0
   -6.5090   -0.3840   -1.8530 C   0  0  0  0  0  0  0  0  0  0  0  0
   -7.0750   -0.5070   -0.4700 C   0  0  1  0  0  0  0  0  0  0  0  0
   -7.4980    0.8800    0.0230 C   0  0  0  0  0  0  0  0  0  0  0  0
   -8.2460   -1.4910   -0.4350 C   0  0  0  0  0  0  0  0  0  0  0  0
   -6.1460   -1.0450    0.4600 O   0  0  0  0  0  0  0  0  0  0  0  0
   -4.8660   -0.6000    0.3500 C   0  0  0  0  0  0  0  0  0  0  0  0
   -4.0950   -0.6680    1.5070 C   0  0  0  0  0  0  0  0  0  0  0  0
   -2.7720   -0.2330    1.4280 C   0  0  0  0  0  0  0  0  0  0  0  0
   -2.0960   -0.2280    2.6050 O   0  0  0  0  0  0  0  0  0  0  0  0
    0.2770   -0.0620    0.3680 C   0  0  0  0  0  0  0  0  0  0  0  0
    0.2120   -1.2620    0.6580 O   0  0  0  0  0  0  0  0  0  0  0  0
    1.5620    0.5900    0.2230 C   0  0  0  0  0  0  0  0  0  0  0  0
    2.7660   -0.1250    0.3830 C   0  0  0  0  0  0  0  0  0  0  0  0
    2.7730   -1.4350    0.6580 O   0  0  0  0  0  0  0  0  0  0  0  0
    8.2280   -0.2620   -1.8750 H   0  0  0  0  0  0  0  0  0  0  0  0
    9.1690   -1.5520   -1.0350 H   0  0  0  0  0  0  0  0  0  0  0  0
    7.2610   -2.3630    1.3670 H   0  0  0  0  0  0  0  0  0  0  0  0
    6.1580   -3.2710    0.3250 H   0  0  0  0  0  0  0  0  0  0  0  0
    7.8940   -3.4160    0.0990 H   0  0  0  0  0  0  0  0  0  0  0  0
    5.8310   -0.0810   -1.6440 H   0  0  0  0  0  0  0  0  0  0  0  0
    4.6200   -2.4230   -0.7430 H   0  0  0  0  0  0  0  0  0  0  0  0
    5.1420   -1.0130    1.2670 H   0  0  0  0  0  0  0  0  0  0  0  0
    6.0700    0.4200    0.8930 H   0  0  0  0  0  0  0  0  0  0  0  0
    5.8930    2.0140   -0.2390 H   0  0  0  0  0  0  0  0  0  0  0  0
    2.8730    3.6980   -0.4360 H   0  0  0  0  0  0  0  0  0  0  0  0
   -1.4840    2.8490   -0.2900 H   0  0  0  0  0  0  0  0  0  0  0  0
   -2.5980    0.6460   -1.8570 H   0  0  0  0  0  0  0  0  0  0  0  0
   -4.7550   -0.0310   -3.0170 H   0  0  0  0  0  0  0  0  0  0  0  0
   -7.2200   -0.4220   -2.6800 H   0  0  0  0  0  0  0  0  0  0  0  0
   -8.2740    1.3140   -0.6200 H   0  0  0  0  0  0  0  0  0  0  0  0
   -7.9010    0.8470    1.0450 H   0  0  0  0  0  0  0  0  0  0  0  0
   -6.6540    1.5830    0.0330 H   0  0  0  0  0  0  0  0  0  0  0  0
   -7.9570   -2.4860   -0.8000 H   0  0  0  0  0  0  0  0  0  0  0  0
   -8.6370   -1.6280    0.5840 H   0  0  0  0  0  0  0  0  0  0  0  0
   -9.0780   -1.1380   -1.0570 H   0  0  0  0  0  0  0  0  0  0  0  0
   -4.5100   -1.0400    2.4470 H   0  0  0  0  0  0  0  0  0  0  0  0
   -1.2070   -0.5860    2.4440 H   0  0  0  0  0  0  0  0  0  0  0  0
    1.8460   -1.7630    0.7760 H   0  0  0  0  0  0  0  0  0  0  0  0
  1 33  1  0
  1 34  1  0
  1  2  2  0
  2  4  1  0
  2  3  1  0
  3 37  1  0
  3 36  1  0
  3 35  1  0
  4 38  1  6
  4  5  1  0
  4  6  1  0
  5 39  1  0
  6  7  1  0
  6 41  1  0
  6 40  1  0
  7  8  2  0
  7 31  1  0
  8 10  1  0
  8  9  1  0
  9 42  1  0
 10 43  1  0
 10 11  2  0
 11 12  1  0
 11 30  1  0
 12 13  1  0
 13 44  1  0
 13 14  2  0
 14 15  1  0
 14 28  1  0
 15 16  2  0
 15 26  1  0
 16 45  1  0
 16 17  1  0
 17 18  1  0
 17 24  2  0
 18 46  1  0
 18 19  2  0
 19 47  1  0
 19 20  1  0
 20 22  1  6
 20 21  1  0
 20 23  1  0
 21 48  1  0
 21 50  1  0
 21 49  1  0
 22 53  1  0
 22 51  1  0
 22 52  1  0
 23 24  1  0
 24 25  1  0
 25 26  2  0
 25 54  1  0
 26 27  1  0
 27 55  1  0
 28 30  1  0
 28 29  2  0
 30 31  2  0
 31 32  1  0
 32 56  1  0
M  END
>  <id>  (253) 
355

>  <scaffolds>  (253) 
['c1ccccc1', 'O=c1c(-c2ccccc2)coc2ccccc12', 'O=c1c(-c2ccc3c(c2)C=CCO3)coc2ccccc12', 'C1=Cc2ccccc2OC1', 'O=c1ccoc2ccccc12']

>  <name>  (253) 
Kraussianone 7

>  <formula>  (253) 
C25H24O7

>  <SMILES>  (253) 
C=C(C)C(O)Cc4c(O)cc3occ(c2cc1C=CC(C)(C)Oc1cc2O)c(=O)c3c4O

>  <ChEMBL_id>  (253) 


>  <ZINC_id>  (253) 


>  <PubChem_id>  (253) 


>  <DrugBank_id>  (253) 


>  <CAS_no>  (253) 
761456-87-5

>  <references>  (253) 
[{'journal': {'name': 'Phytochemistry', 'id': 10}, 'title': 'Minor pyrano-isoflavones from Eriosema kraussianum: activity-, structure-, and chemical reaction studies', 'year': 2004, 'start_page': 1955, 'volume': 64, 'issue': None, 'doi': '10.1016/j.phytochem.2004.04.030', 'isbn': '', 'despositor': {'code': 'NFA', 'first_name': 'Ngonidzashe', 'last_name': 'Faya', 'id': 21}, 'refauthors_set': [{'author': {'first_name': 'Siegfried', 'initials': 'SE', 'last_name': 'Drewes', 'id': 613}, 'first_author': True, 'id': 850}, {'author': {'first_name': 'Marion', 'initials': 'MM', 'last_name': 'Horn', 'id': 614}, 'first_author': None, 'id': 1240}, {'author': {'first_name': 'Fatima', 'initials': 'F', 'last_name': 'Khan', 'id': 623}, 'first_author': None, 'id': 1241}, {'author': {'first_name': 'Orde', 'initials': 'OQ', 'last_name': 'Munro', 'id': 615}, 'first_author': None, 'id': 1242}, {'author': {'first_name': 'Jabu', 'initials': 'JTB', 'last_name': 'Dhlamini', 'id': 616}, 'first_author': None, 'id': 1243}, {'author': {'first_name': '', 'initials': 'NC', 'last_name': 'Rakuambo', 'id': 609}, 'first_author': None, 'id': 1244}, {'author': {'first_name': 'Jacobus', 'initials': 'JM', 'last_name': 'Meyer', 'id': 716}, 'first_author': None, 'id': 1245}], 'id': 294}]

>  <classifications>  (253) 
[{'classification': 'Pyrano-isoflavone', 'id': 816}, {'classification': 'Isoflavonoids (Classyfire)', 'id': 963}]

>  <molecular_mass>  (253) 
436.45

$$$$
SANC00356_minRM1.pdb
     RDKit          3D

 42 44  0  0  1  0  0  0  0  0999 V2000
   -5.0000   -2.5020    0.8000 C   0  0  0  0  0  0  0  0  0  0  0  0
   -4.5590   -1.1660    0.7450 O   0  0  0  0  0  0  0  0  0  0  0  0
   -3.3310   -0.9350    0.2260 C   0  0  0  0  0  0  0  0  0  0  0  0
   -2.5320   -1.8790   -0.4080 C   0  0  0  0  0  0  0  0  0  0  0  0
   -1.2860   -1.4690   -0.9030 C   0  0  0  0  0  0  0  0  0  0  0  0
   -0.5550   -2.4130   -1.5070 O   0  0  0  0  0  0  0  0  0  0  0  0
   -0.8370   -0.1450   -0.7650 C   0  0  0  0  0  0  0  0  0  0  0  0
    0.4850    0.2450   -1.2090 C   0  0  0  0  0  0  0  0  0  0  0  0
    1.2010   -0.5430   -1.8170 O   0  0  0  0  0  0  0  0  0  0  0  0
    0.9180    1.6400   -0.8450 C   0  0  2  0  0  0  0  0  0  0  0  0
    1.6680    2.0220   -1.5840 H   0  0  0  0  0  0  0  0  0  0  0  0
    1.5450    1.6100    0.5530 C   0  0  0  0  0  0  0  0  0  0  0  0
    2.7910    0.7900    0.5240 C   0  0  0  0  0  0  0  0  0  0  0  0
    2.7210   -0.5860    0.7180 C   0  0  0  0  0  0  0  0  0  0  0  0
    3.8700   -1.3630    0.6770 C   0  0  0  0  0  0  0  0  0  0  0  0
    5.0970   -0.7330    0.4650 C   0  0  0  0  0  0  0  0  0  0  0  0
    6.2790   -1.4030    0.4640 O   0  0  0  0  0  0  0  0  0  0  0  0
    5.1890    0.6500    0.2860 C   0  0  0  0  0  0  0  0  0  0  0  0
    4.0240    1.3990    0.3040 C   0  0  0  0  0  0  0  0  0  0  0  0
   -0.3170    2.5450   -0.8730 C   0  0  0  0  0  0  0  0  0  0  0  0
   -1.3370    2.0940   -0.0070 O   0  0  0  0  0  0  0  0  0  0  0  0
   -1.6840    0.7910   -0.1540 C   0  0  0  0  0  0  0  0  0  0  0  0
   -2.9150    0.4080    0.3610 C   0  0  0  0  0  0  0  0  0  0  0  0
   -3.6700    1.2880    1.0820 O   0  0  0  0  0  0  0  0  0  0  0  0
   -4.6080    1.9590    0.2710 C   0  0  0  0  0  0  0  0  0  0  0  0
   -4.3250   -3.1650    1.3650 H   0  0  0  0  0  0  0  0  0  0  0  0
   -5.9570   -2.4250    1.3370 H   0  0  0  0  0  0  0  0  0  0  0  0
   -5.1860   -2.9330   -0.1960 H   0  0  0  0  0  0  0  0  0  0  0  0
   -2.8310   -2.9210   -0.5370 H   0  0  0  0  0  0  0  0  0  0  0  0
    0.3200   -2.0550   -1.7900 H   0  0  0  0  0  0  0  0  0  0  0  0
    1.7560    2.6470    0.8920 H   0  0  0  0  0  0  0  0  0  0  0  0
    0.8210    1.2210    1.3010 H   0  0  0  0  0  0  0  0  0  0  0  0
    1.7570   -1.0680    0.9110 H   0  0  0  0  0  0  0  0  0  0  0  0
    3.8050   -2.4470    0.8090 H   0  0  0  0  0  0  0  0  0  0  0  0
    6.1180   -2.3320    0.2470 H   0  0  0  0  0  0  0  0  0  0  0  0
    6.1630    1.1250    0.1380 H   0  0  0  0  0  0  0  0  0  0  0  0
    4.0820    2.4770    0.1340 H   0  0  0  0  0  0  0  0  0  0  0  0
   -0.1070    3.5690   -0.5000 H   0  0  0  0  0  0  0  0  0  0  0  0
   -0.7130    2.6490   -1.9100 H   0  0  0  0  0  0  0  0  0  0  0  0
   -5.1400    2.6230    0.9680 H   0  0  0  0  0  0  0  0  0  0  0  0
   -4.1380    2.5720   -0.5160 H   0  0  0  0  0  0  0  0  0  0  0  0
   -5.3350    1.2800   -0.2050 H   0  0  0  0  0  0  0  0  0  0  0  0
  1 28  1  0
  1  2  1  0
  1 27  1  0
  1 26  1  0
  2  3  1  0
  3  4  2  0
  3 23  1  0
  4  5  1  0
  4 29  1  0
  5  6  1  0
  5  7  2  0
  6 30  1  0
  7  8  1  0
  7 22  1  0
  8  9  2  0
  8 10  1  0
 10 11  1  6
 10 20  1  0
 10 12  1  0
 12 13  1  0
 12 31  1  0
 12 32  1  0
 13 19  2  0
 13 14  1  0
 14 15  2  0
 14 33  1  0
 15 16  1  0
 15 34  1  0
 16 18  2  0
 16 17  1  0
 17 35  1  0
 18 36  1  0
 18 19  1  0
 19 37  1  0
 20 39  1  0
 20 38  1  0
 20 21  1  0
 21 22  1  0
 22 23  2  0
 23 24  1  0
 24 25  1  0
 25 41  1  0
 25 42  1  0
 25 40  1  0
M  END
>  <id>  (254) 
356

>  <scaffolds>  (254) 
['c1ccccc1', 'O=C1c2ccccc2OCC1Cc1ccccc1', 'O=C(CCc1ccccc1)c1ccccc1']

>  <name>  (254) 
7-O-methyl-3,9-dihydropunctatin

>  <formula>  (254) 
C18H18O6

>  <SMILES>  (254) 
COc3cc(O)c2C(=O)[C@H](Cc1ccc(O)cc1)COc2c3OC

>  <ChEMBL_id>  (254) 


>  <ZINC_id>  (254) 


>  <PubChem_id>  (254) 


>  <DrugBank_id>  (254) 


>  <CAS_no>  (254) 
359764-99-1

>  <references>  (254) 
[{'journal': {'name': 'Phytochemistry: Advances in Research (Book)', 'id': 13}, 'title': 'Chapter 3: The phytochemistry and ethnobotany of the southern African genus Eucomis (Hyacinthaceae: Hyacinthoideae)', 'year': 2006, 'start_page': 69, 'volume': None, 'issue': None, 'doi': '', 'isbn': '81-308-0034-9', 'despositor': {'code': 'rah', 'first_name': 'Rowan', 'last_name': 'Hatherley', 'id': 20}, 'refauthors_set': [{'author': {'first_name': 'Chantal', 'initials': 'C', 'last_name': 'Koorbanally', 'id': 523}, 'first_author': True, 'id': 851}, {'author': {'first_name': 'Neil', 'initials': 'NR', 'last_name': 'Crouch', 'id': 524}, 'first_author': False, 'id': 852}, {'author': {'first_name': 'Dulcie', 'initials': 'DA', 'last_name': 'Mulholland', 'id': 525}, 'first_author': False, 'id': 853}], 'id': 259}, {'journal': {'name': 'Biochemical Systematics and Ecology', 'id': 24}, 'title': 'Coincident isolation of a novel homoisoflavonoid from Resnova humifusa and Eucomis montana (Hyacinthoideae: Hyacinthaceae)', 'year': 2006, 'start_page': 114, 'volume': 34, 'issue': None, 'doi': '10.1016/j.bse.2005.08.003', 'isbn': '', 'despositor': {'code': 'rah', 'first_name': 'Rowan', 'last_name': 'Hatherley', 'id': 20}, 'refauthors_set': [{'author': {'first_name': 'Chantal', 'initials': 'C', 'last_name': 'Koorbanally', 'id': 523}, 'first_author': True, 'id': 854}, {'author': {'first_name': 'Neil', 'initials': 'NR', 'last_name': 'Crouch', 'id': 524}, 'first_author': False, 'id': 855}, {'author': {'first_name': 'Avinash', 'initials': 'A', 'last_name': 'Harilal', 'id': 624}, 'first_author': False, 'id': 856}, {'author': {'first_name': 'Bavani', 'initials': 'B', 'last_name': 'Pillay', 'id': 625}, 'first_author': False, 'id': 857}, {'author': {'first_name': 'Dulcie', 'initials': 'DA', 'last_name': 'Mulholland', 'id': 525}, 'first_author': False, 'id': 858}], 'id': 286}, {'journal': {'name': 'Biochemical Systematics and Ecology', 'id': 24}, 'title': 'Norlignans and homoisoflavanones from two South African Drimiopsis species (Hyacinthaceae: Hyacinthoideae)', 'year': 2006, 'start_page': 588, 'volume': 34, 'issue': None, 'doi': '10.1016/j.bse.2005.12.011', 'isbn': '', 'despositor': {'code': 'rah', 'first_name': 'Rowan', 'last_name': 'Hatherley', 'id': 20}, 'refauthors_set': [{'author': {'first_name': 'Chantal', 'initials': 'C', 'last_name': 'Koorbanally', 'id': 523}, 'first_author': True, 'id': 1067}, {'author': {'first_name': 'Dulcie', 'initials': 'DA', 'last_name': 'Mulholland', 'id': 525}, 'first_author': None, 'id': 1068}, {'author': {'first_name': 'Neil', 'initials': 'NR', 'last_name': 'Crouch', 'id': 524}, 'first_author': None, 'id': 1069}], 'id': 360}, {'journal': {'name': 'Bioorganic & Medicinal Chemistry', 'id': 34}, 'title': 'Anti-inflammatory activity and QSAR studies of compounds isolated from Hyacinthaceae species and Tachiadenus longiflorus Griseb. (Gentianaceae)', 'year': 2005, 'start_page': 2561, 'volume': 13, 'issue': 7, 'doi': '10.1016/j.bmc.2005.01.036', 'isbn': '', 'despositor': {'code': 'rah', 'first_name': 'Rowan', 'last_name': 'Hatherley', 'id': 20}, 'refauthors_set': [{'author': {'first_name': 'Karen', 'initials': 'K', 'last_name': 'Du Toit', 'id': 713}, 'first_author': True, 'id': 1075}, {'author': {'first_name': 'Esameldin', 'initials': 'EE', 'last_name': 'Elgorashi', 'id': 594}, 'first_author': None, 'id': 1076}, {'author': {'first_name': 'Sarel', 'initials': 'SF', 'last_name': 'Malan', 'id': 759}, 'first_author': None, 'id': 1077}, {'author': {'first_name': 'Siegfried', 'initials': 'SE', 'last_name': 'Drewes', 'id': 613}, 'first_author': None, 'id': 1078}, {'author': {'first_name': 'Johannes', 'initials': 'J', 'last_name': 'Van Staden', 'id': 489}, 'first_author': None, 'id': 1079}, {'author': {'first_name': 'Neil', 'initials': 'NR', 'last_name': 'Crouch', 'id': 524}, 'first_author': None, 'id': 1080}, {'author': {'first_name': 'Dulcie', 'initials': 'DA', 'last_name': 'Mulholland', 'id': 525}, 'first_author': None, 'id': 1081}], 'id': 362}]

>  <classifications>  (254) 
[{'classification': 'Flavonoids', 'id': 776}, {'classification': 'Homoisoflavonoid', 'id': 783}, {'classification': 'Homoisoflavonoids (Classyfire)', 'id': 964}]

>  <molecular_mass>  (254) 
330.33

$$$$
SANC00357_minRM1.pdb
     RDKit          3D

 35 37  0  0  1  0  0  0  0  0999 V2000
   -0.3640    0.6210   -1.6150 O   0  0  0  0  0  0  0  0  0  0  0  0
    0.2680   -0.2340   -1.0010 C   0  0  0  0  0  0  0  0  0  0  0  0
    1.5660    0.0620   -0.4330 C   0  0  0  0  0  0  0  0  0  0  0  0
    2.0630    1.3790   -0.4350 C   0  0  0  0  0  0  0  0  0  0  0  0
    1.4120    2.3860   -1.0240 O   0  0  0  0  0  0  0  0  0  0  0  0
    3.2680    1.6950    0.1990 C   0  0  0  0  0  0  0  0  0  0  0  0
    3.9710    0.6620    0.8200 C   0  0  0  0  0  0  0  0  0  0  0  0
    5.1340    0.8730    1.4720 O   0  0  0  0  0  0  0  0  0  0  0  0
    3.5340   -0.6710    0.8110 C   0  0  0  0  0  0  0  0  0  0  0  0
    2.3330   -0.9420    0.1740 C   0  0  0  0  0  0  0  0  0  0  0  0
    1.9190   -2.2360    0.2060 O   0  0  0  0  0  0  0  0  0  0  0  0
    0.9410   -2.5850   -0.7480 C   0  0  0  0  0  0  0  0  0  0  0  0
   -0.2510   -1.6240   -0.7440 C   0  0  1  0  0  0  0  0  0  0  0  0
   -0.9780   -1.9320   -1.5370 H   0  0  0  0  0  0  0  0  0  0  0  0
   -0.9490   -1.6150    0.6210 C   0  0  0  0  0  0  0  0  0  0  0  0
   -2.1770   -0.7710    0.5490 C   0  0  0  0  0  0  0  0  0  0  0  0
   -2.1010    0.5970    0.8040 C   0  0  0  0  0  0  0  0  0  0  0  0
   -3.2350    1.3910    0.7080 C   0  0  0  0  0  0  0  0  0  0  0  0
   -4.4480    0.7930    0.3660 C   0  0  0  0  0  0  0  0  0  0  0  0
   -5.6030    1.5150    0.3390 O   0  0  0  0  0  0  0  0  0  0  0  0
   -4.5430   -0.5760    0.1190 C   0  0  0  0  0  0  0  0  0  0  0  0
   -3.3960   -1.3520    0.2120 C   0  0  0  0  0  0  0  0  0  0  0  0
    0.5760    2.0650   -1.4530 H   0  0  0  0  0  0  0  0  0  0  0  0
    3.6300    2.7240    0.1920 H   0  0  0  0  0  0  0  0  0  0  0  0
    5.3620    1.8010    1.4250 H   0  0  0  0  0  0  0  0  0  0  0  0
    4.1220   -1.4600    1.2870 H   0  0  0  0  0  0  0  0  0  0  0  0
    1.3970   -2.6500   -1.7620 H   0  0  0  0  0  0  0  0  0  0  0  0
    0.6580   -3.6170   -0.4500 H   0  0  0  0  0  0  0  0  0  0  0  0
   -1.1950   -2.6540    0.9310 H   0  0  0  0  0  0  0  0  0  0  0  0
   -0.2580   -1.2580    1.4170 H   0  0  0  0  0  0  0  0  0  0  0  0
   -1.1460    1.0540    1.0820 H   0  0  0  0  0  0  0  0  0  0  0  0
   -3.1770    2.4660    0.8980 H   0  0  0  0  0  0  0  0  0  0  0  0
   -5.4800    2.2090   -0.3190 H   0  0  0  0  0  0  0  0  0  0  0  0
   -5.5070   -1.0240   -0.1390 H   0  0  0  0  0  0  0  0  0  0  0  0
   -3.4600   -2.4280    0.0200 H   0  0  0  0  0  0  0  0  0  0  0  0
  1  2  2  0
  2 13  1  0
  2  3  1  0
  3  4  2  0
  3 10  1  0
  4  5  1  0
  4  6  1  0
  5 23  1  0
  6 24  1  0
  6  7  2  0
  7  9  1  0
  7  8  1  0
  8 25  1  0
  9 10  2  0
  9 26  1  0
 10 11  1  0
 11 12  1  0
 12 27  1  0
 12 13  1  0
 12 28  1  0
 13 14  1  6
 13 15  1  0
 15 16  1  0
 15 29  1  0
 15 30  1  0
 16 22  2  0
 16 17  1  0
 17 18  2  0
 17 31  1  0
 18 19  1  0
 18 32  1  0
 19 21  2  0
 19 20  1  0
 20 33  1  0
 21 34  1  0
 21 22  1  0
 22 35  1  0
M  END
>  <id>  (255) 
357

>  <scaffolds>  (255) 
['c1ccccc1', 'O=C1c2ccccc2OCC1Cc1ccccc1', 'O=C(CCc1ccccc1)c1ccccc1']

>  <name>  (255) 
4'-Demethyl-3,9-dihydroeucomin

>  <formula>  (255) 
C16H14O5

>  <SMILES>  (255) 
O=C2c1c(O)cc(O)cc1OC[C@H]2Cc3ccc(O)cc3

>  <ChEMBL_id>  (255) 


>  <ZINC_id>  (255) 


>  <PubChem_id>  (255) 


>  <DrugBank_id>  (255) 


>  <CAS_no>  (255) 
849727-88-4

>  <references>  (255) 
[{'journal': {'name': 'Phytochemistry: Advances in Research (Book)', 'id': 13}, 'title': 'Chapter 3: The phytochemistry and ethnobotany of the southern African genus Eucomis (Hyacinthaceae: Hyacinthoideae)', 'year': 2006, 'start_page': 69, 'volume': None, 'issue': None, 'doi': '', 'isbn': '81-308-0034-9', 'despositor': {'code': 'rah', 'first_name': 'Rowan', 'last_name': 'Hatherley', 'id': 20}, 'refauthors_set': [{'author': {'first_name': 'Chantal', 'initials': 'C', 'last_name': 'Koorbanally', 'id': 523}, 'first_author': True, 'id': 851}, {'author': {'first_name': 'Neil', 'initials': 'NR', 'last_name': 'Crouch', 'id': 524}, 'first_author': False, 'id': 852}, {'author': {'first_name': 'Dulcie', 'initials': 'DA', 'last_name': 'Mulholland', 'id': 525}, 'first_author': False, 'id': 853}], 'id': 259}, {'journal': {'name': 'Biochemical Systematics and Ecology', 'id': 24}, 'title': 'Coincident isolation of a novel homoisoflavonoid from Resnova humifusa and Eucomis montana (Hyacinthoideae: Hyacinthaceae)', 'year': 2006, 'start_page': 114, 'volume': 34, 'issue': None, 'doi': '10.1016/j.bse.2005.08.003', 'isbn': '', 'despositor': {'code': 'rah', 'first_name': 'Rowan', 'last_name': 'Hatherley', 'id': 20}, 'refauthors_set': [{'author': {'first_name': 'Chantal', 'initials': 'C', 'last_name': 'Koorbanally', 'id': 523}, 'first_author': True, 'id': 854}, {'author': {'first_name': 'Neil', 'initials': 'NR', 'last_name': 'Crouch', 'id': 524}, 'first_author': False, 'id': 855}, {'author': {'first_name': 'Avinash', 'initials': 'A', 'last_name': 'Harilal', 'id': 624}, 'first_author': False, 'id': 856}, {'author': {'first_name': 'Bavani', 'initials': 'B', 'last_name': 'Pillay', 'id': 625}, 'first_author': False, 'id': 857}, {'author': {'first_name': 'Dulcie', 'initials': 'DA', 'last_name': 'Mulholland', 'id': 525}, 'first_author': False, 'id': 858}], 'id': 286}, {'journal': {'name': 'Biochemical Systematics and Ecology', 'id': 24}, 'title': 'Norlignans and homoisoflavanones from two South African Drimiopsis species (Hyacinthaceae: Hyacinthoideae)', 'year': 2006, 'start_page': 588, 'volume': 34, 'issue': None, 'doi': '10.1016/j.bse.2005.12.011', 'isbn': '', 'despositor': {'code': 'rah', 'first_name': 'Rowan', 'last_name': 'Hatherley', 'id': 20}, 'refauthors_set': [{'author': {'first_name': 'Chantal', 'initials': 'C', 'last_name': 'Koorbanally', 'id': 523}, 'first_author': True, 'id': 1067}, {'author': {'first_name': 'Dulcie', 'initials': 'DA', 'last_name': 'Mulholland', 'id': 525}, 'first_author': None, 'id': 1068}, {'author': {'first_name': 'Neil', 'initials': 'NR', 'last_name': 'Crouch', 'id': 524}, 'first_author': None, 'id': 1069}], 'id': 360}, {'journal': {'name': 'Bioorganic & Medicinal Chemistry', 'id': 34}, 'title': 'Anti-inflammatory activity and QSAR studies of compounds isolated from Hyacinthaceae species and Tachiadenus longiflorus Griseb. (Gentianaceae)', 'year': 2005, 'start_page': 2561, 'volume': 13, 'issue': 7, 'doi': '10.1016/j.bmc.2005.01.036', 'isbn': '', 'despositor': {'code': 'rah', 'first_name': 'Rowan', 'last_name': 'Hatherley', 'id': 20}, 'refauthors_set': [{'author': {'first_name': 'Karen', 'initials': 'K', 'last_name': 'Du Toit', 'id': 713}, 'first_author': True, 'id': 1075}, {'author': {'first_name': 'Esameldin', 'initials': 'EE', 'last_name': 'Elgorashi', 'id': 594}, 'first_author': None, 'id': 1076}, {'author': {'first_name': 'Sarel', 'initials': 'SF', 'last_name': 'Malan', 'id': 759}, 'first_author': None, 'id': 1077}, {'author': {'first_name': 'Siegfried', 'initials': 'SE', 'last_name': 'Drewes', 'id': 613}, 'first_author': None, 'id': 1078}, {'author': {'first_name': 'Johannes', 'initials': 'J', 'last_name': 'Van Staden', 'id': 489}, 'first_author': None, 'id': 1079}, {'author': {'first_name': 'Neil', 'initials': 'NR', 'last_name': 'Crouch', 'id': 524}, 'first_author': None, 'id': 1080}, {'author': {'first_name': 'Dulcie', 'initials': 'DA', 'last_name': 'Mulholland', 'id': 525}, 'first_author': None, 'id': 1081}], 'id': 362}]

>  <classifications>  (255) 
[{'classification': 'Flavonoids', 'id': 776}, {'classification': 'Homoisoflavonoid', 'id': 783}, {'classification': 'Homoisoflavonoids (Classyfire)', 'id': 964}]

>  <molecular_mass>  (255) 
286.28

$$$$
SANC00358_minRM1.pdb
     RDKit          3D

 38 40  0  0  1  0  0  0  0  0999 V2000
    6.4930    0.8530    0.0160 C   0  0  0  0  0  0  0  0  0  0  0  0
    5.2470    1.4160   -0.3040 O   0  0  0  0  0  0  0  0  0  0  0  0
    4.1720    0.5770   -0.3520 C   0  0  0  0  0  0  0  0  0  0  0  0
    4.1940   -0.7790   -0.0430 C   0  0  0  0  0  0  0  0  0  0  0  0
    3.0090   -1.5040   -0.1250 C   0  0  0  0  0  0  0  0  0  0  0  0
    1.8300   -0.8920   -0.5280 C   0  0  0  0  0  0  0  0  0  0  0  0
    0.5740   -1.6900   -0.6370 C   0  0  0  0  0  0  0  0  0  0  0  0
   -0.1590   -1.6890    0.7080 C   0  0  2  0  0  0  0  0  0  0  0  0
    0.5360   -2.0350    1.5150 H   0  0  0  0  0  0  0  0  0  0  0  0
   -1.3780   -2.6150    0.6650 C   0  0  0  0  0  0  0  0  0  0  0  0
   -2.3310   -2.1940   -0.2870 O   0  0  0  0  0  0  0  0  0  0  0  0
   -2.7500   -0.9090   -0.1450 C   0  0  0  0  0  0  0  0  0  0  0  0
   -3.9830   -0.6000   -0.7010 C   0  0  0  0  0  0  0  0  0  0  0  0
   -4.4360    0.7200   -0.5560 C   0  0  0  0  0  0  0  0  0  0  0  0
   -5.6320    0.9650   -1.1290 O   0  0  0  0  0  0  0  0  0  0  0  0
   -3.7150    1.7010    0.1220 C   0  0  0  0  0  0  0  0  0  0  0  0
   -2.4680    1.3500    0.6500 C   0  0  0  0  0  0  0  0  0  0  0  0
   -1.8030    2.3170    1.2920 O   0  0  0  0  0  0  0  0  0  0  0  0
   -1.9590    0.0480    0.5080 C   0  0  0  0  0  0  0  0  0  0  0  0
   -0.6360   -0.2880    0.9900 C   0  0  0  0  0  0  0  0  0  0  0  0
    0.0480    0.5440    1.5770 O   0  0  0  0  0  0  0  0  0  0  0  0
    1.8230    0.4690   -0.8320 C   0  0  0  0  0  0  0  0  0  0  0  0
    2.9860    1.2130   -0.7470 C   0  0  0  0  0  0  0  0  0  0  0  0
    6.5320    0.4400    1.0360 H   0  0  0  0  0  0  0  0  0  0  0  0
    6.8220    0.0830   -0.7000 H   0  0  0  0  0  0  0  0  0  0  0  0
    7.1860    1.7040   -0.0460 H   0  0  0  0  0  0  0  0  0  0  0  0
    5.1040   -1.2970    0.2630 H   0  0  0  0  0  0  0  0  0  0  0  0
    3.0180   -2.5680    0.1330 H   0  0  0  0  0  0  0  0  0  0  0  0
   -0.0850   -1.3020   -1.4440 H   0  0  0  0  0  0  0  0  0  0  0  0
    0.7950   -2.7340   -0.9470 H   0  0  0  0  0  0  0  0  0  0  0  0
   -1.1240   -3.6440    0.3330 H   0  0  0  0  0  0  0  0  0  0  0  0
   -1.8490   -2.7030    1.6710 H   0  0  0  0  0  0  0  0  0  0  0  0
   -4.5810   -1.3490   -1.2230 H   0  0  0  0  0  0  0  0  0  0  0  0
   -5.9270    1.8590   -0.9010 H   0  0  0  0  0  0  0  0  0  0  0  0
   -4.0910    2.7190    0.2460 H   0  0  0  0  0  0  0  0  0  0  0  0
   -0.9060    2.0050    1.5550 H   0  0  0  0  0  0  0  0  0  0  0  0
    0.8930    0.9590   -1.1390 H   0  0  0  0  0  0  0  0  0  0  0  0
    2.9840    2.2820   -0.9760 H   0  0  0  0  0  0  0  0  0  0  0  0
  1 25  1  0
  1  2  1  0
  1 26  1  0
  1 24  1  0
  2  3  1  0
  3 23  2  0
  3  4  1  0
  4  5  2  0
  4 27  1  0
  5  6  1  0
  5 28  1  0
  6 22  2  0
  6  7  1  0
  7 29  1  0
  7 30  1  0
  7  8  1  0
  8 10  1  0
  8 20  1  0
  8  9  1  1
 10 11  1  0
 10 31  1  0
 10 32  1  0
 11 12  1  0
 12 13  2  0
 12 19  1  0
 13 33  1  0
 13 14  1  0
 14 15  1  0
 14 16  2  0
 15 34  1  0
 16 35  1  0
 16 17  1  0
 17 19  2  0
 17 18  1  0
 18 36  1  0
 19 20  1  0
 20 21  2  0
 22 37  1  0
 22 23  1  0
 23 38  1  0
M  END
>  <id>  (256) 
358

>  <scaffolds>  (256) 
['c1ccccc1', 'O=C1c2ccccc2OCC1Cc1ccccc1', 'O=C(CCc1ccccc1)c1ccccc1']

>  <name>  (256) 
3,9-dihydroeucomin

>  <formula>  (256) 
C17H16O5

>  <SMILES>  (256) 
COc3ccc(C[C@@H]2COc1cc(O)cc(O)c1C2=O)cc3

>  <ChEMBL_id>  (256) 


>  <ZINC_id>  (256) 


>  <PubChem_id>  (256) 


>  <DrugBank_id>  (256) 


>  <CAS_no>  (256) 
887375-68-0

>  <references>  (256) 
[{'journal': {'name': 'Phytochemistry: Advances in Research (Book)', 'id': 13}, 'title': 'Chapter 3: The phytochemistry and ethnobotany of the southern African genus Eucomis (Hyacinthaceae: Hyacinthoideae)', 'year': 2006, 'start_page': 69, 'volume': None, 'issue': None, 'doi': '', 'isbn': '81-308-0034-9', 'despositor': {'code': 'rah', 'first_name': 'Rowan', 'last_name': 'Hatherley', 'id': 20}, 'refauthors_set': [{'author': {'first_name': 'Chantal', 'initials': 'C', 'last_name': 'Koorbanally', 'id': 523}, 'first_author': True, 'id': 851}, {'author': {'first_name': 'Neil', 'initials': 'NR', 'last_name': 'Crouch', 'id': 524}, 'first_author': False, 'id': 852}, {'author': {'first_name': 'Dulcie', 'initials': 'DA', 'last_name': 'Mulholland', 'id': 525}, 'first_author': False, 'id': 853}], 'id': 259}, {'journal': {'name': 'Biochemical Systematics and Ecology', 'id': 24}, 'title': 'Coincident isolation of a novel homoisoflavonoid from Resnova humifusa and Eucomis montana (Hyacinthoideae: Hyacinthaceae)', 'year': 2006, 'start_page': 114, 'volume': 34, 'issue': None, 'doi': '10.1016/j.bse.2005.08.003', 'isbn': '', 'despositor': {'code': 'rah', 'first_name': 'Rowan', 'last_name': 'Hatherley', 'id': 20}, 'refauthors_set': [{'author': {'first_name': 'Chantal', 'initials': 'C', 'last_name': 'Koorbanally', 'id': 523}, 'first_author': True, 'id': 854}, {'author': {'first_name': 'Neil', 'initials': 'NR', 'last_name': 'Crouch', 'id': 524}, 'first_author': False, 'id': 855}, {'author': {'first_name': 'Avinash', 'initials': 'A', 'last_name': 'Harilal', 'id': 624}, 'first_author': False, 'id': 856}, {'author': {'first_name': 'Bavani', 'initials': 'B', 'last_name': 'Pillay', 'id': 625}, 'first_author': False, 'id': 857}, {'author': {'first_name': 'Dulcie', 'initials': 'DA', 'last_name': 'Mulholland', 'id': 525}, 'first_author': False, 'id': 858}], 'id': 286}]

>  <classifications>  (256) 
[{'classification': 'Flavonoids', 'id': 776}, {'classification': 'Homoisoflavonoid', 'id': 783}, {'classification': 'Homoisoflavonoids (Classyfire)', 'id': 964}]

>  <molecular_mass>  (256) 
300.31

$$$$
SANC00359_minRM1.pdb
     RDKit          3D

 42 44  0  0  1  0  0  0  0  0999 V2000
    4.4500   -2.2850    0.6430 C   0  0  0  0  0  0  0  0  0  0  0  0
    3.7510   -1.8700   -0.5110 O   0  0  0  0  0  0  0  0  0  0  0  0
    3.0810   -0.6910   -0.3240 C   0  0  0  0  0  0  0  0  0  0  0  0
    3.5890    0.4810   -0.9080 C   0  0  0  0  0  0  0  0  0  0  0  0
    4.7430    0.5310   -1.5990 O   0  0  0  0  0  0  0  0  0  0  0  0
    2.8940    1.6870   -0.8050 C   0  0  0  0  0  0  0  0  0  0  0  0
    1.6770    1.6850   -0.1250 C   0  0  0  0  0  0  0  0  0  0  0  0
    1.0480    2.8890   -0.0820 O   0  0  0  0  0  0  0  0  0  0  0  0
    0.0470    3.0150    0.9030 C   0  0  0  0  0  0  0  0  0  0  0  0
   -0.9520    1.8600    0.8520 C   0  0  1  0  0  0  0  0  0  0  0  0
   -1.7220    2.0090    1.6510 H   0  0  0  0  0  0  0  0  0  0  0  0
   -1.6420    1.7760   -0.5130 C   0  0  0  0  0  0  0  0  0  0  0  0
   -2.7450    0.7740   -0.4510 C   0  0  0  0  0  0  0  0  0  0  0  0
   -2.4720   -0.5790   -0.6250 C   0  0  0  0  0  0  0  0  0  0  0  0
   -3.4900   -1.5210   -0.5510 C   0  0  0  0  0  0  0  0  0  0  0  0
   -4.7920   -1.0830   -0.3070 C   0  0  0  0  0  0  0  0  0  0  0  0
   -5.8570   -1.9250   -0.2610 O   0  0  0  0  0  0  0  0  0  0  0  0
   -5.0870    0.2730   -0.1360 C   0  0  0  0  0  0  0  0  0  0  0  0
   -4.0530    1.1920   -0.2070 C   0  0  0  0  0  0  0  0  0  0  0  0
   -0.1910    0.5720    1.0790 C   0  0  0  0  0  0  0  0  0  0  0  0
   -0.6580   -0.3460    1.7250 O   0  0  0  0  0  0  0  0  0  0  0  0
    1.1230    0.5260    0.4340 C   0  0  0  0  0  0  0  0  0  0  0  0
    1.8580   -0.6580    0.3410 C   0  0  0  0  0  0  0  0  0  0  0  0
    1.4150   -1.7920    0.9610 O   0  0  0  0  0  0  0  0  0  0  0  0
    0.6180   -2.5860    0.1070 C   0  0  0  0  0  0  0  0  0  0  0  0
    3.8020   -2.4440    1.5210 H   0  0  0  0  0  0  0  0  0  0  0  0
    4.8960   -3.2480    0.3490 H   0  0  0  0  0  0  0  0  0  0  0  0
    5.2540   -1.5850    0.9270 H   0  0  0  0  0  0  0  0  0  0  0  0
    5.1650   -0.3370   -1.5970 H   0  0  0  0  0  0  0  0  0  0  0  0
    3.2930    2.6040   -1.2490 H   0  0  0  0  0  0  0  0  0  0  0  0
    0.5090    3.1020    1.9130 H   0  0  0  0  0  0  0  0  0  0  0  0
   -0.4150    3.9970    0.6680 H   0  0  0  0  0  0  0  0  0  0  0  0
   -2.0250    2.7770   -0.8080 H   0  0  0  0  0  0  0  0  0  0  0  0
   -0.9150    1.5220   -1.3140 H   0  0  0  0  0  0  0  0  0  0  0  0
   -1.4460   -0.9220   -0.8180 H   0  0  0  0  0  0  0  0  0  0  0  0
   -3.2640   -2.5830   -0.6810 H   0  0  0  0  0  0  0  0  0  0  0  0
   -5.5370   -2.8070   -0.0340 H   0  0  0  0  0  0  0  0  0  0  0  0
   -6.1150    0.5950    0.0520 H   0  0  0  0  0  0  0  0  0  0  0  0
   -4.2730    2.2540   -0.0610 H   0  0  0  0  0  0  0  0  0  0  0  0
   -0.2570   -2.0450   -0.3010 H   0  0  0  0  0  0  0  0  0  0  0  0
    1.1970   -3.0090   -0.7310 H   0  0  0  0  0  0  0  0  0  0  0  0
    0.2640   -3.4010    0.7560 H   0  0  0  0  0  0  0  0  0  0  0  0
  1  2  1  0
  1 27  1  0
  1 28  1  0
  1 26  1  0
  2  3  1  0
  3  4  2  0
  3 23  1  0
  4  5  1  0
  4  6  1  0
  5 29  1  0
  6 30  1  0
  6  7  2  0
  7  8  1  0
  7 22  1  0
  8  9  1  0
  9 32  1  0
  9 10  1  0
  9 31  1  0
 10 12  1  0
 10 20  1  0
 10 11  1  1
 12 34  1  0
 12 33  1  0
 12 13  1  0
 13 14  2  0
 13 19  1  0
 14 35  1  0
 14 15  1  0
 15 36  1  0
 15 16  2  0
 16 17  1  0
 16 18  1  0
 17 37  1  0
 18 19  2  0
 18 38  1  0
 19 39  1  0
 20 22  1  0
 20 21  2  0
 22 23  2  0
 23 24  1  0
 24 25  1  0
 25 41  1  0
 25 40  1  0
 25 42  1  0
M  END
>  <id>  (257) 
359

>  <scaffolds>  (257) 
['c1ccccc1', 'O=C1c2ccccc2OCC1Cc1ccccc1', 'O=C(CCc1ccccc1)c1ccccc1']

>  <name>  (257) 
5,6-dimethoxy-7-hydroxy-3-(4'-hydroxybenzyl)-4-chromanone

>  <formula>  (257) 
C18H18O6

>  <SMILES>  (257) 
COc3c(O)cc2OC[C@@H](Cc1ccc(O)cc1)C(=O)c2c3OC

>  <ChEMBL_id>  (257) 


>  <ZINC_id>  (257) 


>  <PubChem_id>  (257) 


>  <DrugBank_id>  (257) 


>  <CAS_no>  (257) 
887375-70-4

>  <references>  (257) 
[{'journal': {'name': 'Phytochemistry: Advances in Research (Book)', 'id': 13}, 'title': 'Chapter 3: The phytochemistry and ethnobotany of the southern African genus Eucomis (Hyacinthaceae: Hyacinthoideae)', 'year': 2006, 'start_page': 69, 'volume': None, 'issue': None, 'doi': '', 'isbn': '81-308-0034-9', 'despositor': {'code': 'rah', 'first_name': 'Rowan', 'last_name': 'Hatherley', 'id': 20}, 'refauthors_set': [{'author': {'first_name': 'Chantal', 'initials': 'C', 'last_name': 'Koorbanally', 'id': 523}, 'first_author': True, 'id': 851}, {'author': {'first_name': 'Neil', 'initials': 'NR', 'last_name': 'Crouch', 'id': 524}, 'first_author': False, 'id': 852}, {'author': {'first_name': 'Dulcie', 'initials': 'DA', 'last_name': 'Mulholland', 'id': 525}, 'first_author': False, 'id': 853}], 'id': 259}, {'journal': {'name': 'Biochemical Systematics and Ecology', 'id': 24}, 'title': 'Coincident isolation of a novel homoisoflavonoid from Resnova humifusa and Eucomis montana (Hyacinthoideae: Hyacinthaceae)', 'year': 2006, 'start_page': 114, 'volume': 34, 'issue': None, 'doi': '10.1016/j.bse.2005.08.003', 'isbn': '', 'despositor': {'code': 'rah', 'first_name': 'Rowan', 'last_name': 'Hatherley', 'id': 20}, 'refauthors_set': [{'author': {'first_name': 'Chantal', 'initials': 'C', 'last_name': 'Koorbanally', 'id': 523}, 'first_author': True, 'id': 854}, {'author': {'first_name': 'Neil', 'initials': 'NR', 'last_name': 'Crouch', 'id': 524}, 'first_author': False, 'id': 855}, {'author': {'first_name': 'Avinash', 'initials': 'A', 'last_name': 'Harilal', 'id': 624}, 'first_author': False, 'id': 856}, {'author': {'first_name': 'Bavani', 'initials': 'B', 'last_name': 'Pillay', 'id': 625}, 'first_author': False, 'id': 857}, {'author': {'first_name': 'Dulcie', 'initials': 'DA', 'last_name': 'Mulholland', 'id': 525}, 'first_author': False, 'id': 858}], 'id': 286}]

>  <classifications>  (257) 
[{'classification': 'Flavonoids', 'id': 776}, {'classification': 'Homoisoflavonoid', 'id': 783}, {'classification': 'Homoisoflavonoids (Classyfire)', 'id': 964}]

>  <molecular_mass>  (257) 
330.33

$$$$
SANC00360_minRM1.pdb
     RDKit          3D

 39 41  0  0  1  0  0  0  0  0999 V2000
   -5.3310   -2.1240    0.8130 C   0  0  0  0  0  0  0  0  0  0  0  0
   -4.7990   -0.8210    0.7990 O   0  0  0  0  0  0  0  0  0  0  0  0
   -3.5650   -0.6510    0.2690 C   0  0  0  0  0  0  0  0  0  0  0  0
   -2.8300   -1.6270   -0.3920 C   0  0  0  0  0  0  0  0  0  0  0  0
   -1.5670   -1.2780   -0.8910 C   0  0  0  0  0  0  0  0  0  0  0  0
   -0.8940   -2.2520   -1.5150 O   0  0  0  0  0  0  0  0  0  0  0  0
   -1.0470    0.0180   -0.7400 C   0  0  0  0  0  0  0  0  0  0  0  0
    0.2950    0.3370   -1.1850 C   0  0  0  0  0  0  0  0  0  0  0  0
    0.9620   -0.4840   -1.8090 O   0  0  0  0  0  0  0  0  0  0  0  0
    0.8060    1.7030   -0.8090 C   0  0  2  0  0  0  0  0  0  0  0  0
    1.5720    2.0510   -1.5480 H   0  0  0  0  0  0  0  0  0  0  0  0
    1.4400    1.6240    0.5840 C   0  0  0  0  0  0  0  0  0  0  0  0
    2.6350    0.7320    0.5410 C   0  0  0  0  0  0  0  0  0  0  0  0
    2.4830   -0.6400    0.7120 C   0  0  0  0  0  0  0  0  0  0  0  0
    3.5840   -1.4830    0.6560 C   0  0  0  0  0  0  0  0  0  0  0  0
    4.8430   -0.9280    0.4230 C   0  0  0  0  0  0  0  0  0  0  0  0
    5.9800   -1.6680    0.3760 O   0  0  0  0  0  0  0  0  0  0  0  0
    5.0160    0.4500    0.2640 C   0  0  0  0  0  0  0  0  0  0  0  0
    3.9010    1.2710    0.3210 C   0  0  0  0  0  0  0  0  0  0  0  0
   -0.3780    2.6740   -0.8170 C   0  0  0  0  0  0  0  0  0  0  0  0
   -1.4170    2.2710    0.0510 O   0  0  0  0  0  0  0  0  0  0  0  0
   -1.8360    0.9920   -0.1120 C   0  0  0  0  0  0  0  0  0  0  0  0
   -3.0860    0.6720    0.4050 C   0  0  0  0  0  0  0  0  0  0  0  0
   -3.7750    1.5890    1.1320 O   0  0  0  0  0  0  0  0  0  0  0  0
   -4.6970   -2.8470    1.3530 H   0  0  0  0  0  0  0  0  0  0  0  0
   -6.2800   -2.0000    1.3610 H   0  0  0  0  0  0  0  0  0  0  0  0
   -5.5470   -2.5120   -0.1950 H   0  0  0  0  0  0  0  0  0  0  0  0
   -3.1900   -2.6470   -0.5400 H   0  0  0  0  0  0  0  0  0  0  0  0
   -0.0060   -1.9330   -1.8090 H   0  0  0  0  0  0  0  0  0  0  0  0
    1.7140    2.6440    0.9320 H   0  0  0  0  0  0  0  0  0  0  0  0
    0.7020    1.2740    1.3380 H   0  0  0  0  0  0  0  0  0  0  0  0
    1.4910   -1.0650    0.8960 H   0  0  0  0  0  0  0  0  0  0  0  0
    3.4570   -2.5600    0.7910 H   0  0  0  0  0  0  0  0  0  0  0  0
    5.7380   -2.5750    0.1490 H   0  0  0  0  0  0  0  0  0  0  0  0
    6.0130    0.8660    0.0970 H   0  0  0  0  0  0  0  0  0  0  0  0
    4.0260    2.3500    0.1880 H   0  0  0  0  0  0  0  0  0  0  0  0
   -0.1080    3.6800   -0.4310 H   0  0  0  0  0  0  0  0  0  0  0  0
   -0.7720    2.8140   -1.8490 H   0  0  0  0  0  0  0  0  0  0  0  0
   -4.5170    1.8560    0.5770 H   0  0  0  0  0  0  0  0  0  0  0  0
  1 27  1  0
  1  2  1  0
  1 25  1  0
  1 26  1  0
  2  3  1  0
  3  4  2  0
  3 23  1  0
  4  5  1  0
  4 28  1  0
  5  6  1  0
  5  7  2  0
  6 29  1  0
  7  8  1  0
  7 22  1  0
  8  9  2  0
  8 10  1  0
 10 11  1  6
 10 20  1  0
 10 12  1  0
 12 13  1  0
 12 30  1  0
 12 31  1  0
 13 19  2  0
 13 14  1  0
 14 15  2  0
 14 32  1  0
 15 16  1  0
 15 33  1  0
 16 18  2  0
 16 17  1  0
 17 34  1  0
 18 35  1  0
 18 19  1  0
 19 36  1  0
 20 38  1  0
 20 37  1  0
 20 21  1  0
 21 22  1  0
 22 23  2  0
 23 24  1  0
 24 39  1  0
M  END
>  <id>  (258) 
360

>  <scaffolds>  (258) 
['c1ccccc1', 'O=C1c2ccccc2OCC1Cc1ccccc1', 'O=C(CCc1ccccc1)c1ccccc1']

>  <name>  (258) 
8-O-demethyl-7-O-methyl-3,9-dihydropunctatin

>  <formula>  (258) 
C17H16O6

>  <SMILES>  (258) 
COc3cc(O)c2C(=O)[C@H](Cc1ccc(O)cc1)COc2c3O

>  <ChEMBL_id>  (258) 


>  <ZINC_id>  (258) 


>  <PubChem_id>  (258) 


>  <DrugBank_id>  (258) 


>  <CAS_no>  (258) 
887375-71-5

>  <references>  (258) 
[{'journal': {'name': 'Phytochemistry: Advances in Research (Book)', 'id': 13}, 'title': 'Chapter 3: The phytochemistry and ethnobotany of the southern African genus Eucomis (Hyacinthaceae: Hyacinthoideae)', 'year': 2006, 'start_page': 69, 'volume': None, 'issue': None, 'doi': '', 'isbn': '81-308-0034-9', 'despositor': {'code': 'rah', 'first_name': 'Rowan', 'last_name': 'Hatherley', 'id': 20}, 'refauthors_set': [{'author': {'first_name': 'Chantal', 'initials': 'C', 'last_name': 'Koorbanally', 'id': 523}, 'first_author': True, 'id': 851}, {'author': {'first_name': 'Neil', 'initials': 'NR', 'last_name': 'Crouch', 'id': 524}, 'first_author': False, 'id': 852}, {'author': {'first_name': 'Dulcie', 'initials': 'DA', 'last_name': 'Mulholland', 'id': 525}, 'first_author': False, 'id': 853}], 'id': 259}, {'journal': {'name': 'Biochemical Systematics and Ecology', 'id': 24}, 'title': 'Coincident isolation of a novel homoisoflavonoid from Resnova humifusa and Eucomis montana (Hyacinthoideae: Hyacinthaceae)', 'year': 2006, 'start_page': 114, 'volume': 34, 'issue': None, 'doi': '10.1016/j.bse.2005.08.003', 'isbn': '', 'despositor': {'code': 'rah', 'first_name': 'Rowan', 'last_name': 'Hatherley', 'id': 20}, 'refauthors_set': [{'author': {'first_name': 'Chantal', 'initials': 'C', 'last_name': 'Koorbanally', 'id': 523}, 'first_author': True, 'id': 854}, {'author': {'first_name': 'Neil', 'initials': 'NR', 'last_name': 'Crouch', 'id': 524}, 'first_author': False, 'id': 855}, {'author': {'first_name': 'Avinash', 'initials': 'A', 'last_name': 'Harilal', 'id': 624}, 'first_author': False, 'id': 856}, {'author': {'first_name': 'Bavani', 'initials': 'B', 'last_name': 'Pillay', 'id': 625}, 'first_author': False, 'id': 857}, {'author': {'first_name': 'Dulcie', 'initials': 'DA', 'last_name': 'Mulholland', 'id': 525}, 'first_author': False, 'id': 858}], 'id': 286}]

>  <classifications>  (258) 
[{'classification': 'Flavonoids', 'id': 776}, {'classification': 'Homoisoflavonoid', 'id': 783}, {'classification': 'Homoisoflavonoids (Classyfire)', 'id': 964}]

>  <molecular_mass>  (258) 
316.3

$$$$
SANC00361_minRM1.pdb
     RDKit          3D

 36 38  0  0  1  0  0  0  0  0999 V2000
    0.2730    1.0670   -0.7100 O   0  0  0  0  0  0  0  0  0  0  0  0
   -0.4120    0.0910   -0.4210 C   0  0  0  0  0  0  0  0  0  0  0  0
   -1.8410    0.2230   -0.2240 C   0  0  0  0  0  0  0  0  0  0  0  0
   -2.4540    1.4880   -0.2550 C   0  0  0  0  0  0  0  0  0  0  0  0
   -1.7810    2.6060   -0.5370 O   0  0  0  0  0  0  0  0  0  0  0  0
   -3.8190    1.6390    0.0140 C   0  0  0  0  0  0  0  0  0  0  0  0
   -4.5560    0.4950    0.3100 C   0  0  0  0  0  0  0  0  0  0  0  0
   -5.8720    0.5360    0.6030 O   0  0  0  0  0  0  0  0  0  0  0  0
   -3.9950   -0.7930    0.3280 C   0  0  0  0  0  0  0  0  0  0  0  0
   -2.6440   -0.8960    0.0410 C   0  0  0  0  0  0  0  0  0  0  0  0
   -2.1170   -2.1510    0.0770 O   0  0  0  0  0  0  0  0  0  0  0  0
   -0.9210   -2.3180   -0.6510 C   0  0  0  0  0  0  0  0  0  0  0  0
    0.1590   -1.3060   -0.1970 C   0  0  2  0  0  0  0  0  0  0  0  0
    0.4660   -1.4860    1.1470 O   0  0  0  0  0  0  0  0  0  0  0  0
    1.4550   -1.5500   -0.9910 C   0  0  0  0  0  0  0  0  0  0  0  0
    2.5940   -0.7150   -0.5030 C   0  0  0  0  0  0  0  0  0  0  0  0
    3.0060    0.4060   -1.2180 C   0  0  0  0  0  0  0  0  0  0  0  0
    4.0700    1.1740   -0.7650 C   0  0  0  0  0  0  0  0  0  0  0  0
    4.7160    0.8000    0.4120 C   0  0  0  0  0  0  0  0  0  0  0  0
    5.8140    1.4950    0.8300 O   0  0  0  0  0  0  0  0  0  0  0  0
    4.3290   -0.3290    1.1310 C   0  0  0  0  0  0  0  0  0  0  0  0
    3.2640   -1.0860    0.6610 C   0  0  0  0  0  0  0  0  0  0  0  0
   -0.8180    2.4250   -0.6400 H   0  0  0  0  0  0  0  0  0  0  0  0
   -4.2680    2.6330   -0.0070 H   0  0  0  0  0  0  0  0  0  0  0  0
   -6.2040    1.4300    0.4410 H   0  0  0  0  0  0  0  0  0  0  0  0
   -4.6020   -1.6720    0.5630 H   0  0  0  0  0  0  0  0  0  0  0  0
   -0.6360   -3.3670   -0.4250 H   0  0  0  0  0  0  0  0  0  0  0  0
   -1.1080   -2.2460   -1.7450 H   0  0  0  0  0  0  0  0  0  0  0  0
   -0.3390   -1.3550    1.6630 H   0  0  0  0  0  0  0  0  0  0  0  0
    1.7310   -2.6250   -0.9300 H   0  0  0  0  0  0  0  0  0  0  0  0
    1.2550   -1.3680   -2.0690 H   0  0  0  0  0  0  0  0  0  0  0  0
    2.4860    0.7030   -2.1340 H   0  0  0  0  0  0  0  0  0  0  0  0
    4.4020    2.0540   -1.3230 H   0  0  0  0  0  0  0  0  0  0  0  0
    5.4760    2.2660    1.2990 H   0  0  0  0  0  0  0  0  0  0  0  0
    4.8600   -0.6130    2.0440 H   0  0  0  0  0  0  0  0  0  0  0  0
    2.9550   -1.9770    1.2180 H   0  0  0  0  0  0  0  0  0  0  0  0
  1  2  2  0
  2  3  1  0
  2 13  1  0
  3  4  2  0
  3 10  1  0
  4  5  1  0
  4  6  1  0
  5 23  1  0
  6 24  1  0
  6  7  2  0
  7  9  1  0
  7  8  1  0
  8 25  1  0
  9 10  2  0
  9 26  1  0
 10 11  1  0
 11 12  1  0
 12 28  1  0
 12 27  1  0
 12 13  1  0
 13 15  1  0
 13 14  1  1
 14 29  1  0
 15 31  1  0
 15 30  1  0
 15 16  1  0
 16 17  2  0
 16 22  1  0
 17 32  1  0
 17 18  1  0
 18 33  1  0
 18 19  2  0
 19 20  1  0
 19 21  1  0
 20 34  1  0
 21 22  2  0
 21 35  1  0
 22 36  1  0
M  END
>  <id>  (259) 
361

>  <scaffolds>  (259) 
['c1ccccc1', 'O=C1c2ccccc2OCC1Cc1ccccc1', 'O=C(CCc1ccccc1)c1ccccc1']

>  <name>  (259) 
4'-O-demethyleucomol

>  <formula>  (259) 
C16H14O6

>  <SMILES>  (259) 
O=C2c1c(O)cc(O)cc1OC[C@@]2(O)Cc3ccc(O)cc3

>  <ChEMBL_id>  (259) 


>  <ZINC_id>  (259) 


>  <PubChem_id>  (259) 


>  <DrugBank_id>  (259) 


>  <CAS_no>  (259) 
887375-72-6

>  <references>  (259) 
[{'journal': {'name': 'Phytochemistry: Advances in Research (Book)', 'id': 13}, 'title': 'Chapter 3: The phytochemistry and ethnobotany of the southern African genus Eucomis (Hyacinthaceae: Hyacinthoideae)', 'year': 2006, 'start_page': 69, 'volume': None, 'issue': None, 'doi': '', 'isbn': '81-308-0034-9', 'despositor': {'code': 'rah', 'first_name': 'Rowan', 'last_name': 'Hatherley', 'id': 20}, 'refauthors_set': [{'author': {'first_name': 'Chantal', 'initials': 'C', 'last_name': 'Koorbanally', 'id': 523}, 'first_author': True, 'id': 851}, {'author': {'first_name': 'Neil', 'initials': 'NR', 'last_name': 'Crouch', 'id': 524}, 'first_author': False, 'id': 852}, {'author': {'first_name': 'Dulcie', 'initials': 'DA', 'last_name': 'Mulholland', 'id': 525}, 'first_author': False, 'id': 853}], 'id': 259}, {'journal': {'name': 'Biochemical Systematics and Ecology', 'id': 24}, 'title': 'Coincident isolation of a novel homoisoflavonoid from Resnova humifusa and Eucomis montana (Hyacinthoideae: Hyacinthaceae)', 'year': 2006, 'start_page': 114, 'volume': 34, 'issue': None, 'doi': '10.1016/j.bse.2005.08.003', 'isbn': '', 'despositor': {'code': 'rah', 'first_name': 'Rowan', 'last_name': 'Hatherley', 'id': 20}, 'refauthors_set': [{'author': {'first_name': 'Chantal', 'initials': 'C', 'last_name': 'Koorbanally', 'id': 523}, 'first_author': True, 'id': 854}, {'author': {'first_name': 'Neil', 'initials': 'NR', 'last_name': 'Crouch', 'id': 524}, 'first_author': False, 'id': 855}, {'author': {'first_name': 'Avinash', 'initials': 'A', 'last_name': 'Harilal', 'id': 624}, 'first_author': False, 'id': 856}, {'author': {'first_name': 'Bavani', 'initials': 'B', 'last_name': 'Pillay', 'id': 625}, 'first_author': False, 'id': 857}, {'author': {'first_name': 'Dulcie', 'initials': 'DA', 'last_name': 'Mulholland', 'id': 525}, 'first_author': False, 'id': 858}], 'id': 286}]

>  <classifications>  (259) 
[{'classification': 'Flavonoids', 'id': 776}, {'classification': 'Homoisoflavonoid', 'id': 783}, {'classification': 'Homoisoflavonoids (Classyfire)', 'id': 964}]

>  <molecular_mass>  (259) 
302.28

$$$$
SANC00362_minRM1.pdb
     RDKit          3D

 41 43  0  0  1  0  0  0  0  0999 V2000
    5.4830    2.7100    0.2670 C   0  0  0  0  0  0  0  0  0  0  0  0
    5.5370    1.3080    0.2370 O   0  0  0  0  0  0  0  0  0  0  0  0
    4.3610    0.6320    0.3840 C   0  0  0  0  0  0  0  0  0  0  0  0
    3.1350    1.2090    0.7020 C   0  0  0  0  0  0  0  0  0  0  0  0
    2.0210    0.3860    0.8280 C   0  0  0  0  0  0  0  0  0  0  0  0
    2.1280   -0.9870    0.6490 C   0  0  0  0  0  0  0  0  0  0  0  0
    0.9250   -1.8570    0.7860 C   0  0  0  0  0  0  0  0  0  0  0  0
    0.2370   -2.0100   -0.5750 C   0  0  1  0  0  0  0  0  0  0  0  0
   -1.0020   -2.9020   -0.4670 C   0  0  0  0  0  0  0  0  0  0  0  0
   -1.9780   -2.3630    0.3990 O   0  0  0  0  0  0  0  0  0  0  0  0
   -2.3410   -1.0800    0.1380 C   0  0  0  0  0  0  0  0  0  0  0  0
   -3.5590   -0.6710    0.6540 C   0  0  0  0  0  0  0  0  0  0  0  0
   -3.9490    0.6600    0.4210 C   0  0  0  0  0  0  0  0  0  0  0  0
   -5.1410    0.9650    0.9920 O   0  0  0  0  0  0  0  0  0  0  0  0
   -5.6480    2.2660    0.8130 C   0  0  0  0  0  0  0  0  0  0  0  0
   -3.1820    1.5500   -0.3250 C   0  0  0  0  0  0  0  0  0  0  0  0
   -1.9580    1.0940   -0.8300 C   0  0  0  0  0  0  0  0  0  0  0  0
   -1.2430    1.9780   -1.5340 O   0  0  0  0  0  0  0  0  0  0  0  0
   -1.5070   -0.2140   -0.5860 C   0  0  0  0  0  0  0  0  0  0  0  0
   -0.2040   -0.6480   -1.0420 C   0  0  0  0  0  0  0  0  0  0  0  0
    0.4910    0.0790   -1.7470 O   0  0  0  0  0  0  0  0  0  0  0  0
    3.3650   -1.5500    0.3330 C   0  0  0  0  0  0  0  0  0  0  0  0
    4.4860   -0.7520    0.2000 C   0  0  0  0  0  0  0  0  0  0  0  0
    5.1940    3.1110    1.2510 H   0  0  0  0  0  0  0  0  0  0  0  0
    6.5240    3.0080    0.0620 H   0  0  0  0  0  0  0  0  0  0  0  0
    4.8260    3.1400   -0.5070 H   0  0  0  0  0  0  0  0  0  0  0  0
    3.0130    2.2840    0.8520 H   0  0  0  0  0  0  0  0  0  0  0  0
    1.0520    0.8360    1.0740 H   0  0  0  0  0  0  0  0  0  0  0  0
    1.1980   -2.8580    1.1850 H   0  0  0  0  0  0  0  0  0  0  0  0
    0.2160   -1.4490    1.5400 H   0  0  0  0  0  0  0  0  0  0  0  0
    0.9550   -2.4610   -1.3070 H   0  0  0  0  0  0  0  0  0  0  0  0
   -1.4420   -3.0980   -1.4710 H   0  0  0  0  0  0  0  0  0  0  0  0
   -0.7790   -3.8890   -0.0090 H   0  0  0  0  0  0  0  0  0  0  0  0
   -4.1970   -1.3560    1.2190 H   0  0  0  0  0  0  0  0  0  0  0  0
   -5.0050    3.0450    1.2530 H   0  0  0  0  0  0  0  0  0  0  0  0
   -5.8500    2.5100   -0.2430 H   0  0  0  0  0  0  0  0  0  0  0  0
   -6.6040    2.2380    1.3630 H   0  0  0  0  0  0  0  0  0  0  0  0
   -3.4850    2.5770   -0.5330 H   0  0  0  0  0  0  0  0  0  0  0  0
   -0.4040    1.5680   -1.8580 H   0  0  0  0  0  0  0  0  0  0  0  0
    3.4550   -2.6320    0.1890 H   0  0  0  0  0  0  0  0  0  0  0  0
    5.4580   -1.1890   -0.0470 H   0  0  0  0  0  0  0  0  0  0  0  0
  1 26  1  0
  1 25  1  0
  1  2  1  0
  1 24  1  0
  2  3  1  0
  3 23  2  0
  3  4  1  0
  4  5  2  0
  4 27  1  0
  5  6  1  0
  5 28  1  0
  6 22  2  0
  6  7  1  0
  7  8  1  0
  7 29  1  0
  7 30  1  0
  8 31  1  6
  8 20  1  0
  8  9  1  0
  9 32  1  0
  9 33  1  0
  9 10  1  0
 10 11  1  0
 11 19  2  0
 11 12  1  0
 12 13  2  0
 12 34  1  0
 13 16  1  0
 13 14  1  0
 14 15  1  0
 15 36  1  0
 15 35  1  0
 15 37  1  0
 16 17  2  0
 16 38  1  0
 17 18  1  0
 17 19  1  0
 18 39  1  0
 19 20  1  0
 20 21  2  0
 22 40  1  0
 22 23  1  0
 23 41  1  0
M  END
>  <id>  (260) 
362

>  <scaffolds>  (260) 
['c1ccccc1', 'O=C1c2ccccc2OCC1Cc1ccccc1', 'O=C(CCc1ccccc1)c1ccccc1']

>  <name>  (260) 
7-O-methyl-3,9-dihydroeucomin

>  <formula>  (260) 
C18H18O5

>  <SMILES>  (260) 
COc3ccc(CC2COc1cc(OC)cc(O)c1C2=O)cc3

>  <ChEMBL_id>  (260) 


>  <ZINC_id>  (260) 


>  <PubChem_id>  (260) 


>  <DrugBank_id>  (260) 


>  <CAS_no>  (260) 
61350-56-9

>  <references>  (260) 
[{'journal': {'name': 'Phytochemistry: Advances in Research (Book)', 'id': 13}, 'title': 'Chapter 3: The phytochemistry and ethnobotany of the southern African genus Eucomis (Hyacinthaceae: Hyacinthoideae)', 'year': 2006, 'start_page': 69, 'volume': None, 'issue': None, 'doi': '', 'isbn': '81-308-0034-9', 'despositor': {'code': 'rah', 'first_name': 'Rowan', 'last_name': 'Hatherley', 'id': 20}, 'refauthors_set': [{'author': {'first_name': 'Chantal', 'initials': 'C', 'last_name': 'Koorbanally', 'id': 523}, 'first_author': True, 'id': 851}, {'author': {'first_name': 'Neil', 'initials': 'NR', 'last_name': 'Crouch', 'id': 524}, 'first_author': False, 'id': 852}, {'author': {'first_name': 'Dulcie', 'initials': 'DA', 'last_name': 'Mulholland', 'id': 525}, 'first_author': False, 'id': 853}], 'id': 259}, {'journal': {'name': 'Helvetica Chimica Acta', 'id': 12}, 'title': 'Homoisoflavonones. IV. New constituents of the eucomin series of Eucomis bicolor', 'year': 1976, 'start_page': 2048, 'volume': 59, 'issue': 6, 'doi': '10.1002/hlca.19760590618', 'isbn': '', 'despositor': {'code': 'rah', 'first_name': 'Rowan', 'last_name': 'Hatherley', 'id': 20}, 'refauthors_set': [{'author': {'first_name': '', 'initials': 'W', 'last_name': 'Heller', 'id': 596}, 'first_author': True, 'id': 826}, {'author': {'first_name': '', 'initials': 'P', 'last_name': 'Andermatt', 'id': 597}, 'first_author': False, 'id': 827}, {'author': {'first_name': '', 'initials': 'WA', 'last_name': 'Schaad', 'id': 598}, 'first_author': False, 'id': 828}, {'author': {'first_name': 'Christoph', 'initials': 'C', 'last_name': 'Tamm', 'id': 543}, 'first_author': False, 'id': 829}], 'id': 285}]

>  <classifications>  (260) 
[{'classification': 'Flavonoids', 'id': 776}, {'classification': 'Homoisoflavonoid', 'id': 783}, {'classification': 'Homoisoflavonoids (Classyfire)', 'id': 964}]

>  <molecular_mass>  (260) 
314.33

$$$$
SANC00363_minRM1.pdb
     RDKit          3D

 52 55  0  0  1  0  0  0  0  0999 V2000
    1.0080   -0.9130   -1.5310 H   0  0  0  0  0  0  0  0  0  0  0  0
    1.1080   -0.8710   -0.4110 C   0  0  1  0  0  0  0  0  0  0  0  0
    0.3630   -2.0710    0.1730 C   0  0  0  0  0  0  0  0  0  0  0  0
   -1.0450   -2.1330   -0.4000 C   0  0  0  0  0  0  0  0  0  0  0  0
   -1.8150   -0.8510   -0.1360 C   0  0  1  0  0  0  0  0  0  0  0  0
   -2.3390   -0.7290    1.2760 C   0  0  0  0  0  0  0  0  0  0  0  0
   -3.5160   -0.0940    1.2750 C   0  0  0  0  0  0  0  0  0  0  0  0
   -3.9060    0.2570   -0.1410 C   0  0  1  0  0  0  0  0  0  0  0  0
   -5.4010    0.2280   -0.3730 C   0  0  0  0  0  0  0  0  0  0  0  0
   -3.2940    1.6110   -0.5040 C   0  0  0  0  0  0  0  0  0  0  0  0
   -1.8070    1.6720   -0.1460 C   0  0  0  0  0  0  0  0  0  0  0  0
   -1.0240    0.4080   -0.5310 C   0  0  1  0  0  0  0  0  0  0  0  0
   -0.9280    0.3990   -1.6500 H   0  0  0  0  0  0  0  0  0  0  0  0
    0.4100    0.4200    0.0600 C   0  0  1  0  0  0  0  0  0  0  0  0
    0.3810    0.5460    1.5790 C   0  0  0  0  0  0  0  0  0  0  0  0
    1.1560    1.6410   -0.4990 C   0  0  0  0  0  0  0  0  0  0  0  0
    2.6260    1.5390   -0.2190 C   0  0  0  0  0  0  0  0  0  0  0  0
    3.2540    2.4090    0.3540 O   0  0  0  0  0  0  0  0  0  0  0  0
    3.2960    0.2880   -0.7600 C   0  0  1  0  0  0  0  0  0  0  0  0
    3.1630    0.2800   -1.8790 H   0  0  0  0  0  0  0  0  0  0  0  0
    4.6530    0.2230   -0.4480 O   0  0  0  0  0  0  0  0  0  0  0  0
    2.6220   -0.9520   -0.1240 C   0  0  1  0  0  0  0  0  0  0  0  0
    2.9680   -1.0270    1.3580 C   0  0  0  0  0  0  0  0  0  0  0  0
    3.1830   -2.2030   -0.8120 C   0  0  0  0  0  0  0  0  0  0  0  0
   -3.1410   -0.8160   -0.9390 C   0  0  0  0  0  0  0  0  0  0  0  0
    0.9060   -3.0190   -0.0420 H   0  0  0  0  0  0  0  0  0  0  0  0
    0.3230   -2.0210    1.2830 H   0  0  0  0  0  0  0  0  0  0  0  0
   -1.0120   -2.3370   -1.4920 H   0  0  0  0  0  0  0  0  0  0  0  0
   -1.5940   -3.0010    0.0250 H   0  0  0  0  0  0  0  0  0  0  0  0
   -1.8130   -1.1340    2.1320 H   0  0  0  0  0  0  0  0  0  0  0  0
   -4.1410    0.1620    2.1220 H   0  0  0  0  0  0  0  0  0  0  0  0
   -5.9260    0.9900    0.2210 H   0  0  0  0  0  0  0  0  0  0  0  0
   -5.6560    0.4100   -1.4270 H   0  0  0  0  0  0  0  0  0  0  0  0
   -5.8400   -0.7420   -0.1020 H   0  0  0  0  0  0  0  0  0  0  0  0
   -3.4450    1.8160   -1.5850 H   0  0  0  0  0  0  0  0  0  0  0  0
   -3.8350    2.4330    0.0110 H   0  0  0  0  0  0  0  0  0  0  0  0
   -1.3650    2.5640   -0.6390 H   0  0  0  0  0  0  0  0  0  0  0  0
   -1.6940    1.8760    0.9430 H   0  0  0  0  0  0  0  0  0  0  0  0
    0.1800   -0.4120    2.0850 H   0  0  0  0  0  0  0  0  0  0  0  0
    1.3370    0.9070    1.9950 H   0  0  0  0  0  0  0  0  0  0  0  0
   -0.3890    1.2550    1.9270 H   0  0  0  0  0  0  0  0  0  0  0  0
    1.0170    1.7410   -1.5970 H   0  0  0  0  0  0  0  0  0  0  0  0
    0.7490    2.5850   -0.0760 H   0  0  0  0  0  0  0  0  0  0  0  0
    5.0490    1.0840   -0.6240 H   0  0  0  0  0  0  0  0  0  0  0  0
    2.7610   -0.0900    1.8980 H   0  0  0  0  0  0  0  0  0  0  0  0
    2.4300   -1.8310    1.8800 H   0  0  0  0  0  0  0  0  0  0  0  0
    4.0390   -1.2290    1.5230 H   0  0  0  0  0  0  0  0  0  0  0  0
    4.2670   -2.3130   -0.6600 H   0  0  0  0  0  0  0  0  0  0  0  0
    2.7140   -3.1220   -0.4270 H   0  0  0  0  0  0  0  0  0  0  0  0
    3.0230   -2.2000   -1.9000 H   0  0  0  0  0  0  0  0  0  0  0  0
   -3.0220   -0.5830   -2.0110 H   0  0  0  0  0  0  0  0  0  0  0  0
   -3.6590   -1.7940   -0.9210 H   0  0  0  0  0  0  0  0  0  0  0  0
  2  1  1  6
  2 22  1  0
  2 14  1  0
  2  3  1  0
  3  4  1  0
  3 26  1  0
  3 27  1  0
  4 28  1  0
  4  5  1  0
  4 29  1  0
  5 25  1  0
  5 12  1  0
  5  6  1  1
  6  7  2  0
  6 30  1  0
  7  8  1  0
  7 31  1  0
  8 25  1  0
  8 10  1  0
  8  9  1  1
  9 33  1  0
  9 34  1  0
  9 32  1  0
 10 35  1  0
 10 11  1  0
 10 36  1  0
 11 37  1  0
 11 12  1  0
 11 38  1  0
 12 13  1  6
 12 14  1  0
 14 16  1  0
 14 15  1  1
 15 41  1  0
 15 40  1  0
 15 39  1  0
 16 42  1  0
 16 17  1  0
 16 43  1  0
 17 19  1  0
 17 18  2  0
 19 20  1  6
 19 21  1  0
 19 22  1  0
 21 44  1  0
 22 24  1  6
 22 23  1  0
 23 47  1  0
 23 46  1  0
 23 45  1  0
 24 50  1  0
 24 48  1  0
 24 49  1  0
 25 51  1  0
 25 52  1  0
M  END
>  <id>  (261) 
363

>  <scaffolds>  (261) 
['C1CCCCC1', 'C1=CC23CCC4CCCCC4C2CCC1C3', 'C1CCC2CCCCC2C1']

>  <name>  (261) 
ent-3[beta]-Hydroxy-beyer-15-ene-2-one

>  <formula>  (261) 
C20H30O2

>  <SMILES>  (261) 
[H][C@]23CC[C@@]14C=C[C@@](C)(CC[C@@]1([H])[C@]2(C)CC(=O)[C@@H](O)C3(C)C)C4

>  <ChEMBL_id>  (261) 


>  <ZINC_id>  (261) 


>  <PubChem_id>  (261) 


>  <DrugBank_id>  (261) 


>  <CAS_no>  (261) 
140850-37-9

>  <references>  (261) 
[{'journal': {'name': 'Journal of Ethnopharmacology', 'id': 7}, 'title': 'Antibacterial activities and cytotoxicity of terpenoids isolated from Spirostachys africana', 'year': 2008, 'start_page': 194, 'volume': 116, 'issue': 1, 'doi': '10.1016/j.jep.2007.11.017', 'isbn': '', 'despositor': {'code': 'NFA', 'first_name': 'Ngonidzashe', 'last_name': 'Faya', 'id': 21}, 'refauthors_set': [{'author': {'first_name': 'Matlakala', 'initials': 'MC', 'last_name': 'Mathabe', 'id': 473}, 'first_author': True, 'id': 632}, {'author': {'first_name': 'Ahmed', 'initials': 'AA', 'last_name': 'Hussein', 'id': 440}, 'first_author': None, 'id': 1230}, {'author': {'first_name': 'Roumiana', 'initials': 'RV', 'last_name': 'Nikolova', 'id': 475}, 'first_author': None, 'id': 1231}, {'author': {'first_name': 'Adriaan', 'initials': 'AE', 'last_name': 'Basson', 'id': 476}, 'first_author': None, 'id': 1232}, {'author': {'first_name': 'Jacobus', 'initials': 'JJM', 'last_name': 'Meyer', 'id': 467}, 'first_author': None, 'id': 1233}, {'author': {'first_name': 'Namrita', 'initials': 'N', 'last_name': 'Lall', 'id': 441}, 'first_author': None, 'id': 1234}], 'id': 238}, {'journal': {'name': 'Phytochemistry', 'id': 10}, 'title': 'Diterpenoids from Spirostachys africana', 'year': 1992, 'start_page': 699, 'volume': 31, 'issue': 2, 'doi': '10.1016/0031-9422(92)90065-X', 'isbn': '', 'despositor': {'code': 'rah', 'first_name': 'Rowan', 'last_name': 'Hatherley', 'id': 20}, 'refauthors_set': [{'author': {'first_name': 'Zvitendo', 'initials': 'ZJ', 'last_name': 'Duri', 'id': 835}, 'first_author': True, 'id': 1356}, {'author': {'first_name': 'Neil', 'initials': 'NA', 'last_name': 'Hughes', 'id': 836}, 'first_author': None, 'id': 1357}, {'author': {'first_name': 'Namboole', 'initials': 'NM', 'last_name': 'Munkombwe', 'id': 837}, 'first_author': None, 'id': 1358}], 'id': 388}]

>  <classifications>  (261) 
[{'classification': 'Diterpene', 'id': 771}, {'classification': 'Terpenoid', 'id': 839}, {'classification': 'Phenol lipids (Classyfire)', 'id': 951}]

>  <molecular_mass>  (261) 
302.45

$$$$
SANC00364_minRM1.pdb
     RDKit          3D

 58 60  0  0  1  0  0  0  0  0999 V2000
   -1.5560   -0.1410   -1.0400 H   0  0  0  0  0  0  0  0  0  0  0  0
   -0.0800   -4.2480   -1.4250 C   0  0  0  0  0  0  0  0  0  0  0  0
    5.2230   -0.4470    0.6280 C   0  0  0  0  0  0  0  0  0  0  0  0
    4.0860   -1.2610   -1.4630 C   0  0  0  0  0  0  0  0  0  0  0  0
   -4.4130    0.6560    0.8050 C   0  0  0  0  0  0  0  0  0  0  0  0
   -4.0400   -0.8670   -1.0840 C   0  0  0  0  0  0  0  0  0  0  0  0
   -1.5810    2.0930    1.6880 C   0  0  0  0  0  0  0  0  0  0  0  0
   -0.9850   -3.9310    0.8150 O   0  0  0  0  0  0  0  0  0  0  0  0
    2.4850   -1.5420    1.2330 O   0  0  0  0  0  0  0  0  0  0  0  0
    1.0780    3.2400    0.8580 O   0  0  0  0  0  0  0  0  0  0  0  0
    3.3390    2.6080   -0.7390 O   0  0  0  0  0  0  0  0  0  0  0  0
   -2.1020   -0.5530    2.2030 O   0  0  0  0  0  0  0  0  0  0  0  0
   -2.8820    2.8010   -0.9720 C   0  0  0  0  0  0  0  0  0  0  0  0
   -3.6380    1.5570   -1.4090 C   0  0  0  0  0  0  0  0  0  0  0  0
   -1.4040    2.4860   -0.7810 C   0  0  0  0  0  0  0  0  0  0  0  0
   -0.0700   -2.1950   -0.2650 O   0  0  0  0  0  0  0  0  0  0  0  0
   -0.4310   -3.5030   -0.1790 C   0  0  0  0  0  0  0  0  0  0  0  0
    2.5680    1.6930   -0.1120 C   0  0  0  0  0  0  0  0  0  0  0  0
    2.9860    0.4180   -0.0090 C   0  0  0  0  0  0  0  0  0  0  0  0
    0.6350   -0.2060    0.6450 C   0  0  0  0  0  0  0  0  0  0  0  0
    0.2180    1.0490    0.4560 C   0  0  0  0  0  0  0  0  0  0  0  0
    2.0870   -0.5370    0.6700 C   0  0  0  0  0  0  0  0  0  0  0  0
    1.2440    2.1120    0.4330 C   0  0  0  0  0  0  0  0  0  0  0  0
    4.3000   -0.0710   -0.5300 C   0  0  1  0  0  0  0  0  0  0  0  0
   -1.7910   -0.9610    0.9090 C   0  0  2  0  0  0  0  0  0  0  0  0
   -0.2890   -1.3670    0.8640 C   0  0  1  0  0  0  0  0  0  0  0  0
   -3.5130    0.4080   -0.3990 C   0  0  1  0  0  0  0  0  0  0  0  0
   -1.2280    1.4540    0.3450 C   0  0  1  0  0  0  0  0  0  0  0  0
   -2.0230    0.1990   -0.0690 C   0  0  1  0  0  0  0  0  0  0  0  0
   -0.3480   -5.3120   -1.3410 H   0  0  0  0  0  0  0  0  0  0  0  0
   -0.6110   -3.8390   -2.2990 H   0  0  0  0  0  0  0  0  0  0  0  0
    0.9980   -4.1920   -1.6430 H   0  0  0  0  0  0  0  0  0  0  0  0
    6.2490   -0.6360    0.2720 H   0  0  0  0  0  0  0  0  0  0  0  0
    5.2900    0.3540    1.3810 H   0  0  0  0  0  0  0  0  0  0  0  0
    4.9100   -1.3600    1.1570 H   0  0  0  0  0  0  0  0  0  0  0  0
    3.6400   -2.1320   -0.9660 H   0  0  0  0  0  0  0  0  0  0  0  0
    3.4340   -1.0030   -2.3100 H   0  0  0  0  0  0  0  0  0  0  0  0
    5.0410   -1.6040   -1.8930 H   0  0  0  0  0  0  0  0  0  0  0  0
   -4.4460   -0.1990    1.4960 H   0  0  0  0  0  0  0  0  0  0  0  0
   -4.1130    1.5270    1.4050 H   0  0  0  0  0  0  0  0  0  0  0  0
   -5.4570    0.8390    0.5040 H   0  0  0  0  0  0  0  0  0  0  0  0
   -5.1030   -0.7770   -1.3530 H   0  0  0  0  0  0  0  0  0  0  0  0
   -3.5080   -1.1130   -2.0140 H   0  0  0  0  0  0  0  0  0  0  0  0
   -3.9530   -1.7530   -0.4350 H   0  0  0  0  0  0  0  0  0  0  0  0
   -2.6490    2.0060    1.9400 H   0  0  0  0  0  0  0  0  0  0  0  0
   -1.0310    1.6530    2.5350 H   0  0  0  0  0  0  0  0  0  0  0  0
   -1.3500    3.1680    1.7130 H   0  0  0  0  0  0  0  0  0  0  0  0
    3.0770    3.4910   -0.4530 H   0  0  0  0  0  0  0  0  0  0  0  0
   -2.2350   -1.3480    2.7310 H   0  0  0  0  0  0  0  0  0  0  0  0
   -3.0020    3.6020   -1.7340 H   0  0  0  0  0  0  0  0  0  0  0  0
   -3.3230    3.2430   -0.0540 H   0  0  0  0  0  0  0  0  0  0  0  0
   -4.7080    1.8000   -1.5850 H   0  0  0  0  0  0  0  0  0  0  0  0
   -3.2690    1.2360   -2.4080 H   0  0  0  0  0  0  0  0  0  0  0  0
   -0.9570    2.1140   -1.7280 H   0  0  0  0  0  0  0  0  0  0  0  0
   -0.8550    3.4290   -0.5790 H   0  0  0  0  0  0  0  0  0  0  0  0
    4.8040    0.7430   -1.1180 H   0  0  0  0  0  0  0  0  0  0  0  0
   -2.4320   -1.8380    0.6010 H   0  0  0  0  0  0  0  0  0  0  0  0
    0.0090   -1.8800    1.8230 H   0  0  0  0  0  0  0  0  0  0  0  0
  2 31  1  0
  2 32  1  0
  2 30  1  0
  2 17  1  0
  3 24  1  0
  3 33  1  0
  3 35  1  0
  3 34  1  0
  4 37  1  0
  4 38  1  0
  4 36  1  0
  4 24  1  0
 27  5  1  1
  5 41  1  0
  5 40  1  0
  5 39  1  0
  6 43  1  0
  6 42  1  0
  6 44  1  0
  6 27  1  0
  7 47  1  0
  7 45  1  0
  7 46  1  0
  8 17  2  0
  9 22  2  0
 10 23  2  0
 11 48  1  0
 11 18  1  0
 12 25  1  0
 12 49  1  0
 13 50  1  0
 13 14  1  0
 13 15  1  0
 13 51  1  0
 14 53  1  0
 14 52  1  0
 14 27  1  0
 15 54  1  0
 15 55  1  0
 15 28  1  0
 16 17  1  0
 16 26  1  0
 18 19  2  0
 18 23  1  0
 19 24  1  0
 19 22  1  0
 20 21  2  0
 20 22  1  0
 20 26  1  0
 21 28  1  0
 21 23  1  0
 24 56  1  6
 25 29  1  0
 25 57  1  6
 25 26  1  0
 26 58  1  1
 27 29  1  0
 28  7  1  1
 28 29  1  0
 29  1  1  6
M  END
>  <id>  (262) 
364

>  <scaffolds>  (262) 
['C1=CC2CCCCC2CC1', 'C1=CCCCC1', 'C1CCCCC1']

>  <name>  (262) 
7[alpha]-Acetoxy-6[beta],12-dihydroxy-abieta-8,12-diene-11,14-dione

>  <formula>  (262) 
C22H30O6

>  <SMILES>  (262) 
[H][C@@]23[C@H](O)[C@@H](OC(C)=O)c1c(c(=O)c(O)c(C(C)C)c1=O)[C@@]2(C)CCCC3(C)C

>  <ChEMBL_id>  (262) 


>  <ZINC_id>  (262) 


>  <PubChem_id>  (262) 
 2751798

>  <DrugBank_id>  (262) 


>  <CAS_no>  (262) 
57932-74-8

>  <references>  (262) 
[{'journal': {'name': 'South African Journal of Science', 'id': 6}, 'title': 'Antiplasmodial activities of some abietane diterpenes from the leaves of five Plectranthus species', 'year': 2008, 'start_page': 62, 'volume': 104, 'issue': 1, 'doi': '', 'isbn': '', 'despositor': {'code': 'TMM', 'first_name': 'Thommas', 'last_name': 'Musyoka', 'id': 22}, 'refauthors_set': [{'author': {'first_name': '', 'initials': 'RL', 'last_name': 'Van Zyl', 'id': 626}, 'first_author': True, 'id': 859}, {'author': {'first_name': 'Fatima', 'initials': 'F', 'last_name': 'Khan', 'id': 623}, 'first_author': False, 'id': 860}, {'author': {'first_name': 'Trevor', 'initials': 'TJ', 'last_name': 'Edwards', 'id': 627}, 'first_author': False, 'id': 861}, {'author': {'first_name': 'Siegfried', 'initials': 'SE', 'last_name': 'Drewes', 'id': 613}, 'first_author': False, 'id': 862}], 'id': 295}]

>  <classifications>  (262) 
[{'classification': 'Diterpene', 'id': 771}, {'classification': 'Terpenoid', 'id': 839}, {'classification': 'Phenol lipids (Classyfire)', 'id': 951}]

>  <molecular_mass>  (262) 
390.47

$$$$
SANC00365_minRM1.pdb
     RDKit          3D

 55 57  0  0  1  0  0  0  0  0999 V2000
    1.5390   -0.5390    1.0320 H   0  0  0  0  0  0  0  0  0  0  0  0
   -5.1760    0.1370   -0.7790 C   0  0  0  0  0  0  0  0  0  0  0  0
   -4.2160   -0.8380    1.3270 C   0  0  0  0  0  0  0  0  0  0  0  0
    4.5130   -0.1170   -0.7460 C   0  0  0  0  0  0  0  0  0  0  0  0
    3.8870   -1.6130    1.0990 C   0  0  0  0  0  0  0  0  0  0  0  0
    1.9360    1.7500   -1.6250 C   0  0  0  0  0  0  0  0  0  0  0  0
   -1.1370   -4.0880    0.9780 O   0  0  0  0  0  0  0  0  0  0  0  0
   -0.5500    3.2300   -0.8050 O   0  0  0  0  0  0  0  0  0  0  0  0
   -2.6010   -1.3320   -1.2860 O   0  0  0  0  0  0  0  0  0  0  0  0
   -2.9300    2.8910    0.6910 O   0  0  0  0  0  0  0  0  0  0  0  0
    2.0790   -0.9310   -2.2170 O   0  0  0  0  0  0  0  0  0  0  0  0
   -0.9700   -3.4220   -0.0230 C   0  0  0  0  0  0  0  0  0  0  0  0
    3.2700    2.1840    1.0710 C   0  0  0  0  0  0  0  0  0  0  0  0
    3.8350    0.8330    1.4810 C   0  0  0  0  0  0  0  0  0  0  0  0
    1.7660    2.0850    0.8520 C   0  0  0  0  0  0  0  0  0  0  0  0
   -0.1100   -2.3700    0.1710 O   0  0  0  0  0  0  0  0  0  0  0  0
   -2.2710    1.8880    0.0760 C   0  0  0  0  0  0  0  0  0  0  0  0
   -2.8620    0.6870   -0.0690 C   0  0  0  0  0  0  0  0  0  0  0  0
   -0.6040   -0.2500   -0.6920 C   0  0  0  0  0  0  0  0  0  0  0  0
   -0.0190    0.9290   -0.4610 C   0  0  0  0  0  0  0  0  0  0  0  0
   -0.8860    2.1250   -0.4250 C   0  0  0  0  0  0  0  0  0  0  0  0
   -2.0860   -0.3760   -0.7320 C   0  0  0  0  0  0  0  0  0  0  0  0
   -4.2460    0.3760    0.4060 C   0  0  1  0  0  0  0  0  0  0  0  0
    1.6970   -1.3300   -0.9390 C   0  0  2  0  0  0  0  0  0  0  0  0
    0.1500   -1.5250   -0.9280 C   0  0  1  0  0  0  0  0  0  0  0  0
    3.5650   -0.2600    0.4390 C   0  0  1  0  0  0  0  0  0  0  0  0
    1.4680    1.1240   -0.3110 C   0  0  1  0  0  0  0  0  0  0  0  0
    2.0680   -0.2420    0.0780 C   0  0  1  0  0  0  0  0  0  0  0  0
   -6.2290    0.0930   -0.4610 H   0  0  0  0  0  0  0  0  0  0  0  0
   -5.1020    0.9400   -1.5230 H   0  0  0  0  0  0  0  0  0  0  0  0
   -4.9800   -0.8080   -1.3050 H   0  0  0  0  0  0  0  0  0  0  0  0
   -3.5430   -0.6870    2.1840 H   0  0  0  0  0  0  0  0  0  0  0  0
   -5.2140   -1.0460    1.7430 H   0  0  0  0  0  0  0  0  0  0  0  0
   -3.8920   -1.7620    0.8300 H   0  0  0  0  0  0  0  0  0  0  0  0
    4.4480   -0.9630   -1.4460 H   0  0  0  0  0  0  0  0  0  0  0  0
    4.3390    0.7910   -1.3420 H   0  0  0  0  0  0  0  0  0  0  0  0
    5.5660   -0.0740   -0.4250 H   0  0  0  0  0  0  0  0  0  0  0  0
    4.9470   -1.6860    1.3860 H   0  0  0  0  0  0  0  0  0  0  0  0
    3.3060   -1.8010    2.0140 H   0  0  0  0  0  0  0  0  0  0  0  0
    3.6830   -2.4620    0.4260 H   0  0  0  0  0  0  0  0  0  0  0  0
    2.9860    1.5240   -1.8610 H   0  0  0  0  0  0  0  0  0  0  0  0
    1.3500    1.4180   -2.4970 H   0  0  0  0  0  0  0  0  0  0  0  0
    1.8540    2.8460   -1.6190 H   0  0  0  0  0  0  0  0  0  0  0  0
   -2.4900    3.7290    0.5000 H   0  0  0  0  0  0  0  0  0  0  0  0
    2.1820   -1.7260   -2.7480 H   0  0  0  0  0  0  0  0  0  0  0  0
   -1.4240   -3.5950   -1.0170 H   0  0  0  0  0  0  0  0  0  0  0  0
    3.4870    2.9400    1.8580 H   0  0  0  0  0  0  0  0  0  0  0  0
    3.7830    2.5830    0.1710 H   0  0  0  0  0  0  0  0  0  0  0  0
    4.9250    0.9170    1.6800 H   0  0  0  0  0  0  0  0  0  0  0  0
    3.4070    0.5410    2.4660 H   0  0  0  0  0  0  0  0  0  0  0  0
    1.2560    1.7480    1.7810 H   0  0  0  0  0  0  0  0  0  0  0  0
    1.3590    3.1020    0.6770 H   0  0  0  0  0  0  0  0  0  0  0  0
   -4.6500    1.2420    0.9930 H   0  0  0  0  0  0  0  0  0  0  0  0
    2.1960   -2.3000   -0.6470 H   0  0  0  0  0  0  0  0  0  0  0  0
   -0.1830   -1.9560   -1.9150 H   0  0  0  0  0  0  0  0  0  0  0  0
  2 30  1  0
  2 31  1  0
  2 29  1  0
  2 23  1  0
  3 23  1  0
  3 34  1  0
  3 33  1  0
  3 32  1  0
  4 35  1  0
  4 36  1  0
  4 37  1  0
 26  4  1  6
  5 40  1  0
  5 26  1  0
  5 38  1  0
  5 39  1  0
  6 42  1  0
  6 41  1  0
  6 43  1  0
  7 12  2  0
  8 21  2  0
  9 22  2  0
 10 17  1  0
 10 44  1  0
 11 45  1  0
 11 24  1  0
 12 46  1  0
 12 16  1  0
 13 48  1  0
 13 15  1  0
 13 14  1  0
 13 47  1  0
 14 26  1  0
 14 49  1  0
 14 50  1  0
 15 27  1  0
 15 52  1  0
 15 51  1  0
 16 25  1  0
 17 21  1  0
 17 18  2  0
 18 22  1  0
 18 23  1  0
 19 25  1  0
 19 22  1  0
 19 20  2  0
 20 21  1  0
 20 27  1  0
 23 53  1  1
 24 25  1  0
 24 54  1  1
 24 28  1  0
 25 55  1  6
 26 28  1  0
 27  6  1  6
 27 28  1  0
 28  1  1  1
M  END
>  <id>  (263) 
365

>  <scaffolds>  (263) 
['C1=CC2CCCCC2CC1', 'C1=CCCCC1', 'C1CCCCC1']

>  <name>  (263) 
7[alpha]-Formyloxy-6[beta],12-dihydroxy-abieta-8,12-diene-11,14-dione

>  <formula>  (263) 
C21H28O6

>  <SMILES>  (263) 
[H][C@@]23[C@H](O)[C@@H](OC=O)c1c(c(=O)c(O)c(C(C)C)c1=O)[C@@]2(C)CCCC3(C)C

>  <ChEMBL_id>  (263) 


>  <ZINC_id>  (263) 


>  <PubChem_id>  (263) 
 462176

>  <DrugBank_id>  (263) 


>  <CAS_no>  (263) 
65714-77-4

>  <references>  (263) 
[{'journal': {'name': 'South African Journal of Science', 'id': 6}, 'title': 'Antiplasmodial activities of some abietane diterpenes from the leaves of five Plectranthus species', 'year': 2008, 'start_page': 62, 'volume': 104, 'issue': 1, 'doi': '', 'isbn': '', 'despositor': {'code': 'TMM', 'first_name': 'Thommas', 'last_name': 'Musyoka', 'id': 22}, 'refauthors_set': [{'author': {'first_name': '', 'initials': 'RL', 'last_name': 'Van Zyl', 'id': 626}, 'first_author': True, 'id': 859}, {'author': {'first_name': 'Fatima', 'initials': 'F', 'last_name': 'Khan', 'id': 623}, 'first_author': False, 'id': 860}, {'author': {'first_name': 'Trevor', 'initials': 'TJ', 'last_name': 'Edwards', 'id': 627}, 'first_author': False, 'id': 861}, {'author': {'first_name': 'Siegfried', 'initials': 'SE', 'last_name': 'Drewes', 'id': 613}, 'first_author': False, 'id': 862}], 'id': 295}]

>  <classifications>  (263) 
[{'classification': 'Diterpene', 'id': 771}, {'classification': 'Terpenoid', 'id': 839}, {'classification': 'Phenol lipids (Classyfire)', 'id': 951}]

>  <molecular_mass>  (263) 
376.44

$$$$
SANC00366_minRM1.pdb
     RDKit          3D

 40 44  0  0  1  0  0  0  0  0999 V2000
    1.5230   -0.3870   -1.3170 H   0  0  0  0  0  0  0  0  0  0  0  0
    1.7040   -0.9070   -0.3400 C   0  0  2  0  0  0  0  0  0  0  0  0
    3.1980   -0.8680   -0.0410 C   0  0  0  0  0  0  0  0  0  0  0  0
    3.6390    0.5960    0.1000 C   0  0  1  0  0  0  0  0  0  0  0  0
    4.6940    0.6320    0.4940 H   0  0  0  0  0  0  0  0  0  0  0  0
    3.5800    1.1270   -1.2050 O   0  0  0  0  0  0  0  0  0  0  0  0
    4.0590    2.4380   -1.3210 C   0  0  0  0  0  0  0  0  0  0  0  0
    2.7380    1.3620    1.0240 C   0  0  0  0  0  0  0  0  0  0  0  0
    1.5040    0.9760    1.3320 C   0  0  0  0  0  0  0  0  0  0  0  0
    0.8900   -0.2730    0.8140 C   0  0  2  0  0  0  0  0  0  0  0  0
    0.8870   -1.3800    1.8910 C   0  0  0  0  0  0  0  0  0  0  0  0
    1.0550   -2.6820    1.0840 C   0  0  0  0  0  0  0  0  0  0  0  0
    1.1800   -2.3170   -0.3680 N   0  0  0  0  0  0  0  0  0  0  0  0
   -0.1740   -2.2560   -0.9930 C   0  0  0  0  0  0  0  0  0  0  0  0
   -1.0360   -1.1230   -0.5080 C   0  0  0  0  0  0  0  0  0  0  0  0
   -2.3630   -1.0950   -0.9700 C   0  0  0  0  0  0  0  0  0  0  0  0
   -3.1240   -0.0360   -0.5460 C   0  0  0  0  0  0  0  0  0  0  0  0
   -4.4350    0.2400   -0.8340 O   0  0  0  0  0  0  0  0  0  0  0  0
   -4.7490    1.4490   -0.1470 C   0  0  0  0  0  0  0  0  0  0  0  0
   -3.5890    1.8890    0.5570 O   0  0  0  0  0  0  0  0  0  0  0  0
   -2.6100    0.9640    0.2990 C   0  0  0  0  0  0  0  0  0  0  0  0
   -1.3180    0.9470    0.7580 C   0  0  0  0  0  0  0  0  0  0  0  0
   -0.5260   -0.1320    0.3310 C   0  0  0  0  0  0  0  0  0  0  0  0
    3.4680   -1.4160    0.8840 H   0  0  0  0  0  0  0  0  0  0  0  0
    3.7670   -1.3810   -0.8460 H   0  0  0  0  0  0  0  0  0  0  0  0
    5.0920    2.5680   -0.9530 H   0  0  0  0  0  0  0  0  0  0  0  0
    4.0430    2.6400   -2.4030 H   0  0  0  0  0  0  0  0  0  0  0  0
    3.4200    3.1840   -0.8190 H   0  0  0  0  0  0  0  0  0  0  0  0
    3.1590    2.2790    1.4490 H   0  0  0  0  0  0  0  0  0  0  0  0
    0.8870    1.5630    2.0250 H   0  0  0  0  0  0  0  0  0  0  0  0
    1.7020   -1.2400    2.6280 H   0  0  0  0  0  0  0  0  0  0  0  0
   -0.0370   -1.3700    2.4990 H   0  0  0  0  0  0  0  0  0  0  0  0
    1.9770   -3.2360    1.3680 H   0  0  0  0  0  0  0  0  0  0  0  0
    0.2330   -3.4040    1.2810 H   0  0  0  0  0  0  0  0  0  0  0  0
   -0.0300   -2.1680   -2.0970 H   0  0  0  0  0  0  0  0  0  0  0  0
   -0.6940   -3.2330   -0.8580 H   0  0  0  0  0  0  0  0  0  0  0  0
   -2.7650   -1.8670   -1.6280 H   0  0  0  0  0  0  0  0  0  0  0  0
   -5.0540    2.2260   -0.8810 H   0  0  0  0  0  0  0  0  0  0  0  0
   -5.5730    1.2630    0.5760 H   0  0  0  0  0  0  0  0  0  0  0  0
   -0.9350    1.7290    1.4170 H   0  0  0  0  0  0  0  0  0  0  0  0
  2  1  1  6
  2 13  1  0
  2  3  1  0
  2 10  1  0
  3 25  1  0
  3  4  1  0
  3 24  1  0
  4  6  1  0
  4  5  1  1
  4  8  1  0
  6  7  1  0
  7 27  1  0
  7 26  1  0
  7 28  1  0
  8  9  2  0
  8 29  1  0
  9 30  1  0
 10  9  1  1
 10 23  1  0
 10 11  1  0
 11 12  1  0
 11 32  1  0
 11 31  1  0
 12 34  1  0
 12 33  1  0
 13 12  1  0
 13 14  1  0
 14 35  1  0
 14 36  1  0
 14 15  1  0
 15 16  2  0
 15 23  1  0
 16 37  1  0
 16 17  1  0
 17 18  1  0
 17 21  2  0
 18 19  1  0
 19 38  1  0
 19 20  1  0
 19 39  1  0
 20 21  1  0
 21 22  1  0
 22 23  2  0
 22 40  1  0
M  END
>  <id>  (264) 
366

>  <scaffolds>  (264) 
['c1ccccc1', 'C1=CC23CCN(Cc4cc5c(cc42)OCO5)C3CC1', 'C1=CCCCC1', 'C1CCNC1', 'C1=CC23CCN(Cc4ccccc42)C3CC1', 'c1ccc2c(c1)OCO2']

>  <name>  (264) 
Buphanisine

>  <formula>  (264) 
C17H19NO3

>  <SMILES>  (264) 
[H][C@@]12C[C@@H](OC)C=C[C@]15CC[N@]2Cc4cc3OCOc3cc45

>  <ChEMBL_id>  (264) 


>  <ZINC_id>  (264) 


>  <PubChem_id>  (264) 
625225

>  <DrugBank_id>  (264) 


>  <CAS_no>  (264) 
468-22-4

>  <references>  (264) 
[{'journal': {'name': 'South African Journal of Botany', 'id': 1}, 'title': 'Alkaloids from Boophone disticha with affinity to the serotonin transporter', 'year': 2009, 'start_page': 371, 'volume': 75, 'issue': None, 'doi': '10.1016/j.sajb.2009.02.173', 'isbn': '', 'despositor': {'code': 'DLP', 'first_name': 'David', 'last_name': 'Penkler', 'id': 23}, 'refauthors_set': [{'author': {'first_name': 'J', 'initials': 'JS', 'last_name': 'Neergaard', 'id': 628}, 'first_author': True, 'id': 863}, {'author': {'first_name': '', 'initials': 'J', 'last_name': 'Andersen', 'id': 629}, 'first_author': False, 'id': 864}, {'author': {'first_name': 'Martin', 'initials': 'M', 'last_name': 'Pedersen', 'id': 486}, 'first_author': False, 'id': 865}, {'author': {'first_name': 'Gary ', 'initials': 'GI', 'last_name': 'Stafford', 'id': 595}, 'first_author': False, 'id': 866}, {'author': {'first_name': 'Johannes', 'initials': 'J', 'last_name': 'Van Staden', 'id': 489}, 'first_author': False, 'id': 867}, {'author': {'first_name': 'Anna', 'initials': 'AK', 'last_name': 'Jager', 'id': 610}, 'first_author': False, 'id': 868}], 'id': 296}]

>  <classifications>  (264) 
[{'classification': 'Alkaloid', 'id': 738}, {'classification': 'Amaryllidaceae', 'id': 741}, {'classification': 'Amaryllidaceae alkaloids (Classyfire)', 'id': 971}]

>  <molecular_mass>  (264) 
285.34

$$$$
SANC00367_minRM1.pdb
     RDKit          3D

 62 65  0  0  1  0  0  0  0  0999 V2000
   -7.2840   -1.4860    0.2180 C   0  0  0  0  0  0  0  0  0  0  0  0
   -6.0900   -2.2180   -0.3890 C   0  0  1  0  0  0  0  0  0  0  0  0
   -6.3110   -2.4590   -1.8790 C   0  0  0  0  0  0  0  0  0  0  0  0
   -4.8490   -1.4100   -0.1710 C   0  0  0  0  0  0  0  0  0  0  0  0
   -4.6920   -0.1930   -0.7070 C   0  0  0  0  0  0  0  0  0  0  0  0
   -3.5020    0.6100   -0.4900 C   0  0  0  0  0  0  0  0  0  0  0  0
   -3.4620    1.8700   -0.9680 C   0  0  0  0  0  0  0  0  0  0  0  0
   -2.2870    2.6860   -0.8300 C   0  0  0  0  0  0  0  0  0  0  0  0
   -1.1750    2.2430   -0.2240 C   0  0  0  0  0  0  0  0  0  0  0  0
    0.0700    3.0970   -0.2120 C   0  0  1  0  0  0  0  0  0  0  0  0
    0.0400    4.1730   -1.3110 C   0  0  0  0  0  0  0  0  0  0  0  0
    0.1790    3.8350    1.1250 C   0  0  0  0  0  0  0  0  0  0  0  0
    1.3240    2.2530   -0.4760 C   0  0  0  0  0  0  0  0  0  0  0  0
    1.3360    0.9880    0.3730 C   0  0  2  0  0  0  0  0  0  0  0  0
    1.3790    1.2230    1.4730 H   0  0  0  0  0  0  0  0  0  0  0  0
    2.4430    0.1870   -0.0120 O   0  0  0  0  0  0  0  0  0  0  0  0
    3.6680    0.5250    0.4640 C   0  0  0  0  0  0  0  0  0  0  0  0
    3.7920    1.4840    1.2120 O   0  0  0  0  0  0  0  0  0  0  0  0
    4.7540   -0.3490    0.0070 C   0  0  0  0  0  0  0  0  0  0  0  0
    4.5660   -1.3330   -0.9640 C   0  0  0  0  0  0  0  0  0  0  0  0
    5.6290   -2.1210   -1.3720 C   0  0  0  0  0  0  0  0  0  0  0  0
    6.8850   -1.9200   -0.7890 C   0  0  0  0  0  0  0  0  0  0  0  0
    7.8750   -2.7300   -1.2200 O   0  0  0  0  0  0  0  0  0  0  0  0
    7.0810   -0.9530    0.1990 C   0  0  0  0  0  0  0  0  0  0  0  0
    6.0080   -0.1690    0.5920 C   0  0  0  0  0  0  0  0  0  0  0  0
    0.0980    0.1440    0.0650 C   0  0  0  0  0  0  0  0  0  0  0  0
   -1.1600    0.9140    0.4920 C   0  0  1  0  0  0  0  0  0  0  0  0
   -1.1590    1.2080    1.9990 C   0  0  0  0  0  0  0  0  0  0  0  0
   -2.3840    0.0590    0.2510 C   0  0  0  0  0  0  0  0  0  0  0  0
   -2.5300   -1.1810    0.7710 C   0  0  0  0  0  0  0  0  0  0  0  0
   -1.4960   -1.8140    1.3790 O   0  0  0  0  0  0  0  0  0  0  0  0
   -3.7840   -1.9670    0.6660 C   0  0  0  0  0  0  0  0  0  0  0  0
   -3.8920   -3.0150    1.2880 O   0  0  0  0  0  0  0  0  0  0  0  0
   -7.1320   -1.2730    1.2850 H   0  0  0  0  0  0  0  0  0  0  0  0
   -7.4920   -0.5240   -0.2720 H   0  0  0  0  0  0  0  0  0  0  0  0
   -8.2060   -2.0810    0.1410 H   0  0  0  0  0  0  0  0  0  0  0  0
   -5.9990   -3.2180    0.1140 H   0  0  0  0  0  0  0  0  0  0  0  0
   -6.5060   -1.5360   -2.4420 H   0  0  0  0  0  0  0  0  0  0  0  0
   -5.4420   -2.9410   -2.3480 H   0  0  0  0  0  0  0  0  0  0  0  0
   -7.1740   -3.1180   -2.0560 H   0  0  0  0  0  0  0  0  0  0  0  0
   -5.4750    0.2510   -1.3340 H   0  0  0  0  0  0  0  0  0  0  0  0
   -4.3140    2.3120   -1.4980 H   0  0  0  0  0  0  0  0  0  0  0  0
   -2.3650    3.6800   -1.2830 H   0  0  0  0  0  0  0  0  0  0  0  0
   -0.7160    4.9480   -1.1250 H   0  0  0  0  0  0  0  0  0  0  0  0
    0.9990    4.7060   -1.3880 H   0  0  0  0  0  0  0  0  0  0  0  0
   -0.1620    3.7550   -2.3080 H   0  0  0  0  0  0  0  0  0  0  0  0
    0.4410    3.1800    1.9680 H   0  0  0  0  0  0  0  0  0  0  0  0
    0.9550    4.6140    1.1060 H   0  0  0  0  0  0  0  0  0  0  0  0
   -0.7650    4.3320    1.3930 H   0  0  0  0  0  0  0  0  0  0  0  0
    1.3840    1.9800   -1.5530 H   0  0  0  0  0  0  0  0  0  0  0  0
    2.2360    2.8600   -0.2940 H   0  0  0  0  0  0  0  0  0  0  0  0
    3.5730   -1.5090   -1.4010 H   0  0  0  0  0  0  0  0  0  0  0  0
    5.4930   -2.9060   -2.1250 H   0  0  0  0  0  0  0  0  0  0  0  0
    8.7120   -2.4930   -0.7960 H   0  0  0  0  0  0  0  0  0  0  0  0
    8.0550   -0.8190    0.6720 H   0  0  0  0  0  0  0  0  0  0  0  0
    6.1510    0.5790    1.3790 H   0  0  0  0  0  0  0  0  0  0  0  0
    0.0390   -0.1140   -1.0130 H   0  0  0  0  0  0  0  0  0  0  0  0
    0.1900   -0.8350    0.5790 H   0  0  0  0  0  0  0  0  0  0  0  0
   -0.2090    1.6510    2.3440 H   0  0  0  0  0  0  0  0  0  0  0  0
   -1.9620    1.9080    2.2730 H   0  0  0  0  0  0  0  0  0  0  0  0
   -1.2990    0.3130    2.6200 H   0  0  0  0  0  0  0  0  0  0  0  0
   -1.8340   -2.2410    2.1820 H   0  0  0  0  0  0  0  0  0  0  0  0
  1  2  1  0
  1 35  1  0
  1 36  1  0
  1 34  1  0
  2  3  1  0
  2  4  1  0
  2 37  1  1
  3 38  1  0
  3 39  1  0
  3 40  1  0
  4  5  2  0
  4 32  1  0
  5 41  1  0
  5  6  1  0
  6  7  2  0
  6 29  1  0
  7 42  1  0
  7  8  1  0
  8 43  1  0
  8  9  2  0
  9 10  1  0
  9 27  1  0
 10 11  1  6
 10 13  1  0
 10 12  1  0
 11 46  1  0
 11 45  1  0
 11 44  1  0
 12 48  1  0
 12 49  1  0
 12 47  1  0
 13 50  1  0
 13 51  1  0
 13 14  1  0
 14 16  1  0
 14 26  1  0
 14 15  1  1
 16 17  1  0
 17 19  1  0
 17 18  2  0
 19 20  2  0
 19 25  1  0
 20 52  1  0
 20 21  1  0
 21 53  1  0
 21 22  2  0
 22 23  1  0
 22 24  1  0
 23 54  1  0
 24 25  2  0
 24 55  1  0
 25 56  1  0
 26 57  1  0
 26 27  1  0
 26 58  1  0
 27 29  1  0
 27 28  1  1
 28 60  1  0
 28 59  1  0
 28 61  1  0
 29 30  2  0
 30 32  1  0
 30 31  1  0
 31 62  1  0
 32 33  2  0
M  END
>  <id>  (265) 
367

>  <scaffolds>  (265) 
['c1ccccc1', 'C1CCCCC1']

>  <name>  (265) 
Parviflorone D

>  <formula>  (265) 
C27H30O5

>  <SMILES>  (265) 
CC(C)c4cc3=CC=C2C(C)(C)C[C@H](OC(=O)c1ccc(O)cc1)C[C@]2(C)c3c(O)c4=O

>  <ChEMBL_id>  (265) 


>  <ZINC_id>  (265) 


>  <PubChem_id>  (265) 


>  <DrugBank_id>  (265) 


>  <CAS_no>  (265) 
66656-57-3

>  <references>  (265) 
[{'journal': {'name': 'South African Journal of Science', 'id': 6}, 'title': 'Antiplasmodial activities of some abietane diterpenes from the leaves of five Plectranthus species', 'year': 2008, 'start_page': 62, 'volume': 104, 'issue': 1, 'doi': '', 'isbn': '', 'despositor': {'code': 'TMM', 'first_name': 'Thommas', 'last_name': 'Musyoka', 'id': 22}, 'refauthors_set': [{'author': {'first_name': '', 'initials': 'RL', 'last_name': 'Van Zyl', 'id': 626}, 'first_author': True, 'id': 859}, {'author': {'first_name': 'Fatima', 'initials': 'F', 'last_name': 'Khan', 'id': 623}, 'first_author': False, 'id': 860}, {'author': {'first_name': 'Trevor', 'initials': 'TJ', 'last_name': 'Edwards', 'id': 627}, 'first_author': False, 'id': 861}, {'author': {'first_name': 'Siegfried', 'initials': 'SE', 'last_name': 'Drewes', 'id': 613}, 'first_author': False, 'id': 862}], 'id': 295}]

>  <classifications>  (265) 
[{'classification': 'Diterpene', 'id': 771}, {'classification': 'Terpenoid', 'id': 839}, {'classification': 'Phenol lipids (Classyfire)', 'id': 951}]

>  <molecular_mass>  (265) 
434.52

$$$$
SANC00368_minRM1.pdb
     RDKit          3D

 37 38  0  0  0  0  0  0  0  0999 V2000
    5.5610    2.5130   -0.0530 C   0  0  0  0  0  0  0  0  0  0  0  0
    5.7160    1.1190   -0.1670 O   0  0  0  0  0  0  0  0  0  0  0  0
    4.5830    0.3590   -0.1090 C   0  0  0  0  0  0  0  0  0  0  0  0
    3.2870    0.8450   -0.0640 C   0  0  0  0  0  0  0  0  0  0  0  0
    2.2220   -0.0610   -0.0040 C   0  0  0  0  0  0  0  0  0  0  0  0
    0.8690    0.5090    0.0370 C   0  0  0  0  0  0  0  0  0  0  0  0
    0.5860    1.6990    0.0840 O   0  0  0  0  0  0  0  0  0  0  0  0
   -0.1280   -0.4140    0.0160 O   0  0  0  0  0  0  0  0  0  0  0  0
   -1.4560    0.0830    0.0210 C   0  0  0  0  0  0  0  0  0  0  0  0
   -2.3510   -1.1610    0.0070 C   0  0  0  0  0  0  0  0  0  0  0  0
   -3.7630   -0.6780   -0.0020 C   0  0  0  0  0  0  0  0  0  0  0  0
   -4.4170   -0.4260    1.2010 C   0  0  0  0  0  0  0  0  0  0  0  0
   -5.7160    0.0620    1.2020 C   0  0  0  0  0  0  0  0  0  0  0  0
   -6.3440    0.3010   -0.0190 C   0  0  0  0  0  0  0  0  0  0  0  0
   -7.6510    0.6990   -0.0390 O   0  0  0  0  0  0  0  0  0  0  0  0
   -5.7110    0.0360   -1.2320 C   0  0  0  0  0  0  0  0  0  0  0  0
   -4.4130   -0.4570   -1.2140 C   0  0  0  0  0  0  0  0  0  0  0  0
    2.4510   -1.4320    0.0190 C   0  0  0  0  0  0  0  0  0  0  0  0
    3.7510   -1.9230   -0.0310 C   0  0  0  0  0  0  0  0  0  0  0  0
    4.8200   -1.0310   -0.0970 C   0  0  0  0  0  0  0  0  0  0  0  0
    6.0450   -1.6000   -0.1080 O   0  0  0  0  0  0  0  0  0  0  0  0
    5.0810    2.8280    0.8870 H   0  0  0  0  0  0  0  0  0  0  0  0
    6.5970    2.8830   -0.0700 H   0  0  0  0  0  0  0  0  0  0  0  0
    5.0160    2.9510   -0.9080 H   0  0  0  0  0  0  0  0  0  0  0  0
    3.0720    1.9180   -0.0520 H   0  0  0  0  0  0  0  0  0  0  0  0
   -1.6450    0.7060    0.9250 H   0  0  0  0  0  0  0  0  0  0  0  0
   -1.6450    0.7320   -0.8630 H   0  0  0  0  0  0  0  0  0  0  0  0
   -2.1280   -1.8040   -0.8700 H   0  0  0  0  0  0  0  0  0  0  0  0
   -2.1440   -1.8150    0.8800 H   0  0  0  0  0  0  0  0  0  0  0  0
   -3.9160   -0.6310    2.1520 H   0  0  0  0  0  0  0  0  0  0  0  0
   -6.2460    0.2420    2.1420 H   0  0  0  0  0  0  0  0  0  0  0  0
   -7.6350    1.6580    0.0740 H   0  0  0  0  0  0  0  0  0  0  0  0
   -6.2430    0.1830   -2.1770 H   0  0  0  0  0  0  0  0  0  0  0  0
   -3.9100   -0.6850   -2.1580 H   0  0  0  0  0  0  0  0  0  0  0  0
    1.6200   -2.1450    0.0790 H   0  0  0  0  0  0  0  0  0  0  0  0
    3.9380   -3.0010   -0.0060 H   0  0  0  0  0  0  0  0  0  0  0  0
    6.7250   -0.9500   -0.2610 H   0  0  0  0  0  0  0  0  0  0  0  0
  1 24  1  0
  1  2  1  0
  1 23  1  0
  1 22  1  0
  2  3  1  0
  3 20  2  0
  3  4  1  0
  4 25  1  0
  4  5  2  0
  5 18  1  0
  5  6  1  0
  6  8  1  0
  6  7  2  0
  8  9  1  0
  9 27  1  0
  9 10  1  0
  9 26  1  0
 10 28  1  0
 10 11  1  0
 10 29  1  0
 11 17  2  0
 11 12  1  0
 12 13  2  0
 12 30  1  0
 13 14  1  0
 13 31  1  0
 14 16  2  0
 14 15  1  0
 15 32  1  0
 16 33  1  0
 16 17  1  0
 17 34  1  0
 18 19  2  0
 18 35  1  0
 19 20  1  0
 19 36  1  0
 20 21  1  0
 21 37  1  0
M  END
>  <id>  (266) 
368

>  <scaffolds>  (266) 
['c1ccccc1', 'O=C(OCCc1ccccc1)c1ccccc1']

>  <name>  (266) 
4'-hydroxyphenyl ethyl vanillate

>  <formula>  (266) 
C16H16O5

>  <SMILES>  (266) 
COc2cc(C(=O)OCCc1ccc(O)cc1)ccc2O

>  <ChEMBL_id>  (266) 


>  <ZINC_id>  (266) 


>  <PubChem_id>  (266) 


>  <DrugBank_id>  (266) 


>  <CAS_no>  (266) 
1539303-03-1

>  <references>  (266) 
[{'journal': {'name': 'Journal of Ethnopharmacology', 'id': 7}, 'title': 'Antimicrobial and acetylcholinesterase inhibitory activities of Buddleja salviifolia (L.) Lam. leaf extracts and isolated compounds', 'year': 2013, 'start_page': 515, 'volume': 148, 'issue': None, 'doi': '10.1016/j.jep.2013.04.047', 'isbn': '', 'despositor': {'code': 'DLP', 'first_name': 'David', 'last_name': 'Penkler', 'id': 23}, 'refauthors_set': [{'author': {'first_name': 'S', 'initials': 'SC', 'last_name': 'Pendota', 'id': 631}, 'first_author': True, 'id': 869}, {'author': {'first_name': '', 'initials': 'MA', 'last_name': 'Aderogba', 'id': 442}, 'first_author': False, 'id': 870}, {'author': {'first_name': 'A', 'initials': 'AR', 'last_name': 'Ndhlala', 'id': 632}, 'first_author': False, 'id': 871}, {'author': {'first_name': 'Johannes', 'initials': 'J', 'last_name': 'Van Staden', 'id': 489}, 'first_author': False, 'id': 872}], 'id': 297}]

>  <classifications>  (266) 
[{'classification': 'Phenol', 'id': 805}, {'classification': 'Benzene and substituted derivatives (Classyfire)', 'id': 961}]

>  <molecular_mass>  (266) 
288.29

$$$$
SANC00369_minRM1.pdb
     RDKit          3D

 63 66  0  0  1  0  0  0  0  0999 V2000
    7.5490    1.5550    0.3030 C   0  0  0  0  0  0  0  0  0  0  0  0
    6.3600    2.2710   -0.3320 C   0  0  1  0  0  0  0  0  0  0  0  0
    6.6060    2.5050   -1.8190 C   0  0  0  0  0  0  0  0  0  0  0  0
    5.1240    1.4500   -0.1320 C   0  0  0  0  0  0  0  0  0  0  0  0
    4.9950    0.2250   -0.6580 C   0  0  0  0  0  0  0  0  0  0  0  0
    3.8100   -0.5910   -0.4600 C   0  0  0  0  0  0  0  0  0  0  0  0
    3.7930   -1.8530   -0.9330 C   0  0  0  0  0  0  0  0  0  0  0  0
    2.6260   -2.6810   -0.8120 C   0  0  0  0  0  0  0  0  0  0  0  0
    1.4970   -2.2480   -0.2290 C   0  0  0  0  0  0  0  0  0  0  0  0
    0.2650   -3.1210   -0.2230 C   0  0  1  0  0  0  0  0  0  0  0  0
    0.3320   -4.2240   -1.2940 C   0  0  0  0  0  0  0  0  0  0  0  0
    0.1280   -3.8250    1.1300 C   0  0  0  0  0  0  0  0  0  0  0  0
   -0.9900   -2.2970   -0.5390 C   0  0  0  0  0  0  0  0  0  0  0  0
   -1.0410   -1.0300    0.3050 C   0  0  2  0  0  0  0  0  0  0  0  0
   -1.1000   -1.2620    1.4040 H   0  0  0  0  0  0  0  0  0  0  0  0
   -2.1500   -0.2430   -0.1080 O   0  0  0  0  0  0  0  0  0  0  0  0
   -3.3770   -0.6000    0.3470 C   0  0  0  0  0  0  0  0  0  0  0  0
   -3.5030   -1.5660    1.0840 O   0  0  0  0  0  0  0  0  0  0  0  0
   -4.4670    0.2690   -0.1190 C   0  0  0  0  0  0  0  0  0  0  0  0
   -4.2800    1.2510   -1.0890 C   0  0  0  0  0  0  0  0  0  0  0  0
   -5.3470    2.0360   -1.5060 C   0  0  0  0  0  0  0  0  0  0  0  0
   -6.6120    1.8300   -0.9540 C   0  0  0  0  0  0  0  0  0  0  0  0
   -7.6020    2.6130   -1.4340 O   0  0  0  0  0  0  0  0  0  0  0  0
   -6.7950    0.8350    0.0230 C   0  0  0  0  0  0  0  0  0  0  0  0
   -8.0490    0.7230    0.5420 O   0  0  0  0  0  0  0  0  0  0  0  0
   -5.7270    0.0550    0.4440 C   0  0  0  0  0  0  0  0  0  0  0  0
    0.1900   -0.1650    0.0160 C   0  0  0  0  0  0  0  0  0  0  0  0
    1.4510   -0.9130    0.4740 C   0  0  1  0  0  0  0  0  0  0  0  0
    1.4290   -1.1910    1.9860 C   0  0  0  0  0  0  0  0  0  0  0  0
    2.6680   -0.0450    0.2480 C   0  0  0  0  0  0  0  0  0  0  0  0
    2.7880    1.2020    0.7590 C   0  0  0  0  0  0  0  0  0  0  0  0
    1.7360    1.8370    1.3380 O   0  0  0  0  0  0  0  0  0  0  0  0
    4.0340    2.0020    0.6770 C   0  0  0  0  0  0  0  0  0  0  0  0
    4.1150    3.0560    1.2900 O   0  0  0  0  0  0  0  0  0  0  0  0
    8.4650    2.1600    0.2410 H   0  0  0  0  0  0  0  0  0  0  0  0
    7.3770    1.3480    1.3690 H   0  0  0  0  0  0  0  0  0  0  0  0
    7.7770    0.5930   -0.1760 H   0  0  0  0  0  0  0  0  0  0  0  0
    6.2480    3.2730    0.1610 H   0  0  0  0  0  0  0  0  0  0  0  0
    6.8200    1.5810   -2.3750 H   0  0  0  0  0  0  0  0  0  0  0  0
    5.7420    2.9770   -2.3080 H   0  0  0  0  0  0  0  0  0  0  0  0
    7.4680    3.1690   -1.9850 H   0  0  0  0  0  0  0  0  0  0  0  0
    5.7910   -0.2090   -1.2760 H   0  0  0  0  0  0  0  0  0  0  0  0
    4.6590   -2.2870   -1.4460 H   0  0  0  0  0  0  0  0  0  0  0  0
    2.7280   -3.6810   -1.2460 H   0  0  0  0  0  0  0  0  0  0  0  0
    1.0960   -4.9840   -1.0720 H   0  0  0  0  0  0  0  0  0  0  0  0
   -0.6180   -4.7740   -1.3740 H   0  0  0  0  0  0  0  0  0  0  0  0
    0.5450   -3.8280   -2.2970 H   0  0  0  0  0  0  0  0  0  0  0  0
   -0.1900   -3.1540    1.9430 H   0  0  0  0  0  0  0  0  0  0  0  0
   -0.6240   -4.6280    1.1030 H   0  0  0  0  0  0  0  0  0  0  0  0
    1.0740   -4.2840    1.4500 H   0  0  0  0  0  0  0  0  0  0  0  0
   -1.0150   -2.0310   -1.6190 H   0  0  0  0  0  0  0  0  0  0  0  0
   -1.9000   -2.9130   -0.3810 H   0  0  0  0  0  0  0  0  0  0  0  0
   -3.2980    1.4060   -1.5460 H   0  0  0  0  0  0  0  0  0  0  0  0
   -5.2050    2.8070   -2.2700 H   0  0  0  0  0  0  0  0  0  0  0  0
   -8.4150    2.4480   -0.9430 H   0  0  0  0  0  0  0  0  0  0  0  0
   -8.1680   -0.1930    0.8150 H   0  0  0  0  0  0  0  0  0  0  0  0
   -5.8760   -0.7300    1.1950 H   0  0  0  0  0  0  0  0  0  0  0  0
    0.2680    0.0850   -1.0620 H   0  0  0  0  0  0  0  0  0  0  0  0
    0.0720    0.8140    0.5230 H   0  0  0  0  0  0  0  0  0  0  0  0
    0.4700   -1.6200    2.3240 H   0  0  0  0  0  0  0  0  0  0  0  0
    2.2190   -1.8980    2.2780 H   0  0  0  0  0  0  0  0  0  0  0  0
    1.5690   -0.2910    2.5990 H   0  0  0  0  0  0  0  0  0  0  0  0
    2.0430    2.2100    2.1780 H   0  0  0  0  0  0  0  0  0  0  0  0
  1  2  1  0
  1 37  1  0
  1 35  1  0
  1 36  1  0
  2  3  1  0
  2  4  1  0
  2 38  1  1
  3 39  1  0
  3 40  1  0
  3 41  1  0
  4  5  2  0
  4 33  1  0
  5 42  1  0
  5  6  1  0
  6  7  2  0
  6 30  1  0
  7 43  1  0
  7  8  1  0
  8 44  1  0
  8  9  2  0
  9 10  1  0
  9 28  1  0
 10 11  1  6
 10 13  1  0
 10 12  1  0
 11 47  1  0
 11 46  1  0
 11 45  1  0
 12 49  1  0
 12 50  1  0
 12 48  1  0
 13 51  1  0
 13 52  1  0
 13 14  1  0
 14 16  1  0
 14 27  1  0
 14 15  1  1
 16 17  1  0
 17 19  1  0
 17 18  2  0
 19 20  2  0
 19 26  1  0
 20 53  1  0
 20 21  1  0
 21 54  1  0
 21 22  2  0
 22 23  1  0
 22 24  1  0
 23 55  1  0
 24 26  2  0
 24 25  1  0
 25 56  1  0
 26 57  1  0
 27 58  1  0
 27 28  1  0
 27 59  1  0
 28 30  1  0
 28 29  1  1
 29 61  1  0
 29 60  1  0
 29 62  1  0
 30 31  2  0
 31 33  1  0
 31 32  1  0
 32 63  1  0
 33 34  2  0
M  END
>  <id>  (267) 
369

>  <scaffolds>  (267) 
['c1ccccc1', 'C1CCCCC1']

>  <name>  (267) 
Parviflorone F

>  <formula>  (267) 
C27H30O6

>  <SMILES>  (267) 
CC(C)c4cc3=CC=C2C(C)(C)C[C@H](OC(=O)c1ccc(O)c(O)c1)C[C@]2(C)c3c(O)c4=O

>  <ChEMBL_id>  (267) 


>  <ZINC_id>  (267) 


>  <PubChem_id>  (267) 


>  <DrugBank_id>  (267) 


>  <CAS_no>  (267) 
66656-58-4

>  <references>  (267) 
[{'journal': {'name': 'South African Journal of Science', 'id': 6}, 'title': 'Antiplasmodial activities of some abietane diterpenes from the leaves of five Plectranthus species', 'year': 2008, 'start_page': 62, 'volume': 104, 'issue': 1, 'doi': '', 'isbn': '', 'despositor': {'code': 'TMM', 'first_name': 'Thommas', 'last_name': 'Musyoka', 'id': 22}, 'refauthors_set': [{'author': {'first_name': '', 'initials': 'RL', 'last_name': 'Van Zyl', 'id': 626}, 'first_author': True, 'id': 859}, {'author': {'first_name': 'Fatima', 'initials': 'F', 'last_name': 'Khan', 'id': 623}, 'first_author': False, 'id': 860}, {'author': {'first_name': 'Trevor', 'initials': 'TJ', 'last_name': 'Edwards', 'id': 627}, 'first_author': False, 'id': 861}, {'author': {'first_name': 'Siegfried', 'initials': 'SE', 'last_name': 'Drewes', 'id': 613}, 'first_author': False, 'id': 862}], 'id': 295}]

>  <classifications>  (267) 
[{'classification': 'Diterpene', 'id': 771}, {'classification': 'Terpenoid', 'id': 839}, {'classification': 'Phenol lipids (Classyfire)', 'id': 951}]

>  <molecular_mass>  (267) 
450.52

$$$$
SANC00370_minRM1.pdb
     RDKit          3D

 80 83  0  0  1  0  0  0  0  0999 V2000
    0.1150    4.1470    0.5000 H   0  0  0  0  0  0  0  0  0  0  0  0
   -0.8060    3.6000    0.1580 C   0  0  2  0  0  0  0  0  0  0  0  0
   -0.5490    2.4220   -0.5650 O   0  0  0  0  0  0  0  0  0  0  0  0
    0.3800    1.5470    0.0160 C   0  0  2  0  0  0  0  0  0  0  0  0
    0.3490    1.5630    1.1380 H   0  0  0  0  0  0  0  0  0  0  0  0
    1.8100    1.8680   -0.5000 C   0  0  1  0  0  0  0  0  0  0  0  0
    1.8330    1.8850   -1.6230 H   0  0  0  0  0  0  0  0  0  0  0  0
    2.1710    3.0960    0.0480 O   0  0  0  0  0  0  0  0  0  0  0  0
    2.7570    0.7650    0.0620 C   0  0  2  0  0  0  0  0  0  0  0  0
    2.8190    0.8140    1.1880 H   0  0  0  0  0  0  0  0  0  0  0  0
    3.9910    0.9670   -0.5620 O   0  0  0  0  0  0  0  0  0  0  0  0
    5.0240    0.1400   -0.0600 C   0  0  0  0  0  0  0  0  0  0  0  0
    6.3020    0.5930   -0.7800 C   0  0  0  0  0  0  0  0  0  0  0  0
    7.4120   -0.2520   -0.2450 C   0  0  0  0  0  0  0  0  0  0  0  0
    8.1340    0.1700    0.8680 C   0  0  0  0  0  0  0  0  0  0  0  0
    9.1190   -0.6390    1.4190 C   0  0  0  0  0  0  0  0  0  0  0  0
    9.3790   -1.8810    0.8460 C   0  0  0  0  0  0  0  0  0  0  0  0
   10.4100   -2.6150    1.3480 O   0  0  0  0  0  0  0  0  0  0  0  0
    8.6620   -2.3010   -0.2830 C   0  0  0  0  0  0  0  0  0  0  0  0
    8.9390   -3.4610   -0.9370 O   0  0  0  0  0  0  0  0  0  0  0  0
    7.6680   -1.4900   -0.8260 C   0  0  0  0  0  0  0  0  0  0  0  0
    2.3450   -0.5010   -0.3980 O   0  0  0  0  0  0  0  0  0  0  0  0
    1.0710   -0.8570    0.0760 C   0  0  2  0  0  0  0  0  0  0  0  0
    1.0180   -0.8410    1.2000 H   0  0  0  0  0  0  0  0  0  0  0  0
    0.8500   -2.2980   -0.4270 C   0  0  0  0  0  0  0  0  0  0  0  0
    1.7850   -3.0740    0.2630 O   0  0  0  0  0  0  0  0  0  0  0  0
    0.0430    0.1340   -0.5330 C   0  0  1  0  0  0  0  0  0  0  0  0
    0.1020    0.1390   -1.6560 H   0  0  0  0  0  0  0  0  0  0  0  0
   -1.2310   -0.1980   -0.0350 O   0  0  0  0  0  0  0  0  0  0  0  0
   -2.0470   -0.9680   -0.8110 C   0  0  0  0  0  0  0  0  0  0  0  0
   -1.6720   -1.3590   -1.9030 O   0  0  0  0  0  0  0  0  0  0  0  0
   -3.3340   -1.2530   -0.1660 C   0  0  0  0  0  0  0  0  0  0  0  0
   -4.1130   -2.2020   -0.7020 C   0  0  0  0  0  0  0  0  0  0  0  0
   -5.4290   -2.5730   -0.2020 C   0  0  0  0  0  0  0  0  0  0  0  0
   -5.9590   -2.0350    0.9700 C   0  0  0  0  0  0  0  0  0  0  0  0
   -7.2330   -2.3860    1.3950 C   0  0  0  0  0  0  0  0  0  0  0  0
   -7.9810   -3.2880    0.6450 C   0  0  0  0  0  0  0  0  0  0  0  0
   -9.2230   -3.7070    1.0080 O   0  0  0  0  0  0  0  0  0  0  0  0
   -7.4470   -3.8540   -0.5230 C   0  0  0  0  0  0  0  0  0  0  0  0
   -8.0830   -4.7750   -1.2870 O   0  0  0  0  0  0  0  0  0  0  0  0
   -6.1670   -3.5000   -0.9430 C   0  0  0  0  0  0  0  0  0  0  0  0
   -1.4260    3.2750    1.3590 O   0  0  0  0  0  0  0  0  0  0  0  0
   -2.6960    2.6720    1.2680 C   0  0  1  0  0  0  0  0  0  0  0  0
   -2.6370    1.6820    0.7420 H   0  0  0  0  0  0  0  0  0  0  0  0
   -3.1410    2.4730    2.7150 C   0  0  0  0  0  0  0  0  0  0  0  0
   -3.6710    3.6140    0.5220 C   0  0  2  0  0  0  0  0  0  0  0  0
   -3.7960    4.5800    1.0790 H   0  0  0  0  0  0  0  0  0  0  0  0
   -4.8630    2.9030    0.3590 O   0  0  0  0  0  0  0  0  0  0  0  0
   -3.1120    3.8870   -0.8950 C   0  0  1  0  0  0  0  0  0  0  0  0
   -3.0700    2.9400   -1.4990 H   0  0  0  0  0  0  0  0  0  0  0  0
   -4.0000    4.8050   -1.4530 O   0  0  0  0  0  0  0  0  0  0  0  0
   -1.6840    4.4740   -0.7790 C   0  0  1  0  0  0  0  0  0  0  0  0
   -1.2020    4.5320   -1.7940 H   0  0  0  0  0  0  0  0  0  0  0  0
   -1.8540    5.7420   -0.2260 O   0  0  0  0  0  0  0  0  0  0  0  0
    3.0170    3.3450   -0.3390 H   0  0  0  0  0  0  0  0  0  0  0  0
    5.1330    0.2470    1.0440 H   0  0  0  0  0  0  0  0  0  0  0  0
    4.8200   -0.9370   -0.2550 H   0  0  0  0  0  0  0  0  0  0  0  0
    6.1970    0.4900   -1.8800 H   0  0  0  0  0  0  0  0  0  0  0  0
    6.4910    1.6750   -0.6230 H   0  0  0  0  0  0  0  0  0  0  0  0
    7.9360    1.1520    1.3110 H   0  0  0  0  0  0  0  0  0  0  0  0
    9.7040   -0.3010    2.2800 H   0  0  0  0  0  0  0  0  0  0  0  0
   10.0290   -3.4340    1.6760 H   0  0  0  0  0  0  0  0  0  0  0  0
    8.8900   -4.1750   -0.2730 H   0  0  0  0  0  0  0  0  0  0  0  0
    7.1080   -1.8280   -1.7040 H   0  0  0  0  0  0  0  0  0  0  0  0
   -0.1810   -2.6430   -0.1830 H   0  0  0  0  0  0  0  0  0  0  0  0
    0.9510   -2.3560   -1.5360 H   0  0  0  0  0  0  0  0  0  0  0  0
    1.9250   -3.8830   -0.2530 H   0  0  0  0  0  0  0  0  0  0  0  0
   -3.5910   -0.6680    0.7220 H   0  0  0  0  0  0  0  0  0  0  0  0
   -3.7730   -2.7510   -1.5950 H   0  0  0  0  0  0  0  0  0  0  0  0
   -5.3840   -1.3220    1.5690 H   0  0  0  0  0  0  0  0  0  0  0  0
   -7.6440   -1.9520    2.3110 H   0  0  0  0  0  0  0  0  0  0  0  0
   -9.6700   -2.9620    1.4290 H   0  0  0  0  0  0  0  0  0  0  0  0
   -9.0200   -4.8160   -1.0200 H   0  0  0  0  0  0  0  0  0  0  0  0
   -5.7590   -3.9490   -1.8560 H   0  0  0  0  0  0  0  0  0  0  0  0
   -3.2170    3.4200    3.2680 H   0  0  0  0  0  0  0  0  0  0  0  0
   -4.1250    1.9850    2.7570 H   0  0  0  0  0  0  0  0  0  0  0  0
   -2.4380    1.8380    3.2730 H   0  0  0  0  0  0  0  0  0  0  0  0
   -5.5520    3.4010    0.8050 H   0  0  0  0  0  0  0  0  0  0  0  0
   -3.6060    5.1420   -2.2640 H   0  0  0  0  0  0  0  0  0  0  0  0
   -0.9880    6.1590   -0.1620 H   0  0  0  0  0  0  0  0  0  0  0  0
  2  1  1  1
  2 52  1  0
  2  3  1  0
  2 42  1  0
  3  4  1  0
  4 27  1  0
  4  6  1  0
  4  5  1  1
  6  7  1  6
  6  8  1  0
  6  9  1  0
  8 55  1  0
  9 11  1  0
  9 22  1  0
  9 10  1  1
 11 12  1  0
 12 13  1  0
 12 57  1  0
 12 56  1  0
 13 58  1  0
 13 59  1  0
 13 14  1  0
 14 21  2  0
 14 15  1  0
 15 60  1  0
 15 16  2  0
 16 17  1  0
 16 61  1  0
 17 19  2  0
 17 18  1  0
 18 62  1  0
 19 20  1  0
 19 21  1  0
 20 63  1  0
 21 64  1  0
 22 23  1  0
 23 27  1  0
 23 25  1  0
 23 24  1  1
 25 66  1  0
 25 65  1  0
 25 26  1  0
 26 67  1  0
 27 28  1  6
 27 29  1  0
 29 30  1  0
 30 31  2  0
 30 32  1  0
 32 33  2  0
 32 68  1  0
 33 69  1  0
 33 34  1  0
 34 41  2  0
 34 35  1  0
 35 36  2  0
 35 70  1  0
 36 37  1  0
 36 71  1  0
 37 39  2  0
 37 38  1  0
 38 72  1  0
 39 40  1  0
 39 41  1  0
 40 73  1  0
 41 74  1  0
 42 43  1  0
 43 46  1  0
 43 44  1  6
 43 45  1  0
 45 76  1  0
 45 75  1  0
 45 77  1  0
 46 49  1  0
 46 48  1  0
 46 47  1  1
 48 78  1  0
 49 50  1  6
 49 51  1  0
 49 52  1  0
 51 79  1  0
 52 53  1  6
 52 54  1  0
 54 80  1  0
M  END
>  <id>  (268) 
370

>  <scaffolds>  (268) 
['c1ccccc1', 'C1CCOCC1', 'O=C(C=Cc1ccccc1)OC1COC(OCCc2ccccc2)CC1OC1CCCCO1']

>  <name>  (268) 
Acteoside

>  <formula>  (268) 
C29H36O15

>  <SMILES>  (268) 
[H][C@@]4(O[C@@H]2[C@@H](O)[C@H](OCCc1ccc(O)c(O)c1)O[C@H](CO)[C@H]2OC(=O)/C=C/c3ccc(O)c(O)c3)O[C@@H](C)[C@H](O)[C@@H](O)[C@H]4O

>  <ChEMBL_id>  (268) 
CHEMBL444478

>  <ZINC_id>  (268) 


>  <PubChem_id>  (268) 
 5281800

>  <DrugBank_id>  (268) 


>  <CAS_no>  (268) 
61276-17-3

>  <references>  (268) 
[{'journal': {'name': 'Journal of Ethnopharmacology', 'id': 7}, 'title': 'Antimicrobial and acetylcholinesterase inhibitory activities of Buddleja salviifolia (L.) Lam. leaf extracts and isolated compounds', 'year': 2013, 'start_page': 515, 'volume': 148, 'issue': None, 'doi': '10.1016/j.jep.2013.04.047', 'isbn': '', 'despositor': {'code': 'DLP', 'first_name': 'David', 'last_name': 'Penkler', 'id': 23}, 'refauthors_set': [{'author': {'first_name': 'S', 'initials': 'SC', 'last_name': 'Pendota', 'id': 631}, 'first_author': True, 'id': 869}, {'author': {'first_name': '', 'initials': 'MA', 'last_name': 'Aderogba', 'id': 442}, 'first_author': False, 'id': 870}, {'author': {'first_name': 'A', 'initials': 'AR', 'last_name': 'Ndhlala', 'id': 632}, 'first_author': False, 'id': 871}, {'author': {'first_name': 'Johannes', 'initials': 'J', 'last_name': 'Van Staden', 'id': 489}, 'first_author': False, 'id': 872}], 'id': 297}]

>  <classifications>  (268) 
[{'classification': 'Phenol', 'id': 805}, {'classification': 'Cinnamic acids and derivatives (Classyfire)', 'id': 975}]

>  <molecular_mass>  (268) 
624.59

$$$$
SANC00371_minRM1.pdb
     RDKit          3D

 61 63  0  0  1  0  0  0  0  0999 V2000
    7.0840   -1.7350    1.2660 C   0  0  0  0  0  0  0  0  0  0  0  0
    7.1610   -0.4070    0.6150 C   0  0  0  0  0  0  0  0  0  0  0  0
    8.5090    0.0520    0.1570 C   0  0  0  0  0  0  0  0  0  0  0  0
    6.0860    0.3620    0.3980 C   0  0  0  0  0  0  0  0  0  0  0  0
    4.7460   -0.0340    0.8250 C   0  0  0  0  0  0  0  0  0  0  0  0
    4.4320   -0.8350    1.6930 O   0  0  0  0  0  0  0  0  0  0  0  0
    3.7790    0.6290    0.1330 O   0  0  0  0  0  0  0  0  0  0  0  0
    2.4330    0.3400    0.4610 C   0  0  0  0  0  0  0  0  0  0  0  0
    1.5580    1.1640   -0.5080 C   0  0  1  0  0  0  0  0  0  0  0  0
    1.9680    2.6420   -0.3970 C   0  0  0  0  0  0  0  0  0  0  0  0
    1.7910    0.7630   -1.9650 C   0  0  0  0  0  0  0  0  0  0  0  0
    1.1730   -0.5780   -2.3000 C   0  0  0  0  0  0  0  0  0  0  0  0
   -0.3210   -0.5420   -2.0260 C   0  0  0  0  0  0  0  0  0  0  0  0
   -0.6350   -0.2720   -0.5510 C   0  0  1  0  0  0  0  0  0  0  0  0
   -0.2010   -1.4480    0.3340 C   0  0  0  0  0  0  0  0  0  0  0  0
    0.1180    0.9560   -0.0950 C   0  0  0  0  0  0  0  0  0  0  0  0
   -0.4600    1.8490    0.7210 C   0  0  0  0  0  0  0  0  0  0  0  0
   -1.8530    1.7810    1.0640 C   0  0  0  0  0  0  0  0  0  0  0  0
   -2.6600    0.8480    0.5310 C   0  0  0  0  0  0  0  0  0  0  0  0
   -4.0710    0.8500    0.8740 C   0  0  0  0  0  0  0  0  0  0  0  0
   -4.9460    0.0100    0.3200 C   0  0  0  0  0  0  0  0  0  0  0  0
   -6.3960   -0.0070    0.6930 C   0  0  1  0  0  0  0  0  0  0  0  0
   -6.5460   -0.1530    2.2030 C   0  0  0  0  0  0  0  0  0  0  0  0
   -7.0630    1.2760    0.2080 C   0  0  0  0  0  0  0  0  0  0  0  0
   -4.4840   -0.9090   -0.7220 C   0  0  0  0  0  0  0  0  0  0  0  0
   -5.2370   -1.5250   -1.4610 O   0  0  0  0  0  0  0  0  0  0  0  0
   -3.0160   -1.0520   -0.8800 C   0  0  0  0  0  0  0  0  0  0  0  0
   -2.6090   -2.1710   -1.5310 O   0  0  0  0  0  0  0  0  0  0  0  0
   -2.1340   -0.1720   -0.3600 C   0  0  0  0  0  0  0  0  0  0  0  0
    6.8490   -1.6280    2.3360 H   0  0  0  0  0  0  0  0  0  0  0  0
    6.3010   -2.3740    0.8310 H   0  0  0  0  0  0  0  0  0  0  0  0
    8.0240   -2.3020    1.2260 H   0  0  0  0  0  0  0  0  0  0  0  0
    9.2910   -0.3360    0.7780 H   0  0  0  0  0  0  0  0  0  0  0  0
    8.7160   -0.3490   -0.8560 H   0  0  0  0  0  0  0  0  0  0  0  0
    8.6230    1.1310    0.1180 H   0  0  0  0  0  0  0  0  0  0  0  0
    6.1620    1.3350   -0.1030 H   0  0  0  0  0  0  0  0  0  0  0  0
    2.2320   -0.7520    0.3790 H   0  0  0  0  0  0  0  0  0  0  0  0
    2.2210    0.6170    1.5190 H   0  0  0  0  0  0  0  0  0  0  0  0
    2.9560    2.8300   -0.8420 H   0  0  0  0  0  0  0  0  0  0  0  0
    1.2630    3.3070   -0.9150 H   0  0  0  0  0  0  0  0  0  0  0  0
    2.0360    2.9870    0.6440 H   0  0  0  0  0  0  0  0  0  0  0  0
    1.3700    1.5400   -2.6410 H   0  0  0  0  0  0  0  0  0  0  0  0
    2.8760    0.7570   -2.2010 H   0  0  0  0  0  0  0  0  0  0  0  0
    1.3560   -0.8250   -3.3690 H   0  0  0  0  0  0  0  0  0  0  0  0
    1.6720   -1.4070   -1.7580 H   0  0  0  0  0  0  0  0  0  0  0  0
   -0.8130    0.2280   -2.6560 H   0  0  0  0  0  0  0  0  0  0  0  0
   -0.7470   -1.5060   -2.3680 H   0  0  0  0  0  0  0  0  0  0  0  0
    0.8640   -1.6950    0.2280 H   0  0  0  0  0  0  0  0  0  0  0  0
   -0.3680   -1.2320    1.3980 H   0  0  0  0  0  0  0  0  0  0  0  0
   -0.7460   -2.3750    0.1070 H   0  0  0  0  0  0  0  0  0  0  0  0
    0.0840    2.6960    1.1580 H   0  0  0  0  0  0  0  0  0  0  0  0
   -2.2290    2.5340    1.7640 H   0  0  0  0  0  0  0  0  0  0  0  0
   -4.3930    1.5780    1.6270 H   0  0  0  0  0  0  0  0  0  0  0  0
   -6.9090   -0.8800    0.2130 H   0  0  0  0  0  0  0  0  0  0  0  0
   -6.2090    0.7330    2.7570 H   0  0  0  0  0  0  0  0  0  0  0  0
   -7.5950   -0.3120    2.4900 H   0  0  0  0  0  0  0  0  0  0  0  0
   -5.9740   -1.0070    2.5890 H   0  0  0  0  0  0  0  0  0  0  0  0
   -6.9880    1.3840   -0.8810 H   0  0  0  0  0  0  0  0  0  0  0  0
   -8.1350    1.2910    0.4530 H   0  0  0  0  0  0  0  0  0  0  0  0
   -6.6210    2.1790    0.6500 H   0  0  0  0  0  0  0  0  0  0  0  0
   -3.1750   -2.2880   -2.2880 H   0  0  0  0  0  0  0  0  0  0  0  0
  1  2  1  0
  1 31  1  0
  1 32  1  0
  1 30  1  0
  2  3  1  0
  2  4  2  0
  3 34  1  0
  3 35  1  0
  3 33  1  0
  4 36  1  0
  4  5  1  0
  5  7  1  0
  5  6  2  0
  7  8  1  0
  8 37  1  0
  8 38  1  0
  9  8  1  1
  9 11  1  0
  9 10  1  0
  9 16  1  0
 10 40  1  0
 10 39  1  0
 10 41  1  0
 11 42  1  0
 11 12  1  0
 11 43  1  0
 12 44  1  0
 12 13  1  0
 12 45  1  0
 13 46  1  0
 13 47  1  0
 13 14  1  0
 14 29  1  0
 14 16  1  0
 14 15  1  1
 15 50  1  0
 15 48  1  0
 15 49  1  0
 16 17  2  0
 17 18  1  0
 17 51  1  0
 18 19  2  0
 18 52  1  0
 19 29  1  0
 19 20  1  0
 20 21  2  0
 20 53  1  0
 21 25  1  0
 21 22  1  0
 22 24  1  0
 22 54  1  6
 22 23  1  0
 23 56  1  0
 23 57  1  0
 23 55  1  0
 24 58  1  0
 24 59  1  0
 24 60  1  0
 25 26  2  0
 25 27  1  0
 27 28  1  0
 27 29  2  0
 28 61  1  0
M  END
>  <id>  (269) 
371

>  <scaffolds>  (269) 
['C1CCCCC1']

>  <name>  (269) 
11-Hydroxy-19-(3-methylbuten-3-oyloxy)-abieta-5,7,9(11),13-tetraene-12-one

>  <formula>  (269) 
C25H32O4

>  <SMILES>  (269) 
C/C(C)=C\C(=O)OC[C@@]1(C)CCC[C@@]3(C)C1=CC=c2cc(C(C)C)c(=O)c(O)c23

>  <ChEMBL_id>  (269) 


>  <ZINC_id>  (269) 


>  <PubChem_id>  (269) 


>  <DrugBank_id>  (269) 


>  <CAS_no>  (269) 
66656-54-0

>  <references>  (269) 
[{'journal': {'name': 'South African Journal of Science', 'id': 6}, 'title': 'Antiplasmodial activities of some abietane diterpenes from the leaves of five Plectranthus species', 'year': 2008, 'start_page': 62, 'volume': 104, 'issue': 1, 'doi': '', 'isbn': '', 'despositor': {'code': 'TMM', 'first_name': 'Thommas', 'last_name': 'Musyoka', 'id': 22}, 'refauthors_set': [{'author': {'first_name': '', 'initials': 'RL', 'last_name': 'Van Zyl', 'id': 626}, 'first_author': True, 'id': 859}, {'author': {'first_name': 'Fatima', 'initials': 'F', 'last_name': 'Khan', 'id': 623}, 'first_author': False, 'id': 860}, {'author': {'first_name': 'Trevor', 'initials': 'TJ', 'last_name': 'Edwards', 'id': 627}, 'first_author': False, 'id': 861}, {'author': {'first_name': 'Siegfried', 'initials': 'SE', 'last_name': 'Drewes', 'id': 613}, 'first_author': False, 'id': 862}], 'id': 295}]

>  <classifications>  (269) 
[{'classification': 'Diterpene', 'id': 771}, {'classification': 'Terpenoid', 'id': 839}, {'classification': 'Phenol lipids (Classyfire)', 'id': 951}]

>  <molecular_mass>  (269) 
396.52

$$$$
SANC00372_minRM1.pdb
     RDKit          3D

 62 65  0  0  1  0  0  0  0  0999 V2000
   -7.3560   -0.4540   -2.1670 C   0  0  0  0  0  0  0  0  0  0  0  0
   -7.1530   -0.1620   -0.6840 C   0  0  1  0  0  0  0  0  0  0  0  0
   -7.7870   -1.2530    0.1730 C   0  0  0  0  0  0  0  0  0  0  0  0
   -5.6880   -0.0560   -0.3920 C   0  0  0  0  0  0  0  0  0  0  0  0
   -4.8490   -1.0840   -0.5760 C   0  0  0  0  0  0  0  0  0  0  0  0
   -3.4190   -0.9790   -0.3320 C   0  0  0  0  0  0  0  0  0  0  0  0
   -2.6140   -2.0080   -0.6600 C   0  0  0  0  0  0  0  0  0  0  0  0
   -1.2020   -1.9750   -0.3850 C   0  0  0  0  0  0  0  0  0  0  0  0
   -0.6130   -0.9310    0.2220 C   0  0  0  0  0  0  0  0  0  0  0  0
    0.8490   -1.0000    0.6110 C   0  0  1  0  0  0  0  0  0  0  0  0
    1.3890   -2.4390    0.5930 C   0  0  0  0  0  0  0  0  0  0  0  0
    1.6530   -0.1690   -0.4090 C   0  0  0  0  0  0  0  0  0  0  0  0
    3.0290   -0.3680   -0.1390 O   0  0  0  0  0  0  0  0  0  0  0  0
    3.9010    0.3410   -0.9050 C   0  0  0  0  0  0  0  0  0  0  0  0
    3.4690    1.0500   -1.8050 O   0  0  0  0  0  0  0  0  0  0  0  0
    5.3120    0.1510   -0.5610 C   0  0  0  0  0  0  0  0  0  0  0  0
    5.7260   -0.6860    0.4760 C   0  0  0  0  0  0  0  0  0  0  0  0
    7.0770   -0.8520    0.7410 C   0  0  0  0  0  0  0  0  0  0  0  0
    8.0090   -0.1710   -0.0530 C   0  0  0  0  0  0  0  0  0  0  0  0
    9.3060   -0.4040    0.2530 O   0  0  0  0  0  0  0  0  0  0  0  0
    7.6070    0.6770   -1.0860 C   0  0  0  0  0  0  0  0  0  0  0  0
    6.2530    0.8280   -1.3390 C   0  0  0  0  0  0  0  0  0  0  0  0
    1.0350   -0.4810    2.0410 C   0  0  0  0  0  0  0  0  0  0  0  0
    0.3550    0.8550    2.2680 C   0  0  0  0  0  0  0  0  0  0  0  0
   -1.1270    0.7600    1.9440 C   0  0  0  0  0  0  0  0  0  0  0  0
   -1.3830    0.3410    0.4910 C   0  0  1  0  0  0  0  0  0  0  0  0
   -0.9190    1.4020   -0.5230 C   0  0  0  0  0  0  0  0  0  0  0  0
   -2.8740    0.2300    0.2560 C   0  0  0  0  0  0  0  0  0  0  0  0
   -3.7320    1.2500    0.4890 C   0  0  0  0  0  0  0  0  0  0  0  0
   -3.3480    2.3770    1.1480 O   0  0  0  0  0  0  0  0  0  0  0  0
   -5.1620    1.2230    0.0950 C   0  0  0  0  0  0  0  0  0  0  0  0
   -5.8270    2.2500    0.1610 O   0  0  0  0  0  0  0  0  0  0  0  0
   -8.4220   -0.4580   -2.4380 H   0  0  0  0  0  0  0  0  0  0  0  0
   -6.8710    0.3010   -2.8030 H   0  0  0  0  0  0  0  0  0  0  0  0
   -6.9540   -1.4310   -2.4740 H   0  0  0  0  0  0  0  0  0  0  0  0
   -7.6700    0.8070   -0.4470 H   0  0  0  0  0  0  0  0  0  0  0  0
   -7.4050   -2.2590   -0.0520 H   0  0  0  0  0  0  0  0  0  0  0  0
   -7.6150   -1.0820    1.2450 H   0  0  0  0  0  0  0  0  0  0  0  0
   -8.8770   -1.2970    0.0290 H   0  0  0  0  0  0  0  0  0  0  0  0
   -5.2140   -2.0530   -0.9360 H   0  0  0  0  0  0  0  0  0  0  0  0
   -3.0100   -2.9210   -1.1160 H   0  0  0  0  0  0  0  0  0  0  0  0
   -0.6670   -2.8840   -0.6740 H   0  0  0  0  0  0  0  0  0  0  0  0
    1.4620   -2.8550   -0.4220 H   0  0  0  0  0  0  0  0  0  0  0  0
    2.4050   -2.5050    1.0140 H   0  0  0  0  0  0  0  0  0  0  0  0
    0.7740   -3.1280    1.1910 H   0  0  0  0  0  0  0  0  0  0  0  0
    1.4070   -0.4800   -1.4500 H   0  0  0  0  0  0  0  0  0  0  0  0
    1.4260    0.9200   -0.3350 H   0  0  0  0  0  0  0  0  0  0  0  0
    4.9930   -1.2320    1.0810 H   0  0  0  0  0  0  0  0  0  0  0  0
    7.4130   -1.5150    1.5440 H   0  0  0  0  0  0  0  0  0  0  0  0
    9.8640    0.1050   -0.3690 H   0  0  0  0  0  0  0  0  0  0  0  0
    8.3380    1.2060   -1.7040 H   0  0  0  0  0  0  0  0  0  0  0  0
    5.9300    1.4790   -2.1610 H   0  0  0  0  0  0  0  0  0  0  0  0
    0.6380   -1.2280    2.7640 H   0  0  0  0  0  0  0  0  0  0  0  0
    2.1170   -0.4090    2.2860 H   0  0  0  0  0  0  0  0  0  0  0  0
    0.4870    1.1660    3.3290 H   0  0  0  0  0  0  0  0  0  0  0  0
    0.8480    1.6680    1.6960 H   0  0  0  0  0  0  0  0  0  0  0  0
   -1.6280    0.0380    2.6240 H   0  0  0  0  0  0  0  0  0  0  0  0
   -1.5970    1.7370    2.1800 H   0  0  0  0  0  0  0  0  0  0  0  0
    0.0630    1.8370   -0.2790 H   0  0  0  0  0  0  0  0  0  0  0  0
   -0.8490    0.9860   -1.5400 H   0  0  0  0  0  0  0  0  0  0  0  0
   -1.5860    2.2700   -0.6000 H   0  0  0  0  0  0  0  0  0  0  0  0
   -3.6520    3.1350    0.6370 H   0  0  0  0  0  0  0  0  0  0  0  0
  1 34  1  0
  1 35  1  0
  1 33  1  0
  1  2  1  0
  2 36  1  1
  2  4  1  0
  2  3  1  0
  3 37  1  0
  3 39  1  0
  3 38  1  0
  4  5  2  0
  4 31  1  0
  5 40  1  0
  5  6  1  0
  6  7  2  0
  6 28  1  0
  7 41  1  0
  7  8  1  0
  8 42  1  0
  8  9  2  0
  9 26  1  0
  9 10  1  0
 10 12  1  6
 10 11  1  0
 10 23  1  0
 11 43  1  0
 11 44  1  0
 11 45  1  0
 12 46  1  0
 12 47  1  0
 12 13  1  0
 13 14  1  0
 14 15  2  0
 14 16  1  0
 16 22  2  0
 16 17  1  0
 17 18  2  0
 17 48  1  0
 18 19  1  0
 18 49  1  0
 19 21  2  0
 19 20  1  0
 20 50  1  0
 21 51  1  0
 21 22  1  0
 22 52  1  0
 23 24  1  0
 23 54  1  0
 23 53  1  0
 24 56  1  0
 24 25  1  0
 24 55  1  0
 25 26  1  0
 25 58  1  0
 25 57  1  0
 26 27  1  6
 26 28  1  0
 27 60  1  0
 27 61  1  0
 27 59  1  0
 28 29  2  0
 29 31  1  0
 29 30  1  0
 30 62  1  0
 31 32  2  0
M  END
>  <id>  (270) 
372

>  <scaffolds>  (270) 
['c1ccccc1', 'C1CCCCC1']

>  <name>  (270) 
11-Hydroxy-19-(4-hydroxybenzoyloxy)-abieta-5,7,9(11),13-tetraene-12-one

>  <formula>  (270) 
C27H30O5

>  <SMILES>  (270) 
CC(C)c4cc3=CC=C2[C@@](C)(COC(=O)c1ccc(O)cc1)CCC[C@]2(C)c3c(O)c4=O

>  <ChEMBL_id>  (270) 


>  <ZINC_id>  (270) 


>  <PubChem_id>  (270) 


>  <DrugBank_id>  (270) 


>  <CAS_no>  (270) 
66656-56-2

>  <references>  (270) 
[{'journal': {'name': 'South African Journal of Science', 'id': 6}, 'title': 'Antiplasmodial activities of some abietane diterpenes from the leaves of five Plectranthus species', 'year': 2008, 'start_page': 62, 'volume': 104, 'issue': 1, 'doi': '', 'isbn': '', 'despositor': {'code': 'TMM', 'first_name': 'Thommas', 'last_name': 'Musyoka', 'id': 22}, 'refauthors_set': [{'author': {'first_name': '', 'initials': 'RL', 'last_name': 'Van Zyl', 'id': 626}, 'first_author': True, 'id': 859}, {'author': {'first_name': 'Fatima', 'initials': 'F', 'last_name': 'Khan', 'id': 623}, 'first_author': False, 'id': 860}, {'author': {'first_name': 'Trevor', 'initials': 'TJ', 'last_name': 'Edwards', 'id': 627}, 'first_author': False, 'id': 861}, {'author': {'first_name': 'Siegfried', 'initials': 'SE', 'last_name': 'Drewes', 'id': 613}, 'first_author': False, 'id': 862}], 'id': 295}]

>  <classifications>  (270) 
[{'classification': 'Diterpene', 'id': 771}, {'classification': 'Terpenoid', 'id': 839}, {'classification': 'Phenol lipids (Classyfire)', 'id': 951}]

>  <molecular_mass>  (270) 
434.52

$$$$
SANC00373_minRM1.pdb
     RDKit          3D

 63 66  0  0  1  0  0  0  0  0999 V2000
    7.6100   -0.1120   -2.2980 C   0  0  0  0  0  0  0  0  0  0  0  0
    7.4360   -0.0950   -0.7820 C   0  0  1  0  0  0  0  0  0  0  0  0
    8.1110    1.1310   -0.1760 C   0  0  0  0  0  0  0  0  0  0  0  0
    5.9760   -0.1020   -0.4470 C   0  0  0  0  0  0  0  0  0  0  0  0
    5.1540    0.8870   -0.8230 C   0  0  0  0  0  0  0  0  0  0  0  0
    3.7310    0.8750   -0.5260 C   0  0  0  0  0  0  0  0  0  0  0  0
    2.9400    1.8380   -1.0430 C   0  0  0  0  0  0  0  0  0  0  0  0
    1.5360    1.8970   -0.7390 C   0  0  0  0  0  0  0  0  0  0  0  0
    0.9340    1.0050    0.0620 C   0  0  0  0  0  0  0  0  0  0  0  0
   -0.5170    1.1890    0.4570 C   0  0  1  0  0  0  0  0  0  0  0  0
   -1.0280    2.6060    0.1560 C   0  0  0  0  0  0  0  0  0  0  0  0
   -1.3610    0.1830   -0.3540 C   0  0  0  0  0  0  0  0  0  0  0  0
   -2.7290    0.4790   -0.1120 O   0  0  0  0  0  0  0  0  0  0  0  0
   -3.6280   -0.3420   -0.7190 C   0  0  0  0  0  0  0  0  0  0  0  0
   -3.2340   -1.2300   -1.4640 O   0  0  0  0  0  0  0  0  0  0  0  0
   -5.0300   -0.0420   -0.3980 C   0  0  0  0  0  0  0  0  0  0  0  0
   -5.4000    0.9750    0.4770 C   0  0  0  0  0  0  0  0  0  0  0  0
   -6.7410    1.2250    0.7370 C   0  0  0  0  0  0  0  0  0  0  0  0
   -7.7190    0.4540    0.1050 C   0  0  0  0  0  0  0  0  0  0  0  0
   -8.9970    0.7560    0.4130 O   0  0  0  0  0  0  0  0  0  0  0  0
   -7.3390   -0.5760   -0.7730 C   0  0  0  0  0  0  0  0  0  0  0  0
   -8.3500   -1.3270   -1.2890 O   0  0  0  0  0  0  0  0  0  0  0  0
   -5.9980   -0.8340   -1.0220 C   0  0  0  0  0  0  0  0  0  0  0  0
   -0.6790    0.9790    1.9660 C   0  0  0  0  0  0  0  0  0  0  0  0
   -0.0210   -0.2990    2.4490 C   0  0  0  0  0  0  0  0  0  0  0  0
    1.4540   -0.3140    2.0820 C   0  0  0  0  0  0  0  0  0  0  0  0
    1.6820   -0.2070    0.5680 C   0  0  1  0  0  0  0  0  0  0  0  0
    1.1710   -1.4380   -0.1970 C   0  0  0  0  0  0  0  0  0  0  0  0
    3.1720   -0.1810    0.2950 C   0  0  0  0  0  0  0  0  0  0  0  0
    4.0100   -1.1600    0.7010 C   0  0  0  0  0  0  0  0  0  0  0  0
    3.6190   -2.1210    1.5770 O   0  0  0  0  0  0  0  0  0  0  0  0
    5.4330   -1.2470    0.2910 C   0  0  0  0  0  0  0  0  0  0  0  0
    6.0760   -2.2530    0.5510 O   0  0  0  0  0  0  0  0  0  0  0  0
    8.6690   -0.1860   -2.5850 H   0  0  0  0  0  0  0  0  0  0  0  0
    7.0960   -0.9660   -2.7610 H   0  0  0  0  0  0  0  0  0  0  0  0
    7.2220    0.7930   -2.7880 H   0  0  0  0  0  0  0  0  0  0  0  0
    7.9370   -1.0090   -0.3660 H   0  0  0  0  0  0  0  0  0  0  0  0
    9.1980    1.1150   -0.3430 H   0  0  0  0  0  0  0  0  0  0  0  0
    7.7450    2.0790   -0.5920 H   0  0  0  0  0  0  0  0  0  0  0  0
    7.9600    1.1820    0.9120 H   0  0  0  0  0  0  0  0  0  0  0  0
    5.5320    1.7540   -1.3770 H   0  0  0  0  0  0  0  0  0  0  0  0
    3.3400    2.6230   -1.6980 H   0  0  0  0  0  0  0  0  0  0  0  0
    1.0100    2.7370   -1.2120 H   0  0  0  0  0  0  0  0  0  0  0  0
   -1.1240    2.8040   -0.9230 H   0  0  0  0  0  0  0  0  0  0  0  0
   -2.0310    2.7820    0.5710 H   0  0  0  0  0  0  0  0  0  0  0  0
   -0.3840    3.3900    0.5810 H   0  0  0  0  0  0  0  0  0  0  0  0
   -1.1280    0.2650   -1.4400 H   0  0  0  0  0  0  0  0  0  0  0  0
   -1.1600   -0.8710   -0.0540 H   0  0  0  0  0  0  0  0  0  0  0  0
   -4.6420    1.5920    0.9720 H   0  0  0  0  0  0  0  0  0  0  0  0
   -7.0390    2.0220    1.4240 H   0  0  0  0  0  0  0  0  0  0  0  0
   -9.6110    0.1250    0.0040 H   0  0  0  0  0  0  0  0  0  0  0  0
   -8.0460   -1.7120   -2.1220 H   0  0  0  0  0  0  0  0  0  0  0  0
   -5.7020   -1.6460   -1.6960 H   0  0  0  0  0  0  0  0  0  0  0  0
   -0.2480    1.8470    2.5140 H   0  0  0  0  0  0  0  0  0  0  0  0
   -1.7550    0.9870    2.2420 H   0  0  0  0  0  0  0  0  0  0  0  0
   -0.1360   -0.3900    3.5510 H   0  0  0  0  0  0  0  0  0  0  0  0
   -0.5470   -1.1980    2.0640 H   0  0  0  0  0  0  0  0  0  0  0  0
    1.9860    0.5190    2.5910 H   0  0  0  0  0  0  0  0  0  0  0  0
    1.9090   -1.2340    2.5030 H   0  0  0  0  0  0  0  0  0  0  0  0
    0.1880   -1.7910    0.1530 H   0  0  0  0  0  0  0  0  0  0  0  0
    1.0790   -1.2320   -1.2750 H   0  0  0  0  0  0  0  0  0  0  0  0
    1.8190   -2.3190   -0.1150 H   0  0  0  0  0  0  0  0  0  0  0  0
    3.8920   -2.9880    1.2310 H   0  0  0  0  0  0  0  0  0  0  0  0
  1 36  1  0
  1 35  1  0
  1 34  1  0
  1  2  1  0
  2  4  1  0
  2 37  1  1
  2  3  1  0
  3 39  1  0
  3 38  1  0
  3 40  1  0
  4  5  2  0
  4 32  1  0
  5 41  1  0
  5  6  1  0
  6  7  2  0
  6 29  1  0
  7 42  1  0
  7  8  1  0
  8 43  1  0
  8  9  2  0
  9 10  1  0
  9 27  1  0
 10 12  1  6
 10 11  1  0
 10 24  1  0
 11 44  1  0
 11 45  1  0
 11 46  1  0
 12 47  1  0
 12 13  1  0
 12 48  1  0
 13 14  1  0
 14 15  2  0
 14 16  1  0
 16 23  2  0
 16 17  1  0
 17 18  2  0
 17 49  1  0
 18 19  1  0
 18 50  1  0
 19 21  2  0
 19 20  1  0
 20 51  1  0
 21 22  1  0
 21 23  1  0
 22 52  1  0
 23 53  1  0
 24 55  1  0
 24 25  1  0
 24 54  1  0
 25 57  1  0
 25 26  1  0
 25 56  1  0
 26 27  1  0
 26 59  1  0
 26 58  1  0
 27 28  1  6
 27 29  1  0
 28 61  1  0
 28 62  1  0
 28 60  1  0
 29 30  2  0
 30 32  1  0
 30 31  1  0
 31 63  1  0
 32 33  2  0
M  END
>  <id>  (271) 
373

>  <scaffolds>  (271) 
['c1ccccc1', 'C1CCCCC1']

>  <name>  (271) 
11-Hydroxy-19-(3,4-dihydroxybenzoyloxy)-abieta-5,7,9(11),13-tetraene-12-one

>  <formula>  (271) 
C27H30O6

>  <SMILES>  (271) 
CC(C)c4cc3=CC=C2[C@@](C)(COC(=O)c1ccc(O)c(O)c1)CCC[C@]2(C)c3c(O)c4=O

>  <ChEMBL_id>  (271) 


>  <ZINC_id>  (271) 


>  <PubChem_id>  (271) 


>  <DrugBank_id>  (271) 


>  <CAS_no>  (271) 
66700-66-1

>  <references>  (271) 
[{'journal': {'name': 'South African Journal of Science', 'id': 6}, 'title': 'Antiplasmodial activities of some abietane diterpenes from the leaves of five Plectranthus species', 'year': 2008, 'start_page': 62, 'volume': 104, 'issue': 1, 'doi': '', 'isbn': '', 'despositor': {'code': 'TMM', 'first_name': 'Thommas', 'last_name': 'Musyoka', 'id': 22}, 'refauthors_set': [{'author': {'first_name': '', 'initials': 'RL', 'last_name': 'Van Zyl', 'id': 626}, 'first_author': True, 'id': 859}, {'author': {'first_name': 'Fatima', 'initials': 'F', 'last_name': 'Khan', 'id': 623}, 'first_author': False, 'id': 860}, {'author': {'first_name': 'Trevor', 'initials': 'TJ', 'last_name': 'Edwards', 'id': 627}, 'first_author': False, 'id': 861}, {'author': {'first_name': 'Siegfried', 'initials': 'SE', 'last_name': 'Drewes', 'id': 613}, 'first_author': False, 'id': 862}], 'id': 295}]

>  <classifications>  (271) 
[{'classification': 'Diterpene', 'id': 771}, {'classification': 'Terpenoid', 'id': 839}, {'classification': 'Phenol lipids (Classyfire)', 'id': 951}]

>  <molecular_mass>  (271) 
450.52

$$$$
SANC00374_minRM1.pdb
     RDKit          3D

 43 47  0  0  1  0  0  0  0  0999 V2000
    1.2820    1.9070    1.2190 H   0  0  0  0  0  0  0  0  0  0  0  0
    1.6490    1.6160    0.1900 C   0  0  2  0  0  0  0  0  0  0  0  0
    0.6880    2.1930   -0.8730 C   0  0  0  0  0  0  0  0  0  0  0  0
   -0.6960    1.7460   -0.5450 C   0  0  0  0  0  0  0  0  0  0  0  0
   -1.7780    2.5910   -0.7050 C   0  0  0  0  0  0  0  0  0  0  0  0
   -3.0610    2.1840   -0.3340 C   0  0  0  0  0  0  0  0  0  0  0  0
   -3.2370    0.9330    0.2310 C   0  0  0  0  0  0  0  0  0  0  0  0
   -4.4080    0.4300    0.7190 O   0  0  0  0  0  0  0  0  0  0  0  0
   -5.5830    1.1010    0.3390 C   0  0  0  0  0  0  0  0  0  0  0  0
   -2.1360    0.0580    0.3910 C   0  0  0  0  0  0  0  0  0  0  0  0
   -2.4270   -1.1330    0.9660 O   0  0  0  0  0  0  0  0  0  0  0  0
   -0.8750    0.4420   -0.0520 C   0  0  0  0  0  0  0  0  0  0  0  0
    0.2820   -0.4330   -0.0280 C   0  0  0  0  0  0  0  0  0  0  0  0
    0.2260   -1.7930   -0.2130 C   0  0  0  0  0  0  0  0  0  0  0  0
   -0.8660   -2.5850   -0.4520 O   0  0  0  0  0  0  0  0  0  0  0  0
   -0.3790   -3.9190   -0.5810 C   0  0  0  0  0  0  0  0  0  0  0  0
    1.0400   -3.9000   -0.4350 O   0  0  0  0  0  0  0  0  0  0  0  0
    1.3880   -2.5920   -0.2210 C   0  0  0  0  0  0  0  0  0  0  0  0
    2.6430   -2.0740   -0.0600 C   0  0  0  0  0  0  0  0  0  0  0  0
    2.7160   -0.6730    0.0940 C   0  0  0  0  0  0  0  0  0  0  0  0
    4.0720   -0.0640    0.1900 C   0  0  0  0  0  0  0  0  0  0  0  0
    4.0120    1.3640    0.7340 C   0  0  0  0  0  0  0  0  0  0  0  0
    3.0280    2.1240   -0.0850 N   0  0  0  0  0  0  0  0  0  0  0  0
    3.1120    3.5750    0.2150 C   0  0  0  0  0  0  0  0  0  0  0  0
    1.5810    0.1180    0.0960 C   0  0  0  0  0  0  0  0  0  0  0  0
    0.7630    3.3040   -0.9120 H   0  0  0  0  0  0  0  0  0  0  0  0
    0.9720    1.8550   -1.8930 H   0  0  0  0  0  0  0  0  0  0  0  0
   -1.6400    3.5960   -1.1170 H   0  0  0  0  0  0  0  0  0  0  0  0
   -3.8930    2.8770   -0.4810 H   0  0  0  0  0  0  0  0  0  0  0  0
   -5.6860    2.0910    0.8170 H   0  0  0  0  0  0  0  0  0  0  0  0
   -5.7020    1.2170   -0.7510 H   0  0  0  0  0  0  0  0  0  0  0  0
   -6.3840    0.4460    0.7180 H   0  0  0  0  0  0  0  0  0  0  0  0
   -1.6650   -1.3890    1.5010 H   0  0  0  0  0  0  0  0  0  0  0  0
   -0.8250   -4.5560    0.2140 H   0  0  0  0  0  0  0  0  0  0  0  0
   -0.6440   -4.3140   -1.5850 H   0  0  0  0  0  0  0  0  0  0  0  0
    3.5350   -2.7030   -0.0730 H   0  0  0  0  0  0  0  0  0  0  0  0
    4.7460   -0.6800    0.8270 H   0  0  0  0  0  0  0  0  0  0  0  0
    4.5410   -0.0770   -0.8210 H   0  0  0  0  0  0  0  0  0  0  0  0
    3.7870    1.3570    1.8300 H   0  0  0  0  0  0  0  0  0  0  0  0
    5.0150    1.8420    0.6540 H   0  0  0  0  0  0  0  0  0  0  0  0
    4.0900    3.9640   -0.1180 H   0  0  0  0  0  0  0  0  0  0  0  0
    2.3420    4.1280   -0.3550 H   0  0  0  0  0  0  0  0  0  0  0  0
    2.9910    3.8600    1.2770 H   0  0  0  0  0  0  0  0  0  0  0  0
  2  1  1  1
  2  3  1  0
  2 23  1  0
  2 25  1  0
  3 27  1  0
  3 26  1  0
  3  4  1  0
  4  5  2  0
  4 12  1  0
  5 28  1  0
  5  6  1  0
  6 29  1  0
  6  7  2  0
  7 10  1  0
  7  8  1  0
  8  9  1  0
  9 31  1  0
  9 32  1  0
  9 30  1  0
 10 12  2  0
 10 11  1  0
 11 33  1  0
 12 13  1  0
 13 14  2  0
 13 25  1  0
 14 15  1  0
 14 18  1  0
 15 16  1  0
 16 35  1  0
 16 17  1  0
 16 34  1  0
 17 18  1  0
 18 19  2  0
 19 36  1  0
 19 20  1  0
 20 25  2  0
 20 21  1  0
 21 38  1  0
 21 22  1  0
 21 37  1  0
 22 23  1  0
 22 40  1  0
 22 39  1  0
 23 24  1  0
 24 42  1  0
 24 41  1  0
 24 43  1  0
M  END
>  <id>  (272) 
374

>  <scaffolds>  (272) 
['c1ccccc1', 'c1ccc(CCc2ccccc2)cc1', 'c1ccc2c(c1)CC1NCCc3cccc-2c31', 'c1ccc2c(c1)CC1NCCc3cc4c(c-2c31)OCO4', 'c1ccc2c(c1)OCO2', 'c1ccc(CC2NCCc3ccccc32)cc1']

>  <name>  (272) 
Bulbocapnine

>  <formula>  (272) 
C19H19NO4

>  <SMILES>  (272) 
[H][C@@]35Cc1ccc(OC)c(O)c1c4c2OCOc2cc(CCN3C)c45

>  <ChEMBL_id>  (272) 


>  <ZINC_id>  (272) 


>  <PubChem_id>  (272) 
 9276

>  <DrugBank_id>  (272) 


>  <CAS_no>  (272) 
298-45-3

>  <references>  (272) 
[{'journal': {'name': 'Molecules', 'id': 25}, 'title': 'Alkaloidal Variation in Cissampelos Capensis (Menispermaceae)', 'year': 2011, 'start_page': 3001, 'volume': 16, 'issue': None, 'doi': '10.3390/molecules16043001', 'isbn': '', 'despositor': {'code': 'DLP', 'first_name': 'David', 'last_name': 'Penkler', 'id': 23}, 'refauthors_set': [{'author': {'first_name': 'Helene', 'initials': 'H', 'last_name': 'de Wet', 'id': 633}, 'first_author': True, 'id': 873}, {'author': {'first_name': 'Fanie', 'initials': 'FR', 'last_name': 'Van Heerden', 'id': 634}, 'first_author': False, 'id': 874}, {'author': {'first_name': 'Ben-Erik', 'initials': 'B', 'last_name': 'van Wyk', 'id': 635}, 'first_author': False, 'id': 875}], 'id': 298}]

>  <classifications>  (272) 
[{'classification': 'Alkaloid', 'id': 738}, {'classification': 'Aporphine', 'id': 743}, {'classification': 'Aporphines (Classyfire)', 'id': 976}]

>  <molecular_mass>  (272) 
325.36

$$$$
SANC00375_minRM1.pdb
     RDKit          3D

 46 50  0  0  1  0  0  0  0  0999 V2000
   -1.0180    1.9610   -1.2790 H   0  0  0  0  0  0  0  0  0  0  0  0
   -1.4110    1.8410   -0.2250 C   0  0  2  0  0  0  0  0  0  0  0  0
   -0.2660    2.1170    0.7700 C   0  0  0  0  0  0  0  0  0  0  0  0
    0.8810    1.2290    0.4210 C   0  0  0  0  0  0  0  0  0  0  0  0
    2.1890    1.7020    0.4980 C   0  0  0  0  0  0  0  0  0  0  0  0
    3.2320    0.8640    0.1310 C   0  0  0  0  0  0  0  0  0  0  0  0
    4.5590    1.1650    0.1970 O   0  0  0  0  0  0  0  0  0  0  0  0
    4.8910    2.5190    0.3710 C   0  0  0  0  0  0  0  0  0  0  0  0
    2.9610   -0.4350   -0.3480 C   0  0  0  0  0  0  0  0  0  0  0  0
    4.0600   -1.1180   -0.7820 O   0  0  0  0  0  0  0  0  0  0  0  0
    3.9760   -2.5210   -0.7090 C   0  0  0  0  0  0  0  0  0  0  0  0
    1.6580   -0.9050   -0.4110 C   0  0  0  0  0  0  0  0  0  0  0  0
    0.6170   -0.0770    0.0110 C   0  0  0  0  0  0  0  0  0  0  0  0
   -0.7630   -0.5330    0.0310 C   0  0  0  0  0  0  0  0  0  0  0  0
   -1.1400   -1.8440    0.1900 C   0  0  0  0  0  0  0  0  0  0  0  0
   -0.3570   -2.9570    0.3530 O   0  0  0  0  0  0  0  0  0  0  0  0
   -1.2450   -4.0610    0.5110 C   0  0  0  0  0  0  0  0  0  0  0  0
   -2.5820   -3.5840    0.4090 O   0  0  0  0  0  0  0  0  0  0  0  0
   -2.4960   -2.2270    0.2350 C   0  0  0  0  0  0  0  0  0  0  0  0
   -3.5240   -1.3310    0.1300 C   0  0  0  0  0  0  0  0  0  0  0  0
   -3.1490    0.0200   -0.0180 C   0  0  0  0  0  0  0  0  0  0  0  0
   -4.2390    1.0340   -0.0710 C   0  0  0  0  0  0  0  0  0  0  0  0
   -3.7520    2.3490   -0.6810 C   0  0  0  0  0  0  0  0  0  0  0  0
   -2.5380    2.7790    0.0670 N   0  0  0  0  0  0  0  0  0  0  0  0
   -2.1640    4.1660   -0.3100 C   0  0  0  0  0  0  0  0  0  0  0  0
   -1.8200    0.4050   -0.0650 C   0  0  0  0  0  0  0  0  0  0  0  0
    0.0190    3.1920    0.7560 H   0  0  0  0  0  0  0  0  0  0  0  0
   -0.5930    1.9280    1.8150 H   0  0  0  0  0  0  0  0  0  0  0  0
    2.3680    2.7180    0.8500 H   0  0  0  0  0  0  0  0  0  0  0  0
    5.9850    2.5300    0.2510 H   0  0  0  0  0  0  0  0  0  0  0  0
    4.4450    3.1870   -0.3850 H   0  0  0  0  0  0  0  0  0  0  0  0
    4.6440    2.8980    1.3750 H   0  0  0  0  0  0  0  0  0  0  0  0
    3.5730   -2.9020    0.2440 H   0  0  0  0  0  0  0  0  0  0  0  0
    3.3920   -2.9470   -1.5410 H   0  0  0  0  0  0  0  0  0  0  0  0
    5.0210   -2.8510   -0.8140 H   0  0  0  0  0  0  0  0  0  0  0  0
    1.4450   -1.8990   -0.8090 H   0  0  0  0  0  0  0  0  0  0  0  0
   -1.0580   -4.8090   -0.2900 H   0  0  0  0  0  0  0  0  0  0  0  0
   -1.0910   -4.5250    1.5100 H   0  0  0  0  0  0  0  0  0  0  0  0
   -4.5690   -1.6420    0.1690 H   0  0  0  0  0  0  0  0  0  0  0  0
   -5.1150    0.6590   -0.6480 H   0  0  0  0  0  0  0  0  0  0  0  0
   -4.6250    1.1990    0.9620 H   0  0  0  0  0  0  0  0  0  0  0  0
   -3.5950    2.2350   -1.7830 H   0  0  0  0  0  0  0  0  0  0  0  0
   -4.5430    3.1280   -0.5870 H   0  0  0  0  0  0  0  0  0  0  0  0
   -2.9490    4.8650    0.0290 H   0  0  0  0  0  0  0  0  0  0  0  0
   -1.2320    4.4660    0.2050 H   0  0  0  0  0  0  0  0  0  0  0  0
   -2.0070    4.3520   -1.3900 H   0  0  0  0  0  0  0  0  0  0  0  0
  2  1  1  6
  2 26  1  0
  2 24  1  0
  2  3  1  0
  3  4  1  0
  3 27  1  0
  3 28  1  0
  4 13  2  0
  4  5  1  0
  5  6  2  0
  5 29  1  0
  6  9  1  0
  6  7  1  0
  7  8  1  0
  8 31  1  0
  8 30  1  0
  8 32  1  0
  9 10  1  0
  9 12  2  0
 10 11  1  0
 11 34  1  0
 11 35  1  0
 11 33  1  0
 12 36  1  0
 12 13  1  0
 13 14  1  0
 14 26  2  0
 14 15  1  0
 15 19  2  0
 15 16  1  0
 16 17  1  0
 17 37  1  0
 17 18  1  0
 17 38  1  0
 18 19  1  0
 19 20  1  0
 20 21  2  0
 20 39  1  0
 21 22  1  0
 21 26  1  0
 22 23  1  0
 22 40  1  0
 22 41  1  0
 23 42  1  0
 23 43  1  0
 23 24  1  0
 24 25  1  0
 25 46  1  0
 25 44  1  0
 25 45  1  0
M  END
>  <id>  (273) 
375

>  <scaffolds>  (273) 
['c1ccccc1', 'c1ccc(CCc2ccccc2)cc1', 'c1ccc2c(c1)CC1NCCc3cccc-2c31', 'c1ccc2c(c1)CC1NCCc3cc4c(c-2c31)OCO4', 'c1ccc2c(c1)OCO2', 'c1ccc(CC2NCCc3ccccc32)cc1']

>  <name>  (273) 
Dicentrine

>  <formula>  (273) 
C20H21NO4

>  <SMILES>  (273) 
[H][C@@]35Cc1cc(OC)c(OC)cc1c4c2OCOc2cc(CCN3C)c45

>  <ChEMBL_id>  (273) 
CHEMBL464748

>  <ZINC_id>  (273) 


>  <PubChem_id>  (273) 
 101300

>  <DrugBank_id>  (273) 


>  <CAS_no>  (273) 
517-66-8

>  <references>  (273) 
[{'journal': {'name': 'Molecules', 'id': 25}, 'title': 'Alkaloidal Variation in Cissampelos Capensis (Menispermaceae)', 'year': 2011, 'start_page': 3001, 'volume': 16, 'issue': None, 'doi': '10.3390/molecules16043001', 'isbn': '', 'despositor': {'code': 'DLP', 'first_name': 'David', 'last_name': 'Penkler', 'id': 23}, 'refauthors_set': [{'author': {'first_name': 'Helene', 'initials': 'H', 'last_name': 'de Wet', 'id': 633}, 'first_author': True, 'id': 873}, {'author': {'first_name': 'Fanie', 'initials': 'FR', 'last_name': 'Van Heerden', 'id': 634}, 'first_author': False, 'id': 874}, {'author': {'first_name': 'Ben-Erik', 'initials': 'B', 'last_name': 'van Wyk', 'id': 635}, 'first_author': False, 'id': 875}], 'id': 298}]

>  <classifications>  (273) 
[{'classification': 'Alkaloid', 'id': 738}, {'classification': 'Aporphine', 'id': 743}, {'classification': 'Aporphines (Classyfire)', 'id': 976}]

>  <molecular_mass>  (273) 
339.38

$$$$
SANC00376_minRM1.pdb
     RDKit          3D

 48 51  0  0  1  0  0  0  0  0999 V2000
    0.7280   -2.2780   -1.1930 H   0  0  0  0  0  0  0  0  0  0  0  0
    1.1530   -2.0610   -0.1680 C   0  0  2  0  0  0  0  0  0  0  0  0
    0.0600   -2.3060    0.8930 C   0  0  0  0  0  0  0  0  0  0  0  0
   -1.1320   -1.4950    0.5070 C   0  0  0  0  0  0  0  0  0  0  0  0
   -2.4100   -2.0100    0.6500 C   0  0  0  0  0  0  0  0  0  0  0  0
   -3.4990   -1.2650    0.1910 C   0  0  0  0  0  0  0  0  0  0  0  0
   -4.7120   -1.8390    0.3620 O   0  0  0  0  0  0  0  0  0  0  0  0
   -3.2840   -0.0380   -0.4480 C   0  0  0  0  0  0  0  0  0  0  0  0
   -4.4010    0.5450   -0.9850 O   0  0  0  0  0  0  0  0  0  0  0  0
   -4.4320    1.9530   -0.9200 C   0  0  0  0  0  0  0  0  0  0  0  0
   -2.0010    0.4850   -0.5710 C   0  0  0  0  0  0  0  0  0  0  0  0
   -0.9290   -0.2200   -0.0360 C   0  0  0  0  0  0  0  0  0  0  0  0
    0.4320    0.3080   -0.0370 C   0  0  0  0  0  0  0  0  0  0  0  0
    0.7200    1.6600    0.0970 C   0  0  0  0  0  0  0  0  0  0  0  0
   -0.2710    2.5990    0.2050 O   0  0  0  0  0  0  0  0  0  0  0  0
   -0.5070    2.9660    1.5480 C   0  0  0  0  0  0  0  0  0  0  0  0
    2.0550    2.1120    0.0730 C   0  0  0  0  0  0  0  0  0  0  0  0
    2.1770    3.4610    0.2190 O   0  0  0  0  0  0  0  0  0  0  0  0
    3.4550    4.0120    0.0250 C   0  0  0  0  0  0  0  0  0  0  0  0
    3.1000    1.2120   -0.0580 C   0  0  0  0  0  0  0  0  0  0  0  0
    2.8100   -0.1530   -0.1370 C   0  0  0  0  0  0  0  0  0  0  0  0
    3.9440   -1.1170   -0.1860 C   0  0  0  0  0  0  0  0  0  0  0  0
    3.4960   -2.4920   -0.6800 C   0  0  0  0  0  0  0  0  0  0  0  0
    2.3350   -2.9220    0.1460 N   0  0  0  0  0  0  0  0  0  0  0  0
    2.0140   -4.3470   -0.1180 C   0  0  0  0  0  0  0  0  0  0  0  0
    1.5010   -0.6010   -0.1220 C   0  0  0  0  0  0  0  0  0  0  0  0
   -0.1830   -3.3890    0.9700 H   0  0  0  0  0  0  0  0  0  0  0  0
    0.4150   -2.0250    1.9080 H   0  0  0  0  0  0  0  0  0  0  0  0
   -2.5790   -2.9860    1.1120 H   0  0  0  0  0  0  0  0  0  0  0  0
   -5.4070   -1.2090    0.1230 H   0  0  0  0  0  0  0  0  0  0  0  0
   -4.0790    2.3740    0.0370 H   0  0  0  0  0  0  0  0  0  0  0  0
   -3.8570    2.4150   -1.7450 H   0  0  0  0  0  0  0  0  0  0  0  0
   -5.4960    2.2060   -1.0510 H   0  0  0  0  0  0  0  0  0  0  0  0
   -1.8380    1.4260   -1.1020 H   0  0  0  0  0  0  0  0  0  0  0  0
   -1.2790    3.7460    1.4810 H   0  0  0  0  0  0  0  0  0  0  0  0
   -0.8920    2.1270    2.1530 H   0  0  0  0  0  0  0  0  0  0  0  0
    0.3780    3.3850    2.0550 H   0  0  0  0  0  0  0  0  0  0  0  0
    4.1730    3.7230    0.8110 H   0  0  0  0  0  0  0  0  0  0  0  0
    3.8880    3.7850   -0.9620 H   0  0  0  0  0  0  0  0  0  0  0  0
    3.2770    5.0970    0.0950 H   0  0  0  0  0  0  0  0  0  0  0  0
    4.1440    1.5340   -0.0870 H   0  0  0  0  0  0  0  0  0  0  0  0
    4.7680   -0.7410   -0.8310 H   0  0  0  0  0  0  0  0  0  0  0  0
    4.3890   -1.1930    0.8310 H   0  0  0  0  0  0  0  0  0  0  0  0
    3.2910   -2.4640   -1.7790 H   0  0  0  0  0  0  0  0  0  0  0  0
    4.3270   -3.2250   -0.5670 H   0  0  0  0  0  0  0  0  0  0  0  0
    2.8400   -4.9840    0.2420 H   0  0  0  0  0  0  0  0  0  0  0  0
    1.1120   -4.6490    0.4460 H   0  0  0  0  0  0  0  0  0  0  0  0
    1.8330   -4.6170   -1.1760 H   0  0  0  0  0  0  0  0  0  0  0  0
  2  1  1  6
  2 26  1  0
  2 24  1  0
  2  3  1  0
  3  4  1  0
  3 27  1  0
  3 28  1  0
  4 12  2  0
  4  5  1  0
  5  6  2  0
  5 29  1  0
  6  8  1  0
  6  7  1  0
  7 30  1  0
  8  9  1  0
  8 11  2  0
  9 10  1  0
 10 32  1  0
 10 33  1  0
 10 31  1  0
 11 34  1  0
 11 12  1  0
 12 13  1  0
 13 26  2  0
 13 14  1  0
 14 17  2  0
 14 15  1  0
 15 16  1  0
 16 35  1  0
 16 37  1  0
 16 36  1  0
 17 20  1  0
 17 18  1  0
 18 19  1  0
 19 39  1  0
 19 40  1  0
 19 38  1  0
 20 21  2  0
 20 41  1  0
 21 22  1  0
 21 26  1  0
 22 42  1  0
 22 23  1  0
 22 43  1  0
 23 44  1  0
 23 45  1  0
 23 24  1  0
 24 25  1  0
 25 48  1  0
 25 46  1  0
 25 47  1  0
M  END
>  <id>  (274) 
376

>  <scaffolds>  (274) 
['c1ccccc1', 'c1ccc(CCc2ccccc2)cc1', 'c1ccc2c(c1)CC1NCCc3cccc-2c31', 'c1ccc(CC2NCCc3ccccc32)cc1']

>  <name>  (274) 
Lauroscholtzine

>  <formula>  (274) 
C20H23NO4

>  <SMILES>  (274) 
[H][C@@]24Cc1cc(O)c(OC)cc1c3c(OC)c(OC)cc(CCN2C)c34

>  <ChEMBL_id>  (274) 
CHEMBL464099

>  <ZINC_id>  (274) 


>  <PubChem_id>  (274) 
16573

>  <DrugBank_id>  (274) 


>  <CAS_no>  (274) 
2169-44-0

>  <references>  (274) 
[{'journal': {'name': 'Molecules', 'id': 25}, 'title': 'Alkaloidal Variation in Cissampelos Capensis (Menispermaceae)', 'year': 2011, 'start_page': 3001, 'volume': 16, 'issue': None, 'doi': '10.3390/molecules16043001', 'isbn': '', 'despositor': {'code': 'DLP', 'first_name': 'David', 'last_name': 'Penkler', 'id': 23}, 'refauthors_set': [{'author': {'first_name': 'Helene', 'initials': 'H', 'last_name': 'de Wet', 'id': 633}, 'first_author': True, 'id': 873}, {'author': {'first_name': 'Fanie', 'initials': 'FR', 'last_name': 'Van Heerden', 'id': 634}, 'first_author': False, 'id': 874}, {'author': {'first_name': 'Ben-Erik', 'initials': 'B', 'last_name': 'van Wyk', 'id': 635}, 'first_author': False, 'id': 875}], 'id': 298}]

>  <classifications>  (274) 
[{'classification': 'Alkaloid', 'id': 738}, {'classification': 'Aporphine', 'id': 743}, {'classification': 'Aporphines (Classyfire)', 'id': 976}]

>  <molecular_mass>  (274) 
341.4

$$$$
SANC00377_minRM1.pdb
     RDKit          3D

 41 44  0  0  1  0  0  0  0  0999 V2000
    1.1910    2.0660    1.4260 H   0  0  0  0  0  0  0  0  0  0  0  0
    1.2380    1.7740    0.3370 C   0  0  2  0  0  0  0  0  0  0  0  0
   -0.0850    2.1840   -0.3510 C   0  0  0  0  0  0  0  0  0  0  0  0
   -1.0380    0.9660   -0.1160 C   0  0  1  0  0  0  0  0  0  0  0  0
   -1.7800    1.1700    1.1650 C   0  0  0  0  0  0  0  0  0  0  0  0
   -3.1070    1.2350    1.2340 C   0  0  0  0  0  0  0  0  0  0  0  0
   -3.9480    1.0860    0.0340 C   0  0  0  0  0  0  0  0  0  0  0  0
   -5.1670    1.1620    0.0930 O   0  0  0  0  0  0  0  0  0  0  0  0
   -3.2500    0.8280   -1.2360 C   0  0  0  0  0  0  0  0  0  0  0  0
   -1.9220    0.7580   -1.2990 C   0  0  0  0  0  0  0  0  0  0  0  0
   -0.0890   -0.1860    0.0380 C   0  0  0  0  0  0  0  0  0  0  0  0
   -0.3080   -1.5480   -0.0420 C   0  0  0  0  0  0  0  0  0  0  0  0
   -1.5880   -1.9530   -0.1950 O   0  0  0  0  0  0  0  0  0  0  0  0
    0.8160   -2.4110    0.0490 C   0  0  0  0  0  0  0  0  0  0  0  0
    0.4760   -3.7360    0.0460 O   0  0  0  0  0  0  0  0  0  0  0  0
    1.5150   -4.6630   -0.1470 C   0  0  0  0  0  0  0  0  0  0  0  0
    2.1090   -1.9150    0.1350 C   0  0  0  0  0  0  0  0  0  0  0  0
    2.3120   -0.5310    0.1910 C   0  0  0  0  0  0  0  0  0  0  0  0
    3.6600    0.0880    0.1050 C   0  0  0  0  0  0  0  0  0  0  0  0
    3.6480    1.6100    0.3360 C   0  0  0  0  0  0  0  0  0  0  0  0
    2.4760    2.2560   -0.3390 N   0  0  0  0  0  0  0  0  0  0  0  0
    2.5750    3.7330   -0.2500 C   0  0  0  0  0  0  0  0  0  0  0  0
    1.2090    0.2860    0.2220 C   0  0  0  0  0  0  0  0  0  0  0  0
   -0.5060    3.1220    0.0560 H   0  0  0  0  0  0  0  0  0  0  0  0
    0.0630    2.3730   -1.4320 H   0  0  0  0  0  0  0  0  0  0  0  0
   -1.1560    1.2630    2.0620 H   0  0  0  0  0  0  0  0  0  0  0  0
   -3.6320    1.3900    2.1830 H   0  0  0  0  0  0  0  0  0  0  0  0
   -3.8800    0.6770   -2.1190 H   0  0  0  0  0  0  0  0  0  0  0  0
   -1.4080    0.5370   -2.2410 H   0  0  0  0  0  0  0  0  0  0  0  0
   -1.6200   -2.9090   -0.3220 H   0  0  0  0  0  0  0  0  0  0  0  0
    2.0930   -4.4990   -1.0710 H   0  0  0  0  0  0  0  0  0  0  0  0
    2.2060   -4.7110    0.7120 H   0  0  0  0  0  0  0  0  0  0  0  0
    0.9860   -5.6270   -0.2220 H   0  0  0  0  0  0  0  0  0  0  0  0
    2.9830   -2.5710    0.1520 H   0  0  0  0  0  0  0  0  0  0  0  0
    4.3660   -0.3890    0.8180 H   0  0  0  0  0  0  0  0  0  0  0  0
    4.0750   -0.1380   -0.9030 H   0  0  0  0  0  0  0  0  0  0  0  0
    3.7010    1.8230    1.4330 H   0  0  0  0  0  0  0  0  0  0  0  0
    4.5840    2.0480   -0.0810 H   0  0  0  0  0  0  0  0  0  0  0  0
    3.4640    4.0830   -0.8040 H   0  0  0  0  0  0  0  0  0  0  0  0
    1.7010    4.2020   -0.7330 H   0  0  0  0  0  0  0  0  0  0  0  0
    2.6440    4.1570    0.7710 H   0  0  0  0  0  0  0  0  0  0  0  0
  2  1  1  1
  2  3  1  0
  2 21  1  0
  2 23  1  0
  3 25  1  0
  3  4  1  0
  3 24  1  0
  4 10  1  6
  4 11  1  0
  4  5  1  0
  5  6  2  0
  5 26  1  0
  6  7  1  0
  6 27  1  0
  7  9  1  0
  7  8  2  0
  9 28  1  0
  9 10  2  0
 10 29  1  0
 11 12  2  0
 11 23  1  0
 12 13  1  0
 12 14  1  0
 13 30  1  0
 14 15  1  0
 14 17  2  0
 15 16  1  0
 16 31  1  0
 16 33  1  0
 16 32  1  0
 17 34  1  0
 17 18  1  0
 18 19  1  0
 18 23  2  0
 19 36  1  0
 19 20  1  0
 19 35  1  0
 20 21  1  0
 20 38  1  0
 20 37  1  0
 21 22  1  0
 22 39  1  0
 22 40  1  0
 22 41  1  0
M  END
>  <id>  (275) 
377

>  <scaffolds>  (275) 
['c1ccccc1', 'O=C1C=CC2(C=C1)CC1NCCc3cccc2c31']

>  <name>  (275) 
Glaziovine

>  <formula>  (275) 
C18H19NO3

>  <SMILES>  (275) 
[H][C@@]24CC1(C=CC(=O)C=C1)c3c(O)c(OC)cc(CCN2C)c34

>  <ChEMBL_id>  (275) 


>  <ZINC_id>  (275) 


>  <PubChem_id>  (275) 
73426

>  <DrugBank_id>  (275) 


>  <CAS_no>  (275) 
6808-72-6

>  <references>  (275) 
[{'journal': {'name': 'Molecules', 'id': 25}, 'title': 'Alkaloidal Variation in Cissampelos Capensis (Menispermaceae)', 'year': 2011, 'start_page': 3001, 'volume': 16, 'issue': None, 'doi': '10.3390/molecules16043001', 'isbn': '', 'despositor': {'code': 'DLP', 'first_name': 'David', 'last_name': 'Penkler', 'id': 23}, 'refauthors_set': [{'author': {'first_name': 'Helene', 'initials': 'H', 'last_name': 'de Wet', 'id': 633}, 'first_author': True, 'id': 873}, {'author': {'first_name': 'Fanie', 'initials': 'FR', 'last_name': 'Van Heerden', 'id': 634}, 'first_author': False, 'id': 874}, {'author': {'first_name': 'Ben-Erik', 'initials': 'B', 'last_name': 'van Wyk', 'id': 635}, 'first_author': False, 'id': 875}], 'id': 298}]

>  <classifications>  (275) 
[{'classification': 'Alkaloid', 'id': 738}, {'classification': 'Aporphine', 'id': 743}, {'classification': 'Proaporphines (Classyfire)', 'id': 977}]

>  <molecular_mass>  (275) 
297.35

$$$$
SANC00378_minRM1.pdb
     RDKit          3D

 44 47  0  0  1  0  0  0  0  0999 V2000
   -1.5520   -1.9650   -1.4530 H   0  0  0  0  0  0  0  0  0  0  0  0
   -1.5810   -1.6590   -0.3670 C   0  0  1  0  0  0  0  0  0  0  0  0
   -0.3420   -2.2430    0.3510 C   0  0  0  0  0  0  0  0  0  0  0  0
    0.7770   -1.1740    0.1210 C   0  0  1  0  0  0  0  0  0  0  0  0
    1.6680   -1.0900    1.3140 C   0  0  0  0  0  0  0  0  0  0  0  0
    2.9510   -1.4450    1.2850 C   0  0  0  0  0  0  0  0  0  0  0  0
    3.5900   -1.9190    0.0480 C   0  0  0  0  0  0  0  0  0  0  0  0
    4.7330   -2.3490    0.0340 O   0  0  0  0  0  0  0  0  0  0  0  0
    2.7820   -1.8400   -1.1830 C   0  0  0  0  0  0  0  0  0  0  0  0
    1.4970   -1.4930   -1.1480 C   0  0  0  0  0  0  0  0  0  0  0  0
    0.0020    0.1000   -0.0520 C   0  0  0  0  0  0  0  0  0  0  0  0
    0.3990    1.4140    0.0470 C   0  0  0  0  0  0  0  0  0  0  0  0
    1.6930    1.7350    0.3440 O   0  0  0  0  0  0  0  0  0  0  0  0
    2.4320    2.0970   -0.8020 C   0  0  0  0  0  0  0  0  0  0  0  0
   -0.5860    2.4290   -0.0490 C   0  0  0  0  0  0  0  0  0  0  0  0
   -0.0660    3.6870   -0.0290 O   0  0  0  0  0  0  0  0  0  0  0  0
   -0.9590    4.7420    0.2330 C   0  0  0  0  0  0  0  0  0  0  0  0
   -1.9370    2.1190   -0.1590 C   0  0  0  0  0  0  0  0  0  0  0  0
   -2.3240    0.7750   -0.2310 C   0  0  0  0  0  0  0  0  0  0  0  0
   -3.7480    0.3480   -0.1670 C   0  0  0  0  0  0  0  0  0  0  0  0
   -3.9430   -1.1590   -0.4110 C   0  0  0  0  0  0  0  0  0  0  0  0
   -2.8870   -1.9610    0.2860 N   0  0  0  0  0  0  0  0  0  0  0  0
   -3.1910   -3.4100    0.1980 C   0  0  0  0  0  0  0  0  0  0  0  0
   -1.3470   -0.1890   -0.2560 C   0  0  0  0  0  0  0  0  0  0  0  0
   -0.5330   -2.3900    1.4330 H   0  0  0  0  0  0  0  0  0  0  0  0
   -0.0500   -3.2360   -0.0340 H   0  0  0  0  0  0  0  0  0  0  0  0
    1.1980   -0.7150    2.2310 H   0  0  0  0  0  0  0  0  0  0  0  0
    3.5900   -1.3880    2.1730 H   0  0  0  0  0  0  0  0  0  0  0  0
    3.2940   -2.0820   -2.1200 H   0  0  0  0  0  0  0  0  0  0  0  0
    0.8950   -1.4350   -2.0620 H   0  0  0  0  0  0  0  0  0  0  0  0
    3.4420    2.3000   -0.4150 H   0  0  0  0  0  0  0  0  0  0  0  0
    2.4860    1.2820   -1.5450 H   0  0  0  0  0  0  0  0  0  0  0  0
    2.0510    3.0010   -1.3030 H   0  0  0  0  0  0  0  0  0  0  0  0
   -1.6480    4.9370   -0.6050 H   0  0  0  0  0  0  0  0  0  0  0  0
   -1.5440    4.6090    1.1580 H   0  0  0  0  0  0  0  0  0  0  0  0
   -0.2960    5.6130    0.3540 H   0  0  0  0  0  0  0  0  0  0  0  0
   -2.7110    2.8890   -0.1770 H   0  0  0  0  0  0  0  0  0  0  0  0
   -4.1400    0.6250    0.8360 H   0  0  0  0  0  0  0  0  0  0  0  0
   -4.3690    0.9240   -0.8860 H   0  0  0  0  0  0  0  0  0  0  0  0
   -4.9400   -1.4640   -0.0180 H   0  0  0  0  0  0  0  0  0  0  0  0
   -3.9990   -1.3580   -1.5100 H   0  0  0  0  0  0  0  0  0  0  0  0
   -3.2920   -3.8260   -0.8230 H   0  0  0  0  0  0  0  0  0  0  0  0
   -2.4040   -3.9920    0.7070 H   0  0  0  0  0  0  0  0  0  0  0  0
   -4.1330   -3.6280    0.7300 H   0  0  0  0  0  0  0  0  0  0  0  0
  2  1  1  6
  2 24  1  0
  2 22  1  0
  2  3  1  0
  3 26  1  0
  3  4  1  0
  3 25  1  0
  4 10  1  6
  4 11  1  0
  4  5  1  0
  5  6  2  0
  5 27  1  0
  6  7  1  0
  6 28  1  0
  7  9  1  0
  7  8  2  0
  9 29  1  0
  9 10  2  0
 10 30  1  0
 11 24  2  0
 11 12  1  0
 12 15  2  0
 12 13  1  0
 13 14  1  0
 14 32  1  0
 14 33  1  0
 14 31  1  0
 15 18  1  0
 15 16  1  0
 16 17  1  0
 17 34  1  0
 17 36  1  0
 17 35  1  0
 18 19  2  0
 18 37  1  0
 19 24  1  0
 19 20  1  0
 20 39  1  0
 20 21  1  0
 20 38  1  0
 21 41  1  0
 21 40  1  0
 21 22  1  0
 22 23  1  0
 23 42  1  0
 23 43  1  0
 23 44  1  0
M  END
>  <id>  (276) 
378

>  <scaffolds>  (276) 
['c1ccccc1', 'O=C1C=CC2(C=C1)CC1NCCc3cccc2c31']

>  <name>  (276) 
Pronuciferine

>  <formula>  (276) 
C19H21NO3

>  <SMILES>  (276) 
[H][C@]24CC1(C=CC(=O)C=C1)c3c(OC)c(OC)cc(CCN2C)c34

>  <ChEMBL_id>  (276) 


>  <ZINC_id>  (276) 


>  <PubChem_id>  (276) 
628376

>  <DrugBank_id>  (276) 


>  <CAS_no>  (276) 
2128-60-1

>  <references>  (276) 
[{'journal': {'name': 'Molecules', 'id': 25}, 'title': 'Alkaloidal Variation in Cissampelos Capensis (Menispermaceae)', 'year': 2011, 'start_page': 3001, 'volume': 16, 'issue': None, 'doi': '10.3390/molecules16043001', 'isbn': '', 'despositor': {'code': 'DLP', 'first_name': 'David', 'last_name': 'Penkler', 'id': 23}, 'refauthors_set': [{'author': {'first_name': 'Helene', 'initials': 'H', 'last_name': 'de Wet', 'id': 633}, 'first_author': True, 'id': 873}, {'author': {'first_name': 'Fanie', 'initials': 'FR', 'last_name': 'Van Heerden', 'id': 634}, 'first_author': False, 'id': 874}, {'author': {'first_name': 'Ben-Erik', 'initials': 'B', 'last_name': 'van Wyk', 'id': 635}, 'first_author': False, 'id': 875}], 'id': 298}]

>  <classifications>  (276) 
[{'classification': 'Alkaloid', 'id': 738}, {'classification': 'Aporphine', 'id': 743}, {'classification': 'Proaporphines (Classyfire)', 'id': 977}]

>  <molecular_mass>  (276) 
311.37

$$$$
SANC00379_minRM1.pdb
     RDKit          3D

 45 48  0  0  1  0  0  0  0  0999 V2000
    2.3470   -3.7610    0.8360 C   0  0  0  0  0  0  0  0  0  0  0  0
    2.8480   -2.8080   -0.0680 O   0  0  0  0  0  0  0  0  0  0  0  0
    2.2170   -1.6030   -0.1140 C   0  0  0  0  0  0  0  0  0  0  0  0
    1.2140   -1.1850    0.6650 C   0  0  0  0  0  0  0  0  0  0  0  0
    0.6070    0.1770    0.5280 C   0  0  2  0  0  0  0  0  0  0  0  0
    0.5400    0.8070    1.9330 C   0  0  0  0  0  0  0  0  0  0  0  0
   -0.0140    2.2290    1.8630 C   0  0  0  0  0  0  0  0  0  0  0  0
    0.8450    3.0450    0.9670 N   0  0  0  0  0  0  0  0  0  0  0  0
    0.4000    4.4590    0.9600 C   0  0  0  0  0  0  0  0  0  0  0  0
    0.9370    2.4790   -0.4010 C   0  0  2  0  0  0  0  0  0  0  0  0
    1.6600    3.1410   -0.9550 H   0  0  0  0  0  0  0  0  0  0  0  0
   -0.3710    2.3840   -1.2060 C   0  0  0  0  0  0  0  0  0  0  0  0
   -1.2220    1.2030   -0.8700 C   0  0  0  0  0  0  0  0  0  0  0  0
   -2.4910    1.1810   -1.4400 C   0  0  0  0  0  0  0  0  0  0  0  0
   -3.3830    0.1470   -1.1850 C   0  0  0  0  0  0  0  0  0  0  0  0
   -2.9950   -0.8570   -0.3140 C   0  0  0  0  0  0  0  0  0  0  0  0
   -3.7490   -1.9310    0.0620 O   0  0  0  0  0  0  0  0  0  0  0  0
   -5.0560   -2.0060   -0.4560 C   0  0  0  0  0  0  0  0  0  0  0  0
   -1.7100   -0.8450    0.2690 C   0  0  0  0  0  0  0  0  0  0  0  0
   -1.4150   -1.7540    1.2330 O   0  0  0  0  0  0  0  0  0  0  0  0
   -0.7900    0.1560   -0.0440 C   0  0  0  0  0  0  0  0  0  0  0  0
    1.4420    1.0700   -0.3400 C   0  0  0  0  0  0  0  0  0  0  0  0
    2.4640    0.6630   -1.0910 C   0  0  0  0  0  0  0  0  0  0  0  0
    2.8400   -0.7540   -1.1590 C   0  0  0  0  0  0  0  0  0  0  0  0
    3.5950   -1.1960   -2.0020 O   0  0  0  0  0  0  0  0  0  0  0  0
    2.4570   -3.4610    1.8920 H   0  0  0  0  0  0  0  0  0  0  0  0
    1.2940   -4.0320    0.6470 H   0  0  0  0  0  0  0  0  0  0  0  0
    2.9790   -4.6430    0.6530 H   0  0  0  0  0  0  0  0  0  0  0  0
    0.8280   -1.7990    1.4830 H   0  0  0  0  0  0  0  0  0  0  0  0
   -0.0950    0.1910    2.6040 H   0  0  0  0  0  0  0  0  0  0  0  0
    1.5490    0.8010    2.3970 H   0  0  0  0  0  0  0  0  0  0  0  0
   -1.0970    2.2240    1.5840 H   0  0  0  0  0  0  0  0  0  0  0  0
    0.0080    2.6890    2.8790 H   0  0  0  0  0  0  0  0  0  0  0  0
    0.6270    4.9040    1.9450 H   0  0  0  0  0  0  0  0  0  0  0  0
    0.9570    5.0540    0.2160 H   0  0  0  0  0  0  0  0  0  0  0  0
   -0.6760    4.6390    0.7730 H   0  0  0  0  0  0  0  0  0  0  0  0
   -0.9590    3.3210   -1.1030 H   0  0  0  0  0  0  0  0  0  0  0  0
   -0.1220    2.3360   -2.2910 H   0  0  0  0  0  0  0  0  0  0  0  0
   -2.8040    1.9920   -2.1070 H   0  0  0  0  0  0  0  0  0  0  0  0
   -4.3640    0.1650   -1.6630 H   0  0  0  0  0  0  0  0  0  0  0  0
   -5.6930   -1.1570   -0.1540 H   0  0  0  0  0  0  0  0  0  0  0  0
   -5.0840   -2.1110   -1.5550 H   0  0  0  0  0  0  0  0  0  0  0  0
   -5.4550   -2.9290   -0.0060 H   0  0  0  0  0  0  0  0  0  0  0  0
   -1.6250   -2.6310    0.8880 H   0  0  0  0  0  0  0  0  0  0  0  0
    3.0560    1.3470   -1.7090 H   0  0  0  0  0  0  0  0  0  0  0  0
  1  2  1  0
  1 27  1  0
  1 28  1  0
  1 26  1  0
  2  3  1  0
  3 24  1  0
  3  4  2  0
  4 29  1  0
  5  4  1  1
  5 22  1  0
  5 21  1  0
  5  6  1  0
  6  7  1  0
  6 31  1  0
  6 30  1  0
  7  8  1  0
  7 32  1  0
  7 33  1  0
  8 10  1  0
  8  9  1  0
  9 35  1  0
  9 36  1  0
  9 34  1  0
 10 12  1  0
 10 11  1  6
 10 22  1  0
 12 38  1  0
 12 37  1  0
 12 13  1  0
 13 14  2  0
 13 21  1  0
 14 39  1  0
 14 15  1  0
 15 40  1  0
 15 16  2  0
 16 17  1  0
 16 19  1  0
 17 18  1  0
 18 42  1  0
 18 41  1  0
 18 43  1  0
 19 21  2  0
 19 20  1  0
 20 44  1  0
 22 23  2  0
 23 45  1  0
 23 24  1  0
 24 25  2  0
M  END
>  <id>  (277) 
379

>  <scaffolds>  (277) 
['c1ccccc1', 'C1CCNCC1', 'c1ccc2c(c1)CCCC2']

>  <name>  (277) 
Salutaridine

>  <formula>  (277) 
C19H21NO4

>  <SMILES>  (277) 
COC4=C[C@]23CCN(C)[C@H](Cc1ccc(OC)c(O)c12)C3=CC4=O

>  <ChEMBL_id>  (277) 
CHEMBL404097

>  <ZINC_id>  (277) 


>  <PubChem_id>  (277) 


>  <DrugBank_id>  (277) 


>  <CAS_no>  (277) 
1936-18-1

>  <references>  (277) 
[{'journal': {'name': 'Molecules', 'id': 25}, 'title': 'Alkaloidal Variation in Cissampelos Capensis (Menispermaceae)', 'year': 2011, 'start_page': 3001, 'volume': 16, 'issue': None, 'doi': '10.3390/molecules16043001', 'isbn': '', 'despositor': {'code': 'DLP', 'first_name': 'David', 'last_name': 'Penkler', 'id': 23}, 'refauthors_set': [{'author': {'first_name': 'Helene', 'initials': 'H', 'last_name': 'de Wet', 'id': 633}, 'first_author': True, 'id': 873}, {'author': {'first_name': 'Fanie', 'initials': 'FR', 'last_name': 'Van Heerden', 'id': 634}, 'first_author': False, 'id': 874}, {'author': {'first_name': 'Ben-Erik', 'initials': 'B', 'last_name': 'van Wyk', 'id': 635}, 'first_author': False, 'id': 875}], 'id': 298}]

>  <classifications>  (277) 
[{'classification': 'Alkaloid', 'id': 738}, {'classification': 'Morphinane', 'id': 797}, {'classification': 'Phenanthrenes and derivatives (Classyfire)', 'id': 978}]

>  <molecular_mass>  (277) 
327.37

$$$$
SANC00380_minRM1.pdb
     RDKit          3D

 88 94  0  0  1  0  0  0  0  0999 V2000
    3.1380   -1.4540    1.8950 H   0  0  0  0  0  0  0  0  0  0  0  0
    3.6370   -1.7760    0.9400 C   0  0  1  0  0  0  0  0  0  0  0  0
    2.6240   -2.5550    0.0620 C   0  0  0  0  0  0  0  0  0  0  0  0
    1.2150   -2.1350    0.3190 C   0  0  0  0  0  0  0  0  0  0  0  0
    0.6860   -2.2490    1.6040 C   0  0  0  0  0  0  0  0  0  0  0  0
   -0.6010   -1.8110    1.8770 C   0  0  0  0  0  0  0  0  0  0  0  0
   -1.3530   -1.2660    0.8340 C   0  0  0  0  0  0  0  0  0  0  0  0
   -0.8810   -1.2290   -0.4730 C   0  0  0  0  0  0  0  0  0  0  0  0
    0.4130   -1.6690   -0.7190 C   0  0  0  0  0  0  0  0  0  0  0  0
   -2.5340   -0.6830    1.2330 O   0  0  0  0  0  0  0  0  0  0  0  0
   -3.5490   -0.6480    0.3130 C   0  0  0  0  0  0  0  0  0  0  0  0
   -3.9760   -1.8160   -0.3160 C   0  0  0  0  0  0  0  0  0  0  0  0
   -3.2300   -2.9580   -0.2430 O   0  0  0  0  0  0  0  0  0  0  0  0
   -3.6830   -3.8300    0.7650 C   0  0  0  0  0  0  0  0  0  0  0  0
   -5.1380   -1.7960   -1.1110 C   0  0  0  0  0  0  0  0  0  0  0  0
   -5.4360   -2.9910   -1.6910 O   0  0  0  0  0  0  0  0  0  0  0  0
   -6.6590   -3.0930   -2.3600 C   0  0  0  0  0  0  0  0  0  0  0  0
   -5.8780   -0.6270   -1.2300 C   0  0  0  0  0  0  0  0  0  0  0  0
   -5.4360    0.5240   -0.5730 C   0  0  0  0  0  0  0  0  0  0  0  0
   -6.2900    1.7410   -0.5990 C   0  0  0  0  0  0  0  0  0  0  0  0
   -6.1650    2.4430    0.7550 C   0  0  0  0  0  0  0  0  0  0  0  0
   -4.7710    2.9160    0.8840 N   0  0  0  0  0  0  0  0  0  0  0  0
   -4.5760    3.6930    2.1270 C   0  0  0  0  0  0  0  0  0  0  0  0
   -3.7300    1.8410    0.7480 C   0  0  2  0  0  0  0  0  0  0  0  0
   -3.2900    1.5890    1.7530 H   0  0  0  0  0  0  0  0  0  0  0  0
   -2.6580    2.4540   -0.1940 C   0  0  0  0  0  0  0  0  0  0  0  0
   -1.2580    2.0690    0.1530 C   0  0  0  0  0  0  0  0  0  0  0  0
   -0.4000    1.6160   -0.8450 C   0  0  0  0  0  0  0  0  0  0  0  0
    0.9050    1.2400   -0.5480 C   0  0  0  0  0  0  0  0  0  0  0  0
    1.3310    1.3200    0.7740 C   0  0  0  0  0  0  0  0  0  0  0  0
    0.5110    1.8340    1.7820 C   0  0  0  0  0  0  0  0  0  0  0  0
   -0.7790    2.2170    1.4540 C   0  0  0  0  0  0  0  0  0  0  0  0
    2.5320    0.8300    1.2180 O   0  0  0  0  0  0  0  0  0  0  0  0
    3.5310    0.6770    0.2990 C   0  0  0  0  0  0  0  0  0  0  0  0
    4.0000    1.7850   -0.4010 C   0  0  0  0  0  0  0  0  0  0  0  0
    3.3050    2.9620   -0.3850 O   0  0  0  0  0  0  0  0  0  0  0  0
    3.7830    3.8460    0.6060 C   0  0  0  0  0  0  0  0  0  0  0  0
    5.1550    1.6670   -1.1850 C   0  0  0  0  0  0  0  0  0  0  0  0
    5.5150    2.8170   -1.8140 O   0  0  0  0  0  0  0  0  0  0  0  0
    6.7390    2.8150   -2.5040 C   0  0  0  0  0  0  0  0  0  0  0  0
    5.8260    0.4530   -1.2470 C   0  0  0  0  0  0  0  0  0  0  0  0
    5.3350   -0.6490   -0.5410 C   0  0  0  0  0  0  0  0  0  0  0  0
    6.1730   -1.8860   -0.5840 C   0  0  0  0  0  0  0  0  0  0  0  0
    5.5410   -3.0840    0.1420 C   0  0  0  0  0  0  0  0  0  0  0  0
    4.7370   -2.7110    1.3320 N   0  0  0  0  0  0  0  0  0  0  0  0
    5.5980   -2.1010    2.3800 C   0  0  0  0  0  0  0  0  0  0  0  0
    4.1660   -0.5680    0.2100 C   0  0  0  0  0  0  0  0  0  0  0  0
   -4.2480    0.5580    0.1530 C   0  0  0  0  0  0  0  0  0  0  0  0
    2.8850   -2.4450   -1.0140 H   0  0  0  0  0  0  0  0  0  0  0  0
    2.6830   -3.6500    0.2570 H   0  0  0  0  0  0  0  0  0  0  0  0
    1.2820   -2.6900    2.4090 H   0  0  0  0  0  0  0  0  0  0  0  0
   -1.0110   -1.8730    2.8880 H   0  0  0  0  0  0  0  0  0  0  0  0
   -1.5100   -0.8670   -1.2910 H   0  0  0  0  0  0  0  0  0  0  0  0
    0.8040   -1.6190   -1.7410 H   0  0  0  0  0  0  0  0  0  0  0  0
   -3.5970   -3.3930    1.7760 H   0  0  0  0  0  0  0  0  0  0  0  0
   -4.7250   -4.1660    0.6090 H   0  0  0  0  0  0  0  0  0  0  0  0
   -3.0140   -4.7000    0.6850 H   0  0  0  0  0  0  0  0  0  0  0  0
   -6.7120   -2.4520   -3.2530 H   0  0  0  0  0  0  0  0  0  0  0  0
   -6.6910   -4.1470   -2.6790 H   0  0  0  0  0  0  0  0  0  0  0  0
   -7.5280   -2.8900   -1.7220 H   0  0  0  0  0  0  0  0  0  0  0  0
   -6.8020   -0.5860   -1.8180 H   0  0  0  0  0  0  0  0  0  0  0  0
   -5.9800    2.4090   -1.4350 H   0  0  0  0  0  0  0  0  0  0  0  0
   -7.3620    1.5060   -0.8180 H   0  0  0  0  0  0  0  0  0  0  0  0
   -6.8470    3.3230    0.8010 H   0  0  0  0  0  0  0  0  0  0  0  0
   -6.5060    1.7670    1.5750 H   0  0  0  0  0  0  0  0  0  0  0  0
   -4.7700    3.1540    3.0730 H   0  0  0  0  0  0  0  0  0  0  0  0
   -3.5430    4.0710    2.1750 H   0  0  0  0  0  0  0  0  0  0  0  0
   -5.2310    4.5830    2.1210 H   0  0  0  0  0  0  0  0  0  0  0  0
   -2.9050    2.1950   -1.2450 H   0  0  0  0  0  0  0  0  0  0  0  0
   -2.7030    3.5680   -0.1860 H   0  0  0  0  0  0  0  0  0  0  0  0
   -0.7370    1.5590   -1.8840 H   0  0  0  0  0  0  0  0  0  0  0  0
    1.5690    0.8890   -1.3420 H   0  0  0  0  0  0  0  0  0  0  0  0
    0.8800    1.9200    2.8070 H   0  0  0  0  0  0  0  0  0  0  0  0
   -1.4180    2.6390    2.2360 H   0  0  0  0  0  0  0  0  0  0  0  0
    3.6750    3.4410    1.6260 H   0  0  0  0  0  0  0  0  0  0  0  0
    4.8330    4.1430    0.4570 H   0  0  0  0  0  0  0  0  0  0  0  0
    3.1410    4.7320    0.4970 H   0  0  0  0  0  0  0  0  0  0  0  0
    6.8250    3.8530   -2.8640 H   0  0  0  0  0  0  0  0  0  0  0  0
    7.5950    2.6060   -1.8490 H   0  0  0  0  0  0  0  0  0  0  0  0
    6.7640    2.1270   -3.3600 H   0  0  0  0  0  0  0  0  0  0  0  0
    6.7400    0.3340   -1.8340 H   0  0  0  0  0  0  0  0  0  0  0  0
    6.4200   -2.1550   -1.6320 H   0  0  0  0  0  0  0  0  0  0  0  0
    7.1670   -1.6420   -0.1260 H   0  0  0  0  0  0  0  0  0  0  0  0
    4.9010   -3.6730   -0.5610 H   0  0  0  0  0  0  0  0  0  0  0  0
    6.3290   -3.8130    0.4450 H   0  0  0  0  0  0  0  0  0  0  0  0
    6.0460   -1.1170    2.1390 H   0  0  0  0  0  0  0  0  0  0  0  0
    5.0080   -1.9720    3.3070 H   0  0  0  0  0  0  0  0  0  0  0  0
    6.4340   -2.7770    2.6350 H   0  0  0  0  0  0  0  0  0  0  0  0
  2  1  1  1
  2  3  1  0
  2 47  1  0
  2 45  1  0
  3 49  1  0
  3 50  1  0
  3  4  1  0
  4  9  2  0
  4  5  1  0
  5  6  2  0
  5 51  1  0
  6  7  1  0
  6 52  1  0
  7  8  2  0
  7 10  1  0
  8 53  1  0
  8  9  1  0
  9 54  1  0
 10 11  1  0
 11 12  2  0
 11 48  1  0
 12 15  1  0
 12 13  1  0
 13 14  1  0
 14 56  1  0
 14 57  1  0
 14 55  1  0
 15 16  1  0
 15 18  2  0
 16 17  1  0
 17 58  1  0
 17 59  1  0
 17 60  1  0
 18 61  1  0
 18 19  1  0
 19 20  1  0
 19 48  2  0
 20 62  1  0
 20 63  1  0
 20 21  1  0
 21 64  1  0
 21 22  1  0
 21 65  1  0
 22 24  1  0
 22 23  1  0
 23 68  1  0
 23 67  1  0
 23 66  1  0
 24 26  1  0
 24 48  1  0
 24 25  1  1
 26 69  1  0
 26 70  1  0
 26 27  1  0
 27 28  2  0
 27 32  1  0
 28 71  1  0
 28 29  1  0
 29 72  1  0
 29 30  2  0
 30 33  1  0
 30 31  1  0
 31 32  2  0
 31 73  1  0
 32 74  1  0
 33 34  1  0
 34 35  2  0
 34 47  1  0
 35 38  1  0
 35 36  1  0
 36 37  1  0
 37 76  1  0
 37 77  1  0
 37 75  1  0
 38 39  1  0
 38 41  2  0
 39 40  1  0
 40 80  1  0
 40 78  1  0
 40 79  1  0
 41 81  1  0
 41 42  1  0
 42 43  1  0
 42 47  2  0
 43 82  1  0
 43 83  1  0
 43 44  1  0
 44 84  1  0
 44 85  1  0
 44 45  1  0
 45 46  1  0
 46 86  1  0
 46 88  1  0
 46 87  1  0
M  END
>  <id>  (278) 
380

>  <scaffolds>  (278) 
['c1ccccc1', 'c1ccc(CCc2ccccc2)cc1', 'c1cc2c3c(c1)Oc1ccc(cc1)CC1NCCc4cccc(c41)Oc1ccc(cc1)CC3NCC2', 'c1ccc(CC2NCCc3ccccc32)cc1']

>  <name>  (278) 
Cycleanine

>  <formula>  (278) 
C38H42N2O6

>  <SMILES>  (278) 
[H][C@]35Cc1ccc(cc1)Oc7c(OC)c(OC)cc6CCN(C)[C@]([H])(Cc2ccc(cc2)Oc4c(OC)c(OC)cc(CCN3C)c45)c67

>  <ChEMBL_id>  (278) 


>  <ZINC_id>  (278) 


>  <PubChem_id>  (278) 
 121313

>  <DrugBank_id>  (278) 


>  <CAS_no>  (278) 
518-94-5

>  <references>  (278) 
[{'journal': {'name': 'Molecules', 'id': 25}, 'title': 'Alkaloidal Variation in Cissampelos Capensis (Menispermaceae)', 'year': 2011, 'start_page': 3001, 'volume': 16, 'issue': None, 'doi': '10.3390/molecules16043001', 'isbn': '', 'despositor': {'code': 'DLP', 'first_name': 'David', 'last_name': 'Penkler', 'id': 23}, 'refauthors_set': [{'author': {'first_name': 'Helene', 'initials': 'H', 'last_name': 'de Wet', 'id': 633}, 'first_author': True, 'id': 873}, {'author': {'first_name': 'Fanie', 'initials': 'FR', 'last_name': 'Van Heerden', 'id': 634}, 'first_author': False, 'id': 874}, {'author': {'first_name': 'Ben-Erik', 'initials': 'B', 'last_name': 'van Wyk', 'id': 635}, 'first_author': False, 'id': 875}], 'id': 298}]

>  <classifications>  (278) 
[{'classification': 'Alkaloid', 'id': 738}, {'classification': 'Bisbenzylisoquinoline', 'id': 748}, {'classification': 'Organooxygen compounds (Classyfire)', 'id': 954}]

>  <molecular_mass>  (278) 
622.75

$$$$
SANC00381_minRM1.pdb
     RDKit          3D

 84 92  0  0  1  0  0  0  0  0999 V2000
    3.5150   -0.8720    2.0300 H   0  0  0  0  0  0  0  0  0  0  0  0
    3.8590   -1.3840    1.0910 C   0  0  1  0  0  0  0  0  0  0  0  0
    2.9600   -2.6200    0.8370 C   0  0  0  0  0  0  0  0  0  0  0  0
    1.5050   -2.3180    0.9820 C   0  0  0  0  0  0  0  0  0  0  0  0
    0.9820   -1.9300    2.2180 C   0  0  0  0  0  0  0  0  0  0  0  0
   -0.3450   -1.5540    2.3290 C   0  0  0  0  0  0  0  0  0  0  0  0
   -1.1680   -1.5710    1.1900 C   0  0  0  0  0  0  0  0  0  0  0  0
   -2.3540   -0.9090    1.3980 O   0  0  0  0  0  0  0  0  0  0  0  0
   -3.2090   -0.6720    0.3590 C   0  0  0  0  0  0  0  0  0  0  0  0
   -3.5770   -1.7170   -0.4940 C   0  0  0  0  0  0  0  0  0  0  0  0
   -2.9390   -2.9240   -0.4430 O   0  0  0  0  0  0  0  0  0  0  0  0
   -1.6450   -2.7870   -0.9940 C   0  0  0  0  0  0  0  0  0  0  0  0
   -0.7300   -2.2300    0.0460 C   0  0  0  0  0  0  0  0  0  0  0  0
    0.6300   -2.5260   -0.0740 C   0  0  0  0  0  0  0  0  0  0  0  0
   -4.6090   -1.5710   -1.4260 C   0  0  0  0  0  0  0  0  0  0  0  0
   -4.8750   -2.6850   -2.1600 O   0  0  0  0  0  0  0  0  0  0  0  0
   -6.1320   -2.7280   -2.7930 C   0  0  0  0  0  0  0  0  0  0  0  0
   -5.2300   -0.3370   -1.5690 C   0  0  0  0  0  0  0  0  0  0  0  0
   -4.8030    0.7150   -0.7690 C   0  0  0  0  0  0  0  0  0  0  0  0
   -5.3460    2.0790   -1.0350 C   0  0  0  0  0  0  0  0  0  0  0  0
   -4.1480    3.0310   -0.9870 C   0  0  0  0  0  0  0  0  0  0  0  0
   -3.4840    3.0430    0.3410 N   0  0  0  0  0  0  0  0  0  0  0  0
   -3.9020    4.2330    1.1270 C   0  0  0  0  0  0  0  0  0  0  0  0
   -3.7090    1.7830    1.1340 C   0  0  2  0  0  0  0  0  0  0  0  0
   -4.7190    1.8110    1.6590 H   0  0  0  0  0  0  0  0  0  0  0  0
   -2.6800    1.7590    2.2720 C   0  0  0  0  0  0  0  0  0  0  0  0
   -1.2300    1.7680    1.9300 C   0  0  0  0  0  0  0  0  0  0  0  0
   -0.3640    1.2320    2.8880 C   0  0  0  0  0  0  0  0  0  0  0  0
    0.9790    1.0410    2.6030 C   0  0  0  0  0  0  0  0  0  0  0  0
    1.4560    1.4970    1.3790 C   0  0  0  0  0  0  0  0  0  0  0  0
    2.7840    1.2730    1.1080 O   0  0  0  0  0  0  0  0  0  0  0  0
    3.0420    0.7090   -0.1150 C   0  0  0  0  0  0  0  0  0  0  0  0
    2.7660    1.3460   -1.3200 C   0  0  0  0  0  0  0  0  0  0  0  0
    1.8120    2.2740   -1.5910 O   0  0  0  0  0  0  0  0  0  0  0  0
    1.3360    3.0620   -0.5330 C   0  0  0  0  0  0  0  0  0  0  0  0
    0.6650    2.2620    0.5300 C   0  0  0  0  0  0  0  0  0  0  0  0
   -0.7030    2.3350    0.7720 C   0  0  0  0  0  0  0  0  0  0  0  0
    3.4720    0.9370   -2.4770 C   0  0  0  0  0  0  0  0  0  0  0  0
    3.1630    1.6660   -3.5890 O   0  0  0  0  0  0  0  0  0  0  0  0
    4.0700    1.5890   -4.6580 C   0  0  0  0  0  0  0  0  0  0  0  0
    4.3740   -0.1110   -2.4230 C   0  0  0  0  0  0  0  0  0  0  0  0
    4.5190   -0.8280   -1.2310 C   0  0  0  0  0  0  0  0  0  0  0  0
    5.5010   -1.9500   -1.2240 C   0  0  0  0  0  0  0  0  0  0  0  0
    5.7830   -2.5770    0.1520 C   0  0  0  0  0  0  0  0  0  0  0  0
    5.2580   -1.8530    1.3330 N   0  0  0  0  0  0  0  0  0  0  0  0
    6.1400   -0.7210    1.7090 C   0  0  0  0  0  0  0  0  0  0  0  0
    3.8020   -0.4730   -0.1000 C   0  0  0  0  0  0  0  0  0  0  0  0
   -3.8360    0.5770    0.2420 C   0  0  0  0  0  0  0  0  0  0  0  0
    3.1620   -3.0440   -0.1700 H   0  0  0  0  0  0  0  0  0  0  0  0
    3.2250   -3.4340    1.5480 H   0  0  0  0  0  0  0  0  0  0  0  0
    1.6220   -1.9280    3.1050 H   0  0  0  0  0  0  0  0  0  0  0  0
   -0.7590   -1.2630    3.2980 H   0  0  0  0  0  0  0  0  0  0  0  0
   -1.3700   -3.8340   -1.2560 H   0  0  0  0  0  0  0  0  0  0  0  0
   -1.6180   -2.2020   -1.9430 H   0  0  0  0  0  0  0  0  0  0  0  0
    0.9940   -2.9460   -1.0200 H   0  0  0  0  0  0  0  0  0  0  0  0
   -6.9770   -2.4850   -2.1290 H   0  0  0  0  0  0  0  0  0  0  0  0
   -6.1760   -2.0820   -3.6860 H   0  0  0  0  0  0  0  0  0  0  0  0
   -6.2220   -3.7780   -3.1140 H   0  0  0  0  0  0  0  0  0  0  0  0
   -6.0190   -0.1770   -2.3090 H   0  0  0  0  0  0  0  0  0  0  0  0
   -5.8590    2.1520   -2.0160 H   0  0  0  0  0  0  0  0  0  0  0  0
   -6.1260    2.3560   -0.2950 H   0  0  0  0  0  0  0  0  0  0  0  0
   -3.3710    2.7110   -1.7210 H   0  0  0  0  0  0  0  0  0  0  0  0
   -4.4460    4.0500   -1.3210 H   0  0  0  0  0  0  0  0  0  0  0  0
   -4.9860    4.3210    1.3350 H   0  0  0  0  0  0  0  0  0  0  0  0
   -3.3830    4.2560    2.1030 H   0  0  0  0  0  0  0  0  0  0  0  0
   -3.5990    5.1530    0.5950 H   0  0  0  0  0  0  0  0  0  0  0  0
   -2.8610    2.6440    2.9330 H   0  0  0  0  0  0  0  0  0  0  0  0
   -2.9230    0.8910    2.9260 H   0  0  0  0  0  0  0  0  0  0  0  0
   -0.7450    0.9360    3.8720 H   0  0  0  0  0  0  0  0  0  0  0  0
    1.6490    0.5560    3.3190 H   0  0  0  0  0  0  0  0  0  0  0  0
    2.1430    3.6880   -0.0870 H   0  0  0  0  0  0  0  0  0  0  0  0
    0.6430    3.7540   -1.0590 H   0  0  0  0  0  0  0  0  0  0  0  0
   -1.3490    2.8540    0.0530 H   0  0  0  0  0  0  0  0  0  0  0  0
    5.1180    1.7890   -4.3720 H   0  0  0  0  0  0  0  0  0  0  0  0
    4.0200    0.6260   -5.1920 H   0  0  0  0  0  0  0  0  0  0  0  0
    3.7340    2.3870   -5.3380 H   0  0  0  0  0  0  0  0  0  0  0  0
    4.9660   -0.4020   -3.2940 H   0  0  0  0  0  0  0  0  0  0  0  0
    5.1600   -2.7350   -1.9330 H   0  0  0  0  0  0  0  0  0  0  0  0
    6.4550   -1.5830   -1.6650 H   0  0  0  0  0  0  0  0  0  0  0  0
    5.3710   -3.6120    0.1990 H   0  0  0  0  0  0  0  0  0  0  0  0
    6.8800   -2.7380    0.2700 H   0  0  0  0  0  0  0  0  0  0  0  0
    6.3210    0.0410    0.9290 H   0  0  0  0  0  0  0  0  0  0  0  0
    5.7320   -0.1890    2.5860 H   0  0  0  0  0  0  0  0  0  0  0  0
    7.1260   -1.1110    2.0150 H   0  0  0  0  0  0  0  0  0  0  0  0
  2  1  1  1
  2 47  1  0
  2  3  1  0
  2 45  1  0
  3 49  1  0
  3  4  1  0
  3 50  1  0
  4 14  2  0
  4  5  1  0
  5  6  2  0
  5 51  1  0
  6  7  1  0
  6 52  1  0
  7 13  2  0
  7  8  1  0
  8  9  1  0
  9 10  2  0
  9 48  1  0
 10 15  1  0
 10 11  1  0
 11 12  1  0
 12 54  1  0
 12 53  1  0
 12 13  1  0
 13 14  1  0
 14 55  1  0
 15 16  1  0
 15 18  2  0
 16 17  1  0
 17 57  1  0
 17 58  1  0
 17 56  1  0
 18 59  1  0
 18 19  1  0
 19 20  1  0
 19 48  2  0
 20 60  1  0
 20 21  1  0
 20 61  1  0
 21 62  1  0
 21 63  1  0
 21 22  1  0
 22 23  1  0
 22 24  1  0
 23 66  1  0
 23 64  1  0
 23 65  1  0
 24 48  1  0
 24 25  1  1
 24 26  1  0
 26 27  1  0
 26 68  1  0
 26 67  1  0
 27 37  2  0
 27 28  1  0
 28 29  2  0
 28 69  1  0
 29 30  1  0
 29 70  1  0
 30 36  2  0
 30 31  1  0
 31 32  1  0
 32 33  2  0
 32 47  1  0
 33 38  1  0
 33 34  1  0
 34 35  1  0
 35 72  1  0
 35 71  1  0
 35 36  1  0
 36 37  1  0
 37 73  1  0
 38 39  1  0
 38 41  2  0
 39 40  1  0
 40 76  1  0
 40 75  1  0
 40 74  1  0
 41 77  1  0
 41 42  1  0
 42 43  1  0
 42 47  2  0
 43 78  1  0
 43 79  1  0
 43 44  1  0
 44 80  1  0
 44 81  1  0
 44 45  1  0
 45 46  1  0
 46 82  1  0
 46 84  1  0
 46 83  1  0
M  END
>  <id>  (279) 
381

>  <scaffolds>  (279) 
['c1ccccc1', 'c1ccc(CCc2ccccc2)cc1', 'c1cc2c3c(c1)Oc1ccc(cc1)CC1NCCc4ccc5c(c41)Oc1ccc(cc1CO5)CC3NCC2', 'c1cc2c3c(c1)Oc1ccc(cc1)CC1NCCc4cccc(c41)Oc1ccc(cc1)CC3NCC2', 'c1cc2c3cc1CC1NCCc4ccc5c(c41)Oc1ccc(cc1CO5)CC1NCCc4ccc(c(c41)O2)OC3', 'c1ccc(CC2NCCc3ccccc32)cc1']

>  <name>  (279) 
Cissacapine

>  <formula>  (279) 
C38H38N2O6

>  <SMILES>  (279) 
[H][C@]57Cc2ccc1Oc9c(OCc1c2)c(OC)cc8CCN(C)[C@]([H])(Cc4ccc3Oc6c(OCc3c4)c(OC)cc(CCN5C)c67)c89

>  <ChEMBL_id>  (279) 


>  <ZINC_id>  (279) 


>  <PubChem_id>  (279) 


>  <DrugBank_id>  (279) 


>  <CAS_no>  (279) 
847020-31-9

>  <references>  (279) 
[{'journal': {'name': 'Molecules', 'id': 25}, 'title': 'Alkaloidal Variation in Cissampelos Capensis (Menispermaceae)', 'year': 2011, 'start_page': 3001, 'volume': 16, 'issue': None, 'doi': '10.3390/molecules16043001', 'isbn': '', 'despositor': {'code': 'DLP', 'first_name': 'David', 'last_name': 'Penkler', 'id': 23}, 'refauthors_set': [{'author': {'first_name': 'Helene', 'initials': 'H', 'last_name': 'de Wet', 'id': 633}, 'first_author': True, 'id': 873}, {'author': {'first_name': 'Fanie', 'initials': 'FR', 'last_name': 'Van Heerden', 'id': 634}, 'first_author': False, 'id': 874}, {'author': {'first_name': 'Ben-Erik', 'initials': 'B', 'last_name': 'van Wyk', 'id': 635}, 'first_author': False, 'id': 875}], 'id': 298}]

>  <classifications>  (279) 
[{'classification': 'Alkaloid', 'id': 738}, {'classification': 'Bisbenzyltetrahydro-isoquinoline', 'id': 749}, {'classification': 'Organooxygen compounds (Classyfire)', 'id': 954}]

>  <molecular_mass>  (279) 
618.72

$$$$
SANC00382_minRM1.pdb
     RDKit          3D

 38 41  0  0  1  0  0  0  0  0999 V2000
   -0.0550    2.6010   -1.3060 H   0  0  0  0  0  0  0  0  0  0  0  0
   -0.2160    2.2920   -0.2370 C   0  0  2  0  0  0  0  0  0  0  0  0
    1.1460    1.9390    0.4050 C   0  0  0  0  0  0  0  0  0  0  0  0
    1.3310    0.4120    0.1150 C   0  0  1  0  0  0  0  0  0  0  0  0
    2.0480    0.2550   -1.1860 C   0  0  0  0  0  0  0  0  0  0  0  0
    3.2710   -0.2630   -1.2800 C   0  0  0  0  0  0  0  0  0  0  0  0
    3.9940   -0.7390   -0.0890 C   0  0  0  0  0  0  0  0  0  0  0  0
    5.1600   -1.0960   -0.1470 O   0  0  0  0  0  0  0  0  0  0  0  0
    3.2370   -0.7710    1.1740 C   0  0  0  0  0  0  0  0  0  0  0  0
    2.0130   -0.2550    1.2610 C   0  0  0  0  0  0  0  0  0  0  0  0
   -0.0770   -0.0860   -0.0290 C   0  0  0  0  0  0  0  0  0  0  0  0
   -0.5910   -1.3670    0.0290 C   0  0  0  0  0  0  0  0  0  0  0  0
    0.2990   -2.3790    0.1410 O   0  0  0  0  0  0  0  0  0  0  0  0
   -2.0010   -1.5230   -0.0400 C   0  0  0  0  0  0  0  0  0  0  0  0
   -2.3940   -2.8320   -0.0260 O   0  0  0  0  0  0  0  0  0  0  0  0
   -3.7730   -3.0930    0.0280 C   0  0  0  0  0  0  0  0  0  0  0  0
   -2.8540   -0.4300   -0.0980 C   0  0  0  0  0  0  0  0  0  0  0  0
   -2.3140    0.8620   -0.1420 C   0  0  0  0  0  0  0  0  0  0  0  0
   -3.1630    2.0820   -0.0590 C   0  0  0  0  0  0  0  0  0  0  0  0
   -2.3550    3.3960   -0.1540 C   0  0  0  0  0  0  0  0  0  0  0  0
   -0.9910    3.3620    0.4200 N   0  0  0  0  0  0  0  0  0  0  0  0
   -0.9480    0.9900   -0.1770 C   0  0  0  0  0  0  0  0  0  0  0  0
    1.9750    2.5440   -0.0050 H   0  0  0  0  0  0  0  0  0  0  0  0
    1.1590    2.1420    1.4940 H   0  0  0  0  0  0  0  0  0  0  0  0
    1.5060    0.6070   -2.0710 H   0  0  0  0  0  0  0  0  0  0  0  0
    3.7890   -0.3630   -2.2390 H   0  0  0  0  0  0  0  0  0  0  0  0
    3.7290   -1.2480    2.0270 H   0  0  0  0  0  0  0  0  0  0  0  0
    1.4420   -0.2950    2.1950 H   0  0  0  0  0  0  0  0  0  0  0  0
   -0.1670   -3.2090    0.2980 H   0  0  0  0  0  0  0  0  0  0  0  0
   -4.2600   -2.6850    0.9290 H   0  0  0  0  0  0  0  0  0  0  0  0
   -4.3140   -2.7460   -0.8680 H   0  0  0  0  0  0  0  0  0  0  0  0
   -3.8230   -4.1930    0.0650 H   0  0  0  0  0  0  0  0  0  0  0  0
   -3.9410   -0.5390   -0.1050 H   0  0  0  0  0  0  0  0  0  0  0  0
   -3.9440    2.0660   -0.8490 H   0  0  0  0  0  0  0  0  0  0  0  0
   -3.7330    2.0480    0.8960 H   0  0  0  0  0  0  0  0  0  0  0  0
   -2.2700    3.7100   -1.2200 H   0  0  0  0  0  0  0  0  0  0  0  0
   -2.9170    4.2220    0.3400 H   0  0  0  0  0  0  0  0  0  0  0  0
   -1.0340    3.2060    1.4380 H   0  0  0  0  0  0  0  0  0  0  0  0
  2  1  1  6
  2 22  1  0
  2  3  1  0
  2 21  1  0
  3 23  1  0
  3  4  1  0
  3 24  1  0
  4  5  1  6
  4 11  1  0
  4 10  1  0
  5 25  1  0
  5  6  2  0
  6 26  1  0
  6  7  1  0
  7  8  2  0
  7  9  1  0
  9 10  2  0
  9 27  1  0
 10 28  1  0
 11 22  2  0
 11 12  1  0
 12 14  2  0
 12 13  1  0
 13 29  1  0
 14 17  1  0
 14 15  1  0
 15 16  1  0
 16 31  1  0
 16 32  1  0
 16 30  1  0
 17 18  2  0
 17 33  1  0
 18 22  1  0
 18 19  1  0
 19 34  1  0
 19 20  1  0
 19 35  1  0
 20 36  1  0
 20 37  1  0
 20 21  1  0
 21 38  1  0
M  END
>  <id>  (280) 
382

>  <scaffolds>  (280) 
['c1ccccc1', 'O=C1C=CC2(C=C1)CC1NCCc3cccc2c31']

>  <name>  (280) 
Crotsparine

>  <formula>  (280) 
C17H17NO3

>  <SMILES>  (280) 
[H][C@@]24CC1(C=CC(=O)C=C1)c3c(O)c(OC)cc(CCN2)c34

>  <ChEMBL_id>  (280) 


>  <ZINC_id>  (280) 


>  <PubChem_id>  (280) 


>  <DrugBank_id>  (280) 


>  <CAS_no>  (280) 
18373-79-0

>  <references>  (280) 
[{'journal': {'name': 'Molecules', 'id': 25}, 'title': 'Alkaloidal Variation in Cissampelos Capensis (Menispermaceae)', 'year': 2011, 'start_page': 3001, 'volume': 16, 'issue': None, 'doi': '10.3390/molecules16043001', 'isbn': '', 'despositor': {'code': 'DLP', 'first_name': 'David', 'last_name': 'Penkler', 'id': 23}, 'refauthors_set': [{'author': {'first_name': 'Helene', 'initials': 'H', 'last_name': 'de Wet', 'id': 633}, 'first_author': True, 'id': 873}, {'author': {'first_name': 'Fanie', 'initials': 'FR', 'last_name': 'Van Heerden', 'id': 634}, 'first_author': False, 'id': 874}, {'author': {'first_name': 'Ben-Erik', 'initials': 'B', 'last_name': 'van Wyk', 'id': 635}, 'first_author': False, 'id': 875}], 'id': 298}]

>  <classifications>  (280) 
[{'classification': 'Alkaloid', 'id': 738}, {'classification': 'Aporphine', 'id': 743}, {'classification': 'Proaporphines (Classyfire)', 'id': 977}]

>  <molecular_mass>  (280) 
283.32

$$$$
SANC00383_minRM1.pdb
     RDKit          3D

 86 93  0  0  1  0  0  0  0  0999 V2000
   -3.2580    0.6260    2.2670 H   0  0  0  0  0  0  0  0  0  0  0  0
   -3.7800    1.1920    1.4490 C   0  0  1  0  0  0  0  0  0  0  0  0
   -2.9150    2.4220    1.0850 C   0  0  0  0  0  0  0  0  0  0  0  0
   -1.4630    2.0740    1.1220 C   0  0  0  0  0  0  0  0  0  0  0  0
   -0.7570    2.2040    2.3170 C   0  0  0  0  0  0  0  0  0  0  0  0
    0.5870    1.8740    2.3820 C   0  0  0  0  0  0  0  0  0  0  0  0
    1.2130    1.3900    1.2300 C   0  0  0  0  0  0  0  0  0  0  0  0
    0.5330    1.2620    0.0260 C   0  0  0  0  0  0  0  0  0  0  0  0
   -0.8110    1.6170   -0.0170 C   0  0  0  0  0  0  0  0  0  0  0  0
    2.5070    0.9830    1.4420 O   0  0  0  0  0  0  0  0  0  0  0  0
    3.3160    0.7930    0.3600 C   0  0  0  0  0  0  0  0  0  0  0  0
    3.5920    1.8550   -0.5010 C   0  0  0  0  0  0  0  0  0  0  0  0
    2.8400    2.9950   -0.4520 O   0  0  0  0  0  0  0  0  0  0  0  0
    3.4670    4.0060    0.3130 C   0  0  0  0  0  0  0  0  0  0  0  0
    4.5880    1.7180   -1.4730 C   0  0  0  0  0  0  0  0  0  0  0  0
    4.7620    2.8250   -2.2410 O   0  0  0  0  0  0  0  0  0  0  0  0
    5.7620    2.7540   -3.2390 C   0  0  0  0  0  0  0  0  0  0  0  0
    5.3180    0.5370   -1.5550 C   0  0  0  0  0  0  0  0  0  0  0  0
    5.0260   -0.5070   -0.6840 C   0  0  0  0  0  0  0  0  0  0  0  0
    5.8720   -1.7350   -0.6740 C   0  0  0  0  0  0  0  0  0  0  0  0
    6.1010   -2.1070    0.7960 C   0  0  0  0  0  0  0  0  0  0  0  0
    4.8080   -2.5310    1.3780 N   0  0  0  0  0  0  0  0  0  0  0  0
    4.9280   -2.8180    2.8240 C   0  0  0  0  0  0  0  0  0  0  0  0
    3.6440   -1.6340    1.0750 C   0  0  2  0  0  0  0  0  0  0  0  0
    3.1700   -1.2840    2.0370 H   0  0  0  0  0  0  0  0  0  0  0  0
    2.6470   -2.5310    0.2900 C   0  0  0  0  0  0  0  0  0  0  0  0
    1.2010   -2.2970    0.5850 C   0  0  0  0  0  0  0  0  0  0  0  0
    0.7730   -1.5020    1.6410 C   0  0  0  0  0  0  0  0  0  0  0  0
   -0.5720   -1.1960    1.8060 C   0  0  0  0  0  0  0  0  0  0  0  0
   -1.4840   -1.7680    0.9310 C   0  0  0  0  0  0  0  0  0  0  0  0
   -2.8160   -1.4780    1.1110 O   0  0  0  0  0  0  0  0  0  0  0  0
   -3.4080   -0.8970    0.0200 C   0  0  0  0  0  0  0  0  0  0  0  0
   -3.5420   -1.5450   -1.2040 C   0  0  0  0  0  0  0  0  0  0  0  0
   -2.8290   -2.6010   -1.6910 O   0  0  0  0  0  0  0  0  0  0  0  0
   -2.1690   -3.4300   -0.7700 C   0  0  0  0  0  0  0  0  0  0  0  0
   -1.0980   -2.6940   -0.0350 C   0  0  0  0  0  0  0  0  0  0  0  0
    0.2540   -2.9260   -0.2300 C   0  0  0  0  0  0  0  0  0  0  0  0
   -4.4430   -1.0160   -2.1590 C   0  0  0  0  0  0  0  0  0  0  0  0
   -4.5340   -1.7720   -3.2890 O   0  0  0  0  0  0  0  0  0  0  0  0
   -5.4810   -1.3700   -4.2480 C   0  0  0  0  0  0  0  0  0  0  0  0
   -5.1390    0.1560   -1.9070 C   0  0  0  0  0  0  0  0  0  0  0  0
   -4.8990    0.8440   -0.7170 C   0  0  0  0  0  0  0  0  0  0  0  0
   -5.5670    2.1550   -0.4820 C   0  0  0  0  0  0  0  0  0  0  0  0
   -5.8450    2.4540    1.0040 C   0  0  0  0  0  0  0  0  0  0  0  0
   -5.0930    1.6510    1.9990 N   0  0  0  0  0  0  0  0  0  0  0  0
   -5.8850    0.4930    2.4780 C   0  0  0  0  0  0  0  0  0  0  0  0
   -4.0120    0.3510    0.2280 C   0  0  0  0  0  0  0  0  0  0  0  0
    3.9920   -0.4300    0.2400 C   0  0  0  0  0  0  0  0  0  0  0  0
   -3.1830    2.8380    0.0910 H   0  0  0  0  0  0  0  0  0  0  0  0
   -3.1190    3.2590    1.7890 H   0  0  0  0  0  0  0  0  0  0  0  0
   -1.2650    2.5600    3.2230 H   0  0  0  0  0  0  0  0  0  0  0  0
    1.1410    1.9720    3.3220 H   0  0  0  0  0  0  0  0  0  0  0  0
    1.0450    0.9310   -0.8850 H   0  0  0  0  0  0  0  0  0  0  0  0
   -1.3540    1.5340   -0.9650 H   0  0  0  0  0  0  0  0  0  0  0  0
    2.7750    4.8560    0.2250 H   0  0  0  0  0  0  0  0  0  0  0  0
    3.5590    3.7270    1.3740 H   0  0  0  0  0  0  0  0  0  0  0  0
    4.4540    4.3050   -0.0540 H   0  0  0  0  0  0  0  0  0  0  0  0
    5.5790    1.9650   -3.9940 H   0  0  0  0  0  0  0  0  0  0  0  0
    5.6740    3.7400   -3.7310 H   0  0  0  0  0  0  0  0  0  0  0  0
    6.7800    2.6540   -2.8200 H   0  0  0  0  0  0  0  0  0  0  0  0
    6.1210    0.4100   -2.2790 H   0  0  0  0  0  0  0  0  0  0  0  0
    5.3780   -2.5570   -1.2370 H   0  0  0  0  0  0  0  0  0  0  0  0
    6.8480   -1.5880   -1.1860 H   0  0  0  0  0  0  0  0  0  0  0  0
    6.8080   -2.9650    0.8740 H   0  0  0  0  0  0  0  0  0  0  0  0
    6.5990   -1.2670    1.3350 H   0  0  0  0  0  0  0  0  0  0  0  0
    5.1330   -1.9500    3.4810 H   0  0  0  0  0  0  0  0  0  0  0  0
    3.9970   -3.2880    3.1810 H   0  0  0  0  0  0  0  0  0  0  0  0
    5.7330   -3.5530    3.0000 H   0  0  0  0  0  0  0  0  0  0  0  0
    2.8280   -2.4210   -0.8020 H   0  0  0  0  0  0  0  0  0  0  0  0
    2.8520   -3.6090    0.4890 H   0  0  0  0  0  0  0  0  0  0  0  0
    1.4980   -1.1020    2.3610 H   0  0  0  0  0  0  0  0  0  0  0  0
   -0.9020   -0.5080    2.5900 H   0  0  0  0  0  0  0  0  0  0  0  0
   -2.8740   -3.9120   -0.0530 H   0  0  0  0  0  0  0  0  0  0  0  0
   -1.7760   -4.2400   -1.4170 H   0  0  0  0  0  0  0  0  0  0  0  0
    0.5800   -3.6140   -1.0140 H   0  0  0  0  0  0  0  0  0  0  0  0
   -6.5170   -1.3620   -3.8690 H   0  0  0  0  0  0  0  0  0  0  0  0
   -5.2470   -0.3960   -4.7050 H   0  0  0  0  0  0  0  0  0  0  0  0
   -5.3840   -2.1580   -5.0190 H   0  0  0  0  0  0  0  0  0  0  0  0
   -5.8520    0.5660   -2.6250 H   0  0  0  0  0  0  0  0  0  0  0  0
   -4.9160    2.9490   -0.9160 H   0  0  0  0  0  0  0  0  0  0  0  0
   -6.5130    2.2340   -1.0570 H   0  0  0  0  0  0  0  0  0  0  0  0
   -5.5930    3.5160    1.2220 H   0  0  0  0  0  0  0  0  0  0  0  0
   -6.9370    2.3900    1.1980 H   0  0  0  0  0  0  0  0  0  0  0  0
   -6.2280   -0.2120    1.6990 H   0  0  0  0  0  0  0  0  0  0  0  0
   -5.3060   -0.0960    3.2070 H   0  0  0  0  0  0  0  0  0  0  0  0
   -6.7850    0.8500    3.0090 H   0  0  0  0  0  0  0  0  0  0  0  0
  2  1  1  1
  2 47  1  0
  2  3  1  0
  2 45  1  0
  3 49  1  0
  3  4  1  0
  3 50  1  0
  4  9  2  0
  4  5  1  0
  5  6  2  0
  5 51  1  0
  6  7  1  0
  6 52  1  0
  7  8  2  0
  7 10  1  0
  8 53  1  0
  8  9  1  0
  9 54  1  0
 10 11  1  0
 11 12  2  0
 11 48  1  0
 12 15  1  0
 12 13  1  0
 13 14  1  0
 14 57  1  0
 14 55  1  0
 14 56  1  0
 15 16  1  0
 15 18  2  0
 16 17  1  0
 17 58  1  0
 17 59  1  0
 17 60  1  0
 18 61  1  0
 18 19  1  0
 19 20  1  0
 19 48  2  0
 20 62  1  0
 20 63  1  0
 20 21  1  0
 21 64  1  0
 21 65  1  0
 21 22  1  0
 22 24  1  0
 22 23  1  0
 23 68  1  0
 23 67  1  0
 23 66  1  0
 24 48  1  0
 24 26  1  0
 24 25  1  1
 26 69  1  0
 26 70  1  0
 26 27  1  0
 27 37  2  0
 27 28  1  0
 28 29  2  0
 28 71  1  0
 29 30  1  0
 29 72  1  0
 30 36  2  0
 30 31  1  0
 31 32  1  0
 32 33  2  0
 32 47  1  0
 33 38  1  0
 33 34  1  0
 34 35  1  0
 35 74  1  0
 35 73  1  0
 35 36  1  0
 36 37  1  0
 37 75  1  0
 38 39  1  0
 38 41  2  0
 39 40  1  0
 40 78  1  0
 40 77  1  0
 40 76  1  0
 41 79  1  0
 41 42  1  0
 42 43  1  0
 42 47  2  0
 43 81  1  0
 43 80  1  0
 43 44  1  0
 44 83  1  0
 44 82  1  0
 44 45  1  0
 45 46  1  0
 46 84  1  0
 46 86  1  0
 46 85  1  0
M  END
>  <id>  (281) 
383

>  <scaffolds>  (281) 
['c1ccccc1', 'c1ccc(CCc2ccccc2)cc1', 'c1cc2c3c(c1)Oc1ccc(cc1)CC1NCCc4ccc5c(c41)Oc1ccc(cc1CO5)CC3NCC2', 'c1cc2c3c(c1)Oc1ccc(cc1)CC1NCCc4cccc(c41)Oc1ccc(cc1)CC3NCC2', 'c1ccc(CC2NCCc3ccccc32)cc1']

>  <name>  (281) 
Insularine

>  <formula>  (281) 
C38H40N2O6

>  <SMILES>  (281) 
[H][C@]46Cc1ccc(cc1)Oc8c(OC)c(OC)cc7CCN(C)[C@]([H])(Cc3ccc2Oc5c(OCc2c3)c(OC)cc(CCN4C)c56)c78

>  <ChEMBL_id>  (281) 


>  <ZINC_id>  (281) 


>  <PubChem_id>  (281) 
 10348927

>  <DrugBank_id>  (281) 


>  <CAS_no>  (281) 
549-07-5

>  <references>  (281) 
[{'journal': {'name': 'Molecules', 'id': 25}, 'title': 'Alkaloidal Variation in Cissampelos Capensis (Menispermaceae)', 'year': 2011, 'start_page': 3001, 'volume': 16, 'issue': None, 'doi': '10.3390/molecules16043001', 'isbn': '', 'despositor': {'code': 'DLP', 'first_name': 'David', 'last_name': 'Penkler', 'id': 23}, 'refauthors_set': [{'author': {'first_name': 'Helene', 'initials': 'H', 'last_name': 'de Wet', 'id': 633}, 'first_author': True, 'id': 873}, {'author': {'first_name': 'Fanie', 'initials': 'FR', 'last_name': 'Van Heerden', 'id': 634}, 'first_author': False, 'id': 874}, {'author': {'first_name': 'Ben-Erik', 'initials': 'B', 'last_name': 'van Wyk', 'id': 635}, 'first_author': False, 'id': 875}], 'id': 298}]

>  <classifications>  (281) 
[{'classification': 'Alkaloid', 'id': 738}, {'classification': 'Insularine', 'id': 787}, {'classification': 'Organooxygen compounds (Classyfire)', 'id': 954}]

>  <molecular_mass>  (281) 
620.73

$$$$
SANC00384_minRM1.pdb
     RDKit          3D

 85 91  0  0  1  0  0  0  0  0999 V2000
    3.2730   -2.9120    1.5370 H   0  0  0  0  0  0  0  0  0  0  0  0
    3.6190   -2.8160    0.4650 C   0  0  2  0  0  0  0  0  0  0  0  0
    2.5080   -3.3030   -0.4990 C   0  0  0  0  0  0  0  0  0  0  0  0
    1.1520   -2.8640   -0.0620 C   0  0  0  0  0  0  0  0  0  0  0  0
    0.2340   -2.3920   -0.9940 C   0  0  0  0  0  0  0  0  0  0  0  0
   -1.0220   -1.9500   -0.5940 C   0  0  0  0  0  0  0  0  0  0  0  0
   -1.3260   -1.9630    0.7620 C   0  0  0  0  0  0  0  0  0  0  0  0
   -0.4540   -2.5130    1.7080 C   0  0  0  0  0  0  0  0  0  0  0  0
    0.7780   -2.9710    1.2780 C   0  0  0  0  0  0  0  0  0  0  0  0
   -2.4340   -1.3770    1.3170 O   0  0  0  0  0  0  0  0  0  0  0  0
   -3.4990   -1.1360    0.4920 C   0  0  0  0  0  0  0  0  0  0  0  0
   -4.2640   -2.2100    0.0370 C   0  0  0  0  0  0  0  0  0  0  0  0
   -3.7280   -3.4500    0.1510 O   0  0  0  0  0  0  0  0  0  0  0  0
   -5.4920   -1.9530   -0.5970 C   0  0  0  0  0  0  0  0  0  0  0  0
   -6.1370   -3.0810   -1.0120 O   0  0  0  0  0  0  0  0  0  0  0  0
   -7.4320   -2.9210   -1.5340 C   0  0  0  0  0  0  0  0  0  0  0  0
   -5.9580   -0.6490   -0.7190 C   0  0  0  0  0  0  0  0  0  0  0  0
   -5.1590    0.4030   -0.2770 C   0  0  0  0  0  0  0  0  0  0  0  0
   -5.6550    1.8060   -0.3390 C   0  0  0  0  0  0  0  0  0  0  0  0
   -5.1220    2.5540    0.8870 C   0  0  0  0  0  0  0  0  0  0  0  0
   -3.6440    2.6430    0.7950 N   0  0  0  0  0  0  0  0  0  0  0  0
   -3.0810    3.3130    1.9920 C   0  0  0  0  0  0  0  0  0  0  0  0
   -2.9660    1.3350    0.5310 C   0  0  2  0  0  0  0  0  0  0  0  0
   -2.2710    1.0580    1.3740 H   0  0  0  0  0  0  0  0  0  0  0  0
   -2.1310    1.5330   -0.7630 C   0  0  0  0  0  0  0  0  0  0  0  0
   -0.8980    2.3190   -0.4700 C   0  0  0  0  0  0  0  0  0  0  0  0
   -0.8570    3.6840   -0.7210 C   0  0  0  0  0  0  0  0  0  0  0  0
    0.2840    4.4290   -0.4380 C   0  0  0  0  0  0  0  0  0  0  0  0
    1.3940    3.7970    0.1180 C   0  0  0  0  0  0  0  0  0  0  0  0
    2.5520    4.4070    0.4920 O   0  0  0  0  0  0  0  0  0  0  0  0
    2.6650    5.7780    0.2050 C   0  0  0  0  0  0  0  0  0  0  0  0
    1.3510    2.4130    0.3660 C   0  0  0  0  0  0  0  0  0  0  0  0
    0.2170    1.6740    0.0670 C   0  0  0  0  0  0  0  0  0  0  0  0
    2.3870    1.8550    1.0740 O   0  0  0  0  0  0  0  0  0  0  0  0
    3.1270    0.9240    0.3850 C   0  0  0  0  0  0  0  0  0  0  0  0
    2.9390   -0.4220    0.6620 C   0  0  0  0  0  0  0  0  0  0  0  0
    3.8690   -1.3570    0.2000 C   0  0  0  0  0  0  0  0  0  0  0  0
    4.9990   -0.9190   -0.4810 C   0  0  0  0  0  0  0  0  0  0  0  0
    5.1460    0.4200   -0.8440 C   0  0  0  0  0  0  0  0  0  0  0  0
    4.1910    1.3420   -0.4340 C   0  0  0  0  0  0  0  0  0  0  0  0
    4.1690    2.6610   -0.7660 O   0  0  0  0  0  0  0  0  0  0  0  0
    5.3600    3.2010   -1.2820 C   0  0  0  0  0  0  0  0  0  0  0  0
    6.0900   -1.8850   -0.7830 C   0  0  0  0  0  0  0  0  0  0  0  0
    6.0940   -2.9740    0.2940 C   0  0  0  0  0  0  0  0  0  0  0  0
    4.8030   -3.6990    0.2030 N   0  0  0  0  0  0  0  0  0  0  0  0
    4.7940   -4.8700    1.1160 C   0  0  0  0  0  0  0  0  0  0  0  0
   -3.8980    0.1850    0.2670 C   0  0  0  0  0  0  0  0  0  0  0  0
    2.7420   -2.9580   -1.5290 H   0  0  0  0  0  0  0  0  0  0  0  0
    2.4980   -4.4120   -0.5860 H   0  0  0  0  0  0  0  0  0  0  0  0
    0.4930   -2.3570   -2.0560 H   0  0  0  0  0  0  0  0  0  0  0  0
   -1.7500   -1.6150   -1.3370 H   0  0  0  0  0  0  0  0  0  0  0  0
   -0.7400   -2.5710    2.7630 H   0  0  0  0  0  0  0  0  0  0  0  0
    1.4710   -3.4120    2.0040 H   0  0  0  0  0  0  0  0  0  0  0  0
   -4.4290   -4.0430    0.4600 H   0  0  0  0  0  0  0  0  0  0  0  0
   -7.7410   -3.9520   -1.7700 H   0  0  0  0  0  0  0  0  0  0  0  0
   -8.1440   -2.4890   -0.8110 H   0  0  0  0  0  0  0  0  0  0  0  0
   -7.4550   -2.3280   -2.4640 H   0  0  0  0  0  0  0  0  0  0  0  0
   -6.9330   -0.4250   -1.1610 H   0  0  0  0  0  0  0  0  0  0  0  0
   -5.3300    2.2910   -1.2850 H   0  0  0  0  0  0  0  0  0  0  0  0
   -6.7640    1.8550   -0.3590 H   0  0  0  0  0  0  0  0  0  0  0  0
   -5.5260    3.5920    0.9120 H   0  0  0  0  0  0  0  0  0  0  0  0
   -5.5010    2.0730    1.8220 H   0  0  0  0  0  0  0  0  0  0  0  0
   -3.2260    2.7910    2.9570 H   0  0  0  0  0  0  0  0  0  0  0  0
   -1.9940    3.4610    1.8580 H   0  0  0  0  0  0  0  0  0  0  0  0
   -3.5210    4.3190    2.1040 H   0  0  0  0  0  0  0  0  0  0  0  0
   -1.8560    0.5490   -1.1980 H   0  0  0  0  0  0  0  0  0  0  0  0
   -2.7460    2.0140   -1.5530 H   0  0  0  0  0  0  0  0  0  0  0  0
   -1.7350    4.1900   -1.1360 H   0  0  0  0  0  0  0  0  0  0  0  0
    0.2740    5.4990   -0.6580 H   0  0  0  0  0  0  0  0  0  0  0  0
    3.6850    6.0270    0.5330 H   0  0  0  0  0  0  0  0  0  0  0  0
    2.5780    6.0160   -0.8700 H   0  0  0  0  0  0  0  0  0  0  0  0
    1.9490    6.4010    0.7700 H   0  0  0  0  0  0  0  0  0  0  0  0
    0.1970    0.5960    0.2590 H   0  0  0  0  0  0  0  0  0  0  0  0
    2.0820   -0.7300    1.2720 H   0  0  0  0  0  0  0  0  0  0  0  0
    6.0190    0.7160   -1.4280 H   0  0  0  0  0  0  0  0  0  0  0  0
    5.1540    4.2810   -1.3300 H   0  0  0  0  0  0  0  0  0  0  0  0
    6.2380    3.0420   -0.6350 H   0  0  0  0  0  0  0  0  0  0  0  0
    5.5920    2.8370   -2.2970 H   0  0  0  0  0  0  0  0  0  0  0  0
    5.9580   -2.3180   -1.7970 H   0  0  0  0  0  0  0  0  0  0  0  0
    7.0830   -1.3870   -0.8100 H   0  0  0  0  0  0  0  0  0  0  0  0
    6.9270   -3.6920    0.1180 H   0  0  0  0  0  0  0  0  0  0  0  0
    6.3060   -2.5310    1.2980 H   0  0  0  0  0  0  0  0  0  0  0  0
    4.9590   -4.6530    2.1890 H   0  0  0  0  0  0  0  0  0  0  0  0
    3.8350   -5.4130    1.0470 H   0  0  0  0  0  0  0  0  0  0  0  0
    5.5760   -5.5860    0.8090 H   0  0  0  0  0  0  0  0  0  0  0  0
  2  1  1  1
  2  3  1  0
  2 37  1  0
  2 45  1  0
  3 48  1  0
  3 49  1  0
  3  4  1  0
  4  5  2  0
  4  9  1  0
  5 50  1  0
  5  6  1  0
  6 51  1  0
  6  7  2  0
  7 10  1  0
  7  8  1  0
  8  9  2  0
  8 52  1  0
  9 53  1  0
 10 11  1  0
 11 12  2  0
 11 47  1  0
 12 14  1  0
 12 13  1  0
 13 54  1  0
 14 15  1  0
 14 17  2  0
 15 16  1  0
 16 57  1  0
 16 55  1  0
 16 56  1  0
 17 58  1  0
 17 18  1  0
 18 19  1  0
 18 47  2  0
 19 59  1  0
 19 60  1  0
 19 20  1  0
 20 21  1  0
 20 61  1  0
 20 62  1  0
 21 23  1  0
 21 22  1  0
 22 64  1  0
 22 65  1  0
 22 63  1  0
 23 25  1  0
 23 47  1  0
 23 24  1  1
 25 67  1  0
 25 66  1  0
 25 26  1  0
 26 27  2  0
 26 33  1  0
 27 68  1  0
 27 28  1  0
 28 69  1  0
 28 29  2  0
 29 32  1  0
 29 30  1  0
 30 31  1  0
 31 71  1  0
 31 70  1  0
 31 72  1  0
 32 33  2  0
 32 34  1  0
 33 73  1  0
 34 35  1  0
 35 40  2  0
 35 36  1  0
 36 37  2  0
 36 74  1  0
 37 38  1  0
 38 39  2  0
 38 43  1  0
 39 75  1  0
 39 40  1  0
 40 41  1  0
 41 42  1  0
 42 78  1  0
 42 76  1  0
 42 77  1  0
 43 79  1  0
 43 80  1  0
 43 44  1  0
 44 81  1  0
 44 45  1  0
 44 82  1  0
 45 46  1  0
 46 85  1  0
 46 84  1  0
 46 83  1  0
M  END
>  <id>  (282) 
384

>  <scaffolds>  (282) 
['c1ccccc1', 'c1ccc(CCc2ccccc2)cc1', 'c1cc2cc(c1)Oc1ccc3c(c1)C(Cc1ccc(cc1)Oc1cccc4c1C(C2)NCC4)NCC3', 'c1ccc(CC2NCCc3ccccc32)cc1']

>  <name>  (282) 
12-O-Methylcurine

>  <formula>  (282) 
C37H40N2O6

>  <SMILES>  (282) 
[H][C@@]35Cc1ccc(cc1)Oc7c(O)c(OC)cc6CCN(C)[C@]([H])(Cc2ccc(OC)c(c2)Oc4cc3c(cc4OC)CCN5C)c67

>  <ChEMBL_id>  (282) 


>  <ZINC_id>  (282) 


>  <PubChem_id>  (282) 
 10393930

>  <DrugBank_id>  (282) 


>  <CAS_no>  (282) 
59685-16-4

>  <references>  (282) 
[{'journal': {'name': 'Molecules', 'id': 25}, 'title': 'Alkaloidal Variation in Cissampelos Capensis (Menispermaceae)', 'year': 2011, 'start_page': 3001, 'volume': 16, 'issue': None, 'doi': '10.3390/molecules16043001', 'isbn': '', 'despositor': {'code': 'DLP', 'first_name': 'David', 'last_name': 'Penkler', 'id': 23}, 'refauthors_set': [{'author': {'first_name': 'Helene', 'initials': 'H', 'last_name': 'de Wet', 'id': 633}, 'first_author': True, 'id': 873}, {'author': {'first_name': 'Fanie', 'initials': 'FR', 'last_name': 'Van Heerden', 'id': 634}, 'first_author': False, 'id': 874}, {'author': {'first_name': 'Ben-Erik', 'initials': 'B', 'last_name': 'van Wyk', 'id': 635}, 'first_author': False, 'id': 875}], 'id': 298}]

>  <classifications>  (282) 
[{'classification': 'Alkaloid', 'id': 738}, {'classification': 'Bisbenzylisoquinoline', 'id': 748}, {'classification': 'Organooxygen compounds (Classyfire)', 'id': 954}]

>  <molecular_mass>  (282) 
608.72

$$$$
SANC00385_minRM1.pdb
     RDKit          3D

 47 49  0  0  1  0  0  0  0  0999 V2000
    3.1600    3.8700   -0.8550 C   0  0  0  0  0  0  0  0  0  0  0  0
    3.5450    2.5240   -0.9670 O   0  0  0  0  0  0  0  0  0  0  0  0
    2.8150    1.6070   -0.2600 C   0  0  0  0  0  0  0  0  0  0  0  0
    1.8080    1.9000    0.6520 C   0  0  0  0  0  0  0  0  0  0  0  0
    1.1690    0.8580    1.3160 C   0  0  0  0  0  0  0  0  0  0  0  0
    1.5310   -0.4640    1.0860 C   0  0  0  0  0  0  0  0  0  0  0  0
    0.8580   -1.5640    1.8360 C   0  0  0  0  0  0  0  0  0  0  0  0
   -0.2810   -2.1980    1.0040 C   0  0  1  0  0  0  0  0  0  0  0  0
   -0.8660   -2.8990    1.6730 H   0  0  0  0  0  0  0  0  0  0  0  0
   -1.2470   -1.1350    0.5600 C   0  0  0  0  0  0  0  0  0  0  0  0
   -1.9220   -0.4160    1.5460 C   0  0  0  0  0  0  0  0  0  0  0  0
   -2.8150    0.5850    1.1790 C   0  0  0  0  0  0  0  0  0  0  0  0
   -3.4530    1.2030    2.2050 O   0  0  0  0  0  0  0  0  0  0  0  0
   -3.0420    0.8680   -0.1830 C   0  0  0  0  0  0  0  0  0  0  0  0
   -3.9260    1.8870   -0.4040 O   0  0  0  0  0  0  0  0  0  0  0  0
   -4.2420    2.1860   -1.7390 C   0  0  0  0  0  0  0  0  0  0  0  0
   -2.3850    0.1380   -1.1600 C   0  0  0  0  0  0  0  0  0  0  0  0
   -1.4970   -0.8700   -0.7810 C   0  0  0  0  0  0  0  0  0  0  0  0
   -0.8130   -1.6700   -1.8340 C   0  0  0  0  0  0  0  0  0  0  0  0
   -0.5230   -3.0730   -1.3000 C   0  0  0  0  0  0  0  0  0  0  0  0
    0.3720   -2.9310   -0.1240 N   0  0  0  0  0  0  0  0  0  0  0  0
    0.8460   -4.2610    0.3350 C   0  0  0  0  0  0  0  0  0  0  0  0
    2.5290   -0.7680    0.1630 C   0  0  0  0  0  0  0  0  0  0  0  0
    3.1670    0.2690   -0.5160 C   0  0  0  0  0  0  0  0  0  0  0  0
    4.1600   -0.1070   -1.3630 O   0  0  0  0  0  0  0  0  0  0  0  0
    3.3140    4.2770    0.1610 H   0  0  0  0  0  0  0  0  0  0  0  0
    3.8400    4.3890   -1.5530 H   0  0  0  0  0  0  0  0  0  0  0  0
    2.1210    4.0600   -1.1720 H   0  0  0  0  0  0  0  0  0  0  0  0
    1.5020    2.9260    0.8730 H   0  0  0  0  0  0  0  0  0  0  0  0
    0.3660    1.0940    2.0210 H   0  0  0  0  0  0  0  0  0  0  0  0
    1.6020   -2.3370    2.1310 H   0  0  0  0  0  0  0  0  0  0  0  0
    0.4650   -1.2040    2.8100 H   0  0  0  0  0  0  0  0  0  0  0  0
   -1.7730   -0.6330    2.6090 H   0  0  0  0  0  0  0  0  0  0  0  0
   -3.8350    2.0300    1.8950 H   0  0  0  0  0  0  0  0  0  0  0  0
   -4.9820    2.9970   -1.6460 H   0  0  0  0  0  0  0  0  0  0  0  0
   -3.3790    2.5540   -2.3150 H   0  0  0  0  0  0  0  0  0  0  0  0
   -4.7080    1.3440   -2.2740 H   0  0  0  0  0  0  0  0  0  0  0  0
   -2.5440    0.3300   -2.2240 H   0  0  0  0  0  0  0  0  0  0  0  0
   -1.4220   -1.7430   -2.7580 H   0  0  0  0  0  0  0  0  0  0  0  0
    0.1220   -1.1590   -2.1440 H   0  0  0  0  0  0  0  0  0  0  0  0
   -1.4770   -3.6170   -1.0910 H   0  0  0  0  0  0  0  0  0  0  0  0
   -0.0090   -3.6830   -2.0780 H   0  0  0  0  0  0  0  0  0  0  0  0
    1.4950   -4.7060   -0.4390 H   0  0  0  0  0  0  0  0  0  0  0  0
    1.4680   -4.1600    1.2450 H   0  0  0  0  0  0  0  0  0  0  0  0
    0.0570   -5.0040    0.5680 H   0  0  0  0  0  0  0  0  0  0  0  0
    2.8130   -1.8060   -0.0360 H   0  0  0  0  0  0  0  0  0  0  0  0
    4.3100    0.5970   -2.0030 H   0  0  0  0  0  0  0  0  0  0  0  0
  1 27  1  0
  1 28  1  0
  1  2  1  0
  1 26  1  0
  2  3  1  0
  3 24  2  0
  3  4  1  0
  4 29  1  0
  4  5  2  0
  5  6  1  0
  5 30  1  0
  6 23  2  0
  6  7  1  0
  7  8  1  0
  7 31  1  0
  7 32  1  0
  8 21  1  0
  8 10  1  0
  8  9  1  1
 10 18  2  0
 10 11  1  0
 11 12  2  0
 11 33  1  0
 12 14  1  0
 12 13  1  0
 13 34  1  0
 14 17  2  0
 14 15  1  0
 15 16  1  0
 16 36  1  0
 16 37  1  0
 16 35  1  0
 17 38  1  0
 17 18  1  0
 18 19  1  0
 19 39  1  0
 19 40  1  0
 19 20  1  0
 20 42  1  0
 20 41  1  0
 20 21  1  0
 21 22  1  0
 22 43  1  0
 22 45  1  0
 22 44  1  0
 23 24  1  0
 23 46  1  0
 24 25  1  0
 25 47  1  0
M  END
>  <id>  (283) 
385

>  <scaffolds>  (283) 
['c1ccccc1', 'c1ccc(CCc2ccccc2)cc1', 'c1ccc(CC2NCCc3ccccc32)cc1']

>  <name>  (283) 
Reticuline

>  <formula>  (283) 
C19H23NO4

>  <SMILES>  (283) 
COc3ccc(C[C@H]2c1cc(O)c(OC)cc1CCN2C)cc3O

>  <ChEMBL_id>  (283) 
CHEMBL235212

>  <ZINC_id>  (283) 


>  <PubChem_id>  (283) 
439653

>  <DrugBank_id>  (283) 


>  <CAS_no>  (283) 
485-19-8

>  <references>  (283) 
[{'journal': {'name': 'Molecules', 'id': 25}, 'title': 'Alkaloidal Variation in Cissampelos Capensis (Menispermaceae)', 'year': 2011, 'start_page': 3001, 'volume': 16, 'issue': None, 'doi': '10.3390/molecules16043001', 'isbn': '', 'despositor': {'code': 'DLP', 'first_name': 'David', 'last_name': 'Penkler', 'id': 23}, 'refauthors_set': [{'author': {'first_name': 'Helene', 'initials': 'H', 'last_name': 'de Wet', 'id': 633}, 'first_author': True, 'id': 873}, {'author': {'first_name': 'Fanie', 'initials': 'FR', 'last_name': 'Van Heerden', 'id': 634}, 'first_author': False, 'id': 874}, {'author': {'first_name': 'Ben-Erik', 'initials': 'B', 'last_name': 'van Wyk', 'id': 635}, 'first_author': False, 'id': 875}], 'id': 298}]

>  <classifications>  (283) 
[{'classification': 'Alkaloid', 'id': 738}, {'classification': 'Benzyltetrahydro-isoquinoline', 'id': 746}, {'classification': 'Isoquinolines and derivatives (Classyfire)', 'id': 979}]

>  <molecular_mass>  (283) 
329.39

$$$$
SANC00386_minRM1.pdb
     RDKit          3D

 83 90  0  0  1  0  0  0  0  0999 V2000
   -3.1560    0.6550    2.2740 H   0  0  0  0  0  0  0  0  0  0  0  0
   -3.7050    1.2090    1.4660 C   0  0  1  0  0  0  0  0  0  0  0  0
   -2.8710    2.4570    1.0810 C   0  0  0  0  0  0  0  0  0  0  0  0
   -1.4120    2.1400    1.1180 C   0  0  0  0  0  0  0  0  0  0  0  0
   -0.7170    2.2530    2.3240 C   0  0  0  0  0  0  0  0  0  0  0  0
    0.6330    1.9500    2.3900 C   0  0  0  0  0  0  0  0  0  0  0  0
    1.2720    1.4930    1.2340 C   0  0  0  0  0  0  0  0  0  0  0  0
    0.6130    1.4130    0.0120 C   0  0  0  0  0  0  0  0  0  0  0  0
   -0.7380    1.7440   -0.0330 C   0  0  0  0  0  0  0  0  0  0  0  0
    2.5700    1.0940    1.4510 O   0  0  0  0  0  0  0  0  0  0  0  0
    3.3980    0.9520    0.3730 C   0  0  0  0  0  0  0  0  0  0  0  0
    3.6710    2.0480   -0.4510 C   0  0  0  0  0  0  0  0  0  0  0  0
    2.8950    3.1480   -0.3110 O   0  0  0  0  0  0  0  0  0  0  0  0
    4.6690    1.9350   -1.4370 C   0  0  0  0  0  0  0  0  0  0  0  0
    4.7870    3.0410   -2.2340 O   0  0  0  0  0  0  0  0  0  0  0  0
    5.9240    3.1080   -3.0630 C   0  0  0  0  0  0  0  0  0  0  0  0
    5.4370    0.7830   -1.5260 C   0  0  0  0  0  0  0  0  0  0  0  0
    5.1650   -0.2750   -0.6590 C   0  0  0  0  0  0  0  0  0  0  0  0
    6.0650   -1.4580   -0.6340 C   0  0  0  0  0  0  0  0  0  0  0  0
    6.2210   -1.8960    0.8200 C   0  0  0  0  0  0  0  0  0  0  0  0
    4.9210   -2.3950    1.2870 N   0  0  0  0  0  0  0  0  0  0  0  0
    4.9800   -2.8160    2.6940 C   0  0  0  0  0  0  0  0  0  0  0  0
    3.7530   -1.4890    1.0190 C   0  0  2  0  0  0  0  0  0  0  0  0
    3.2770   -1.1730    1.9920 H   0  0  0  0  0  0  0  0  0  0  0  0
    2.7580   -2.3570    0.1990 C   0  0  0  0  0  0  0  0  0  0  0  0
    1.3120   -2.1720    0.5280 C   0  0  0  0  0  0  0  0  0  0  0  0
    0.8820   -1.4190    1.6190 C   0  0  0  0  0  0  0  0  0  0  0  0
   -0.4660   -1.1410    1.8040 C   0  0  0  0  0  0  0  0  0  0  0  0
   -1.3760   -1.7170    0.9240 C   0  0  0  0  0  0  0  0  0  0  0  0
   -2.7100   -1.4500    1.1170 O   0  0  0  0  0  0  0  0  0  0  0  0
   -3.3140   -0.8710    0.0290 C   0  0  0  0  0  0  0  0  0  0  0  0
   -3.4550   -1.5280   -1.1890 C   0  0  0  0  0  0  0  0  0  0  0  0
   -2.7510   -2.5840   -1.6720 O   0  0  0  0  0  0  0  0  0  0  0  0
   -2.0530   -3.3920   -0.7580 C   0  0  0  0  0  0  0  0  0  0  0  0
   -0.9840   -2.6300   -0.0520 C   0  0  0  0  0  0  0  0  0  0  0  0
    0.3670   -2.8110   -0.2910 C   0  0  0  0  0  0  0  0  0  0  0  0
   -4.3810   -1.0150   -2.1290 C   0  0  0  0  0  0  0  0  0  0  0  0
   -4.4660   -1.7690   -3.2610 O   0  0  0  0  0  0  0  0  0  0  0  0
   -5.3910   -1.3600   -4.2360 C   0  0  0  0  0  0  0  0  0  0  0  0
   -5.0950    0.1440   -1.8700 C   0  0  0  0  0  0  0  0  0  0  0  0
   -4.8540    0.8350   -0.6810 C   0  0  0  0  0  0  0  0  0  0  0  0
   -5.5220    2.1440   -0.4370 C   0  0  0  0  0  0  0  0  0  0  0  0
   -5.8120    2.4160    1.0510 C   0  0  0  0  0  0  0  0  0  0  0  0
   -5.0150    1.6460    2.0400 N   0  0  0  0  0  0  0  0  0  0  0  0
   -5.7690    0.4760    2.5600 C   0  0  0  0  0  0  0  0  0  0  0  0
   -3.9450    0.3590    0.2510 C   0  0  0  0  0  0  0  0  0  0  0  0
    4.1050   -0.2480    0.2400 C   0  0  0  0  0  0  0  0  0  0  0  0
   -3.1580    2.8570    0.0840 H   0  0  0  0  0  0  0  0  0  0  0  0
   -3.0900    3.2980    1.7770 H   0  0  0  0  0  0  0  0  0  0  0  0
   -1.2390    2.5800    3.2320 H   0  0  0  0  0  0  0  0  0  0  0  0
    1.1810    2.0400    3.3340 H   0  0  0  0  0  0  0  0  0  0  0  0
    1.1260    1.0850   -0.8950 H   0  0  0  0  0  0  0  0  0  0  0  0
   -1.2750    1.6600   -0.9820 H   0  0  0  0  0  0  0  0  0  0  0  0
    3.4500    3.9090   -0.3910 H   0  0  0  0  0  0  0  0  0  0  0  0
    6.8800    3.0500   -2.5080 H   0  0  0  0  0  0  0  0  0  0  0  0
    5.9270    2.3570   -3.8630 H   0  0  0  0  0  0  0  0  0  0  0  0
    5.8430    4.1120   -3.5130 H   0  0  0  0  0  0  0  0  0  0  0  0
    6.2500    0.6920   -2.2490 H   0  0  0  0  0  0  0  0  0  0  0  0
    5.6630   -2.2710   -1.2580 H   0  0  0  0  0  0  0  0  0  0  0  0
    7.0460   -1.2280   -1.0580 H   0  0  0  0  0  0  0  0  0  0  0  0
    6.9600   -2.7250    0.9030 H   0  0  0  0  0  0  0  0  0  0  0  0
    6.6450   -1.0680    1.4260 H   0  0  0  0  0  0  0  0  0  0  0  0
    5.1500   -2.0220    3.4360 H   0  0  0  0  0  0  0  0  0  0  0  0
    4.0390   -3.3110    2.9720 H   0  0  0  0  0  0  0  0  0  0  0  0
    5.7830   -3.5610    2.8390 H   0  0  0  0  0  0  0  0  0  0  0  0
    2.9110   -2.1640   -0.8840 H   0  0  0  0  0  0  0  0  0  0  0  0
    2.9930   -3.4390    0.3100 H   0  0  0  0  0  0  0  0  0  0  0  0
    1.6050   -1.0230    2.3450 H   0  0  0  0  0  0  0  0  0  0  0  0
   -0.8020   -0.4620    2.5940 H   0  0  0  0  0  0  0  0  0  0  0  0
   -2.7390   -3.8830   -0.0330 H   0  0  0  0  0  0  0  0  0  0  0  0
   -1.6500   -4.1830   -1.4300 H   0  0  0  0  0  0  0  0  0  0  0  0
    0.6960   -3.4600   -1.1130 H   0  0  0  0  0  0  0  0  0  0  0  0
   -6.4350   -1.3550   -3.8830 H   0  0  0  0  0  0  0  0  0  0  0  0
   -5.1510   -0.3760   -4.6720 H   0  0  0  0  0  0  0  0  0  0  0  0
   -5.2850   -2.1300   -5.0180 H   0  0  0  0  0  0  0  0  0  0  0  0
   -5.8330    0.5360   -2.5730 H   0  0  0  0  0  0  0  0  0  0  0  0
   -4.8640    2.9430   -0.8520 H   0  0  0  0  0  0  0  0  0  0  0  0
   -6.4640    2.2340   -1.0190 H   0  0  0  0  0  0  0  0  0  0  0  0
   -5.6080    3.4900    1.2750 H   0  0  0  0  0  0  0  0  0  0  0  0
   -6.9050    2.3030    1.2460 H   0  0  0  0  0  0  0  0  0  0  0  0
   -6.1070   -0.2590    1.8070 H   0  0  0  0  0  0  0  0  0  0  0  0
   -5.1600   -0.0810    3.2940 H   0  0  0  0  0  0  0  0  0  0  0  0
   -6.6650    0.8220    3.1020 H   0  0  0  0  0  0  0  0  0  0  0  0
  2  1  1  1
  2 46  1  0
  2  3  1  0
  2 44  1  0
  3 48  1  0
  3  4  1  0
  3 49  1  0
  4  9  2  0
  4  5  1  0
  5  6  2  0
  5 50  1  0
  6  7  1  0
  6 51  1  0
  7  8  2  0
  7 10  1  0
  8 52  1  0
  8  9  1  0
  9 53  1  0
 10 11  1  0
 11 12  2  0
 11 47  1  0
 12 14  1  0
 12 13  1  0
 13 54  1  0
 14 15  1  0
 14 17  2  0
 15 16  1  0
 16 56  1  0
 16 57  1  0
 16 55  1  0
 17 58  1  0
 17 18  1  0
 18 19  1  0
 18 47  2  0
 19 59  1  0
 19 60  1  0
 19 20  1  0
 20 61  1  0
 20 21  1  0
 20 62  1  0
 21 23  1  0
 21 22  1  0
 22 65  1  0
 22 64  1  0
 22 63  1  0
 23 25  1  0
 23 47  1  0
 23 24  1  1
 25 66  1  0
 25 67  1  0
 25 26  1  0
 26 36  2  0
 26 27  1  0
 27 28  2  0
 27 68  1  0
 28 29  1  0
 28 69  1  0
 29 35  2  0
 29 30  1  0
 30 31  1  0
 31 32  2  0
 31 46  1  0
 32 37  1  0
 32 33  1  0
 33 34  1  0
 34 71  1  0
 34 35  1  0
 34 70  1  0
 35 36  1  0
 36 72  1  0
 37 38  1  0
 37 40  2  0
 38 39  1  0
 39 75  1  0
 39 74  1  0
 39 73  1  0
 40 76  1  0
 40 41  1  0
 41 42  1  0
 41 46  2  0
 42 78  1  0
 42 77  1  0
 42 43  1  0
 43 80  1  0
 43 79  1  0
 43 44  1  0
 44 45  1  0
 45 81  1  0
 45 83  1  0
 45 82  1  0
M  END
>  <id>  (284) 
386

>  <scaffolds>  (284) 
['c1ccccc1', 'c1ccc(CCc2ccccc2)cc1', 'c1cc2c3c(c1)Oc1ccc(cc1)CC1NCCc4ccc5c(c41)Oc1ccc(cc1CO5)CC3NCC2', 'c1cc2c3c(c1)Oc1ccc(cc1)CC1NCCc4cccc(c41)Oc1ccc(cc1)CC3NCC2', 'c1ccc(CC2NCCc3ccccc32)cc1']

>  <name>  (284) 
Insulanoline

>  <formula>  (284) 
C37H38N2O6

>  <SMILES>  (284) 
[H][C@]46Cc1ccc(cc1)Oc8c(O)c(OC)cc7CCN(C)[C@]([H])(Cc3ccc2Oc5c(OCc2c3)c(OC)cc(CCN4C)c56)c78

>  <ChEMBL_id>  (284) 


>  <ZINC_id>  (284) 


>  <PubChem_id>  (284) 


>  <DrugBank_id>  (284) 


>  <CAS_no>  (284) 
478-62-6

>  <references>  (284) 
[{'journal': {'name': 'Molecules', 'id': 25}, 'title': 'Alkaloidal Variation in Cissampelos Capensis (Menispermaceae)', 'year': 2011, 'start_page': 3001, 'volume': 16, 'issue': None, 'doi': '10.3390/molecules16043001', 'isbn': '', 'despositor': {'code': 'DLP', 'first_name': 'David', 'last_name': 'Penkler', 'id': 23}, 'refauthors_set': [{'author': {'first_name': 'Helene', 'initials': 'H', 'last_name': 'de Wet', 'id': 633}, 'first_author': True, 'id': 873}, {'author': {'first_name': 'Fanie', 'initials': 'FR', 'last_name': 'Van Heerden', 'id': 634}, 'first_author': False, 'id': 874}, {'author': {'first_name': 'Ben-Erik', 'initials': 'B', 'last_name': 'van Wyk', 'id': 635}, 'first_author': False, 'id': 875}], 'id': 298}]

>  <classifications>  (284) 
[{'classification': 'Alkaloid', 'id': 738}, {'classification': 'Insularine', 'id': 787}, {'classification': 'Isoquinoline', 'id': 790}, {'classification': 'Organooxygen compounds (Classyfire)', 'id': 954}]

>  <molecular_mass>  (284) 
606.71

$$$$
SANC00387_minRM1.pdb
     RDKit          3D

 53 55  0  0  1  0  0  0  0  0999 V2000
    0.7330   -3.0660    0.1010 C   0  0  0  0  0  0  0  0  0  0  0  0
   -0.2410   -1.9610    0.4700 C   0  0  2  0  0  0  0  0  0  0  0  0
   -0.2350   -1.8460    1.5890 H   0  0  0  0  0  0  0  0  0  0  0  0
   -1.6480   -2.3500    0.0800 C   0  0  0  0  0  0  0  0  0  0  0  0
   -1.9140   -3.4050   -0.4620 O   0  0  0  0  0  0  0  0  0  0  0  0
   -2.7150   -1.3490    0.4370 C   0  0  0  0  0  0  0  0  0  0  0  0
   -2.3710   -0.0260   -0.2370 C   0  0  2  0  0  0  0  0  0  0  0  0
   -2.2690   -0.2240   -1.3410 H   0  0  0  0  0  0  0  0  0  0  0  0
   -0.9960    0.4670    0.2560 C   0  0  1  0  0  0  0  0  0  0  0  0
    0.1040   -0.5850   -0.1590 C   0  0  1  0  0  0  0  0  0  0  0  0
    1.4950   -0.0890    0.3130 C   0  0  0  0  0  0  0  0  0  0  0  0
    2.6920   -0.5860   -0.5000 C   0  0  0  0  0  0  0  0  0  0  0  0
    3.9010    0.1560   -0.0940 C   0  0  0  0  0  0  0  0  0  0  0  0
    4.6800    0.9800   -0.8690 C   0  0  0  0  0  0  0  0  0  0  0  0
    5.7170    1.4870   -0.1290 O   0  0  0  0  0  0  0  0  0  0  0  0
    5.5920    0.9720    1.1350 C   0  0  0  0  0  0  0  0  0  0  0  0
    4.4960    0.1490    1.2150 C   0  0  0  0  0  0  0  0  0  0  0  0
    0.0340   -0.6650   -1.5480 O   0  0  0  0  0  0  0  0  0  0  0  0
   -0.7020    1.8150   -0.4130 C   0  0  0  0  0  0  0  0  0  0  0  0
   -1.8030    2.8210   -0.1180 C   0  0  0  0  0  0  0  0  0  0  0  0
   -3.1150    2.3310   -0.7090 C   0  0  0  0  0  0  0  0  0  0  0  0
   -3.5420    0.9760   -0.1330 C   0  0  1  0  0  0  0  0  0  0  0  0
   -4.6990    0.4420   -0.9960 C   0  0  0  0  0  0  0  0  0  0  0  0
   -4.1040    1.1630    1.2730 C   0  0  0  0  0  0  0  0  0  0  0  0
   -0.9190    0.6290    1.7740 C   0  0  0  0  0  0  0  0  0  0  0  0
    1.7750   -2.8170    0.3580 H   0  0  0  0  0  0  0  0  0  0  0  0
    0.4940   -4.0030    0.6310 H   0  0  0  0  0  0  0  0  0  0  0  0
    0.7110   -3.3260   -0.9680 H   0  0  0  0  0  0  0  0  0  0  0  0
   -3.7190   -1.7090    0.1180 H   0  0  0  0  0  0  0  0  0  0  0  0
   -2.7930   -1.2670    1.5410 H   0  0  0  0  0  0  0  0  0  0  0  0
    1.5170    1.0250    0.2960 H   0  0  0  0  0  0  0  0  0  0  0  0
    1.6490   -0.3510    1.3800 H   0  0  0  0  0  0  0  0  0  0  0  0
    2.8650   -1.6770   -0.3390 H   0  0  0  0  0  0  0  0  0  0  0  0
    2.5270   -0.4770   -1.5950 H   0  0  0  0  0  0  0  0  0  0  0  0
    4.6410    1.2980   -1.9030 H   0  0  0  0  0  0  0  0  0  0  0  0
    6.3480    1.2860    1.8420 H   0  0  0  0  0  0  0  0  0  0  0  0
    4.1400   -0.4030    2.0750 H   0  0  0  0  0  0  0  0  0  0  0  0
    0.7050   -1.2860   -1.8570 H   0  0  0  0  0  0  0  0  0  0  0  0
    0.2870    2.2110   -0.0830 H   0  0  0  0  0  0  0  0  0  0  0  0
   -0.5860    1.7020   -1.5130 H   0  0  0  0  0  0  0  0  0  0  0  0
   -1.8940    3.0290    0.9670 H   0  0  0  0  0  0  0  0  0  0  0  0
   -1.5390    3.8110   -0.5500 H   0  0  0  0  0  0  0  0  0  0  0  0
   -3.9130    3.0880   -0.5560 H   0  0  0  0  0  0  0  0  0  0  0  0
   -3.0180    2.2640   -1.8150 H   0  0  0  0  0  0  0  0  0  0  0  0
   -4.4220    0.2950   -2.0500 H   0  0  0  0  0  0  0  0  0  0  0  0
   -5.0710   -0.5290   -0.6370 H   0  0  0  0  0  0  0  0  0  0  0  0
   -5.5600    1.1270   -1.0010 H   0  0  0  0  0  0  0  0  0  0  0  0
   -4.9400    1.8820    1.2890 H   0  0  0  0  0  0  0  0  0  0  0  0
   -4.5060    0.2340    1.7030 H   0  0  0  0  0  0  0  0  0  0  0  0
   -3.3680    1.5480    1.9930 H   0  0  0  0  0  0  0  0  0  0  0  0
   -0.7430   -0.3190    2.3090 H   0  0  0  0  0  0  0  0  0  0  0  0
   -0.1110    1.3040    2.0930 H   0  0  0  0  0  0  0  0  0  0  0  0
   -1.8350    1.0480    2.2140 H   0  0  0  0  0  0  0  0  0  0  0  0
  1 28  1  0
  1 26  1  0
  1  2  1  0
  1 27  1  0
  2 10  1  0
  2  4  1  0
  2  3  1  1
  4  5  2  0
  4  6  1  0
  6  7  1  0
  6 29  1  0
  6 30  1  0
  7  8  1  6
  7 22  1  0
  7  9  1  0
  9 19  1  0
  9 10  1  0
  9 25  1  1
 10 18  1  6
 10 11  1  0
 11 12  1  0
 11 31  1  0
 11 32  1  0
 12 34  1  0
 12 33  1  0
 12 13  1  0
 13 14  2  0
 13 17  1  0
 14 35  1  0
 14 15  1  0
 15 16  1  0
 16 17  2  0
 16 36  1  0
 17 37  1  0
 18 38  1  0
 19 40  1  0
 19 20  1  0
 19 39  1  0
 20 21  1  0
 20 42  1  0
 20 41  1  0
 21 44  1  0
 21 43  1  0
 21 22  1  0
 22 23  1  6
 22 24  1  0
 23 45  1  0
 23 47  1  0
 23 46  1  0
 24 48  1  0
 24 49  1  0
 24 50  1  0
 25 52  1  0
 25 53  1  0
 25 51  1  0
M  END
>  <id>  (285) 
387

>  <scaffolds>  (285) 
['c1ccoc1', 'C1CCCCC1', 'O=C1CC2CCCCC2C(CCc2ccoc2)C1', 'C1CCC2CCCCC2C1']

>  <name>  (285) 
Hispanolone

>  <formula>  (285) 
C20H30O3

>  <SMILES>  (285) 
C[C@@H]1C(=O)C[C@@H]2[C@@]([C@]1(CCC3=COC=C3)O)(CCCC2(C)C)C

>  <ChEMBL_id>  (285) 
CHEMBL2000054

>  <ZINC_id>  (285) 
ZINC04104844

>  <PubChem_id>  (285) 
 5458747

>  <DrugBank_id>  (285) 


>  <CAS_no>  (285) 
18676-07-8

>  <references>  (285) 
[{'journal': {'name': 'Tetrahedron', 'id': 4}, 'title': 'Transformations of hispanolone. Novel Michael adducts with in planta activity against rice blast', 'year': 2005, 'start_page': 8493, 'volume': 61, 'issue': 35, 'doi': '10.1016/j.tet.2005.06.052', 'isbn': '', 'despositor': {'code': 'TMM', 'first_name': 'Thommas', 'last_name': 'Musyoka', 'id': 22}, 'refauthors_set': [{'author': {'first_name': '', 'initials': 'AW', 'last_name': 'van Wyk', 'id': 537}, 'first_author': True, 'id': 878}, {'author': {'first_name': '', 'initials': 'CA', 'last_name': 'Gray', 'id': 480}, 'first_author': False, 'id': 879}, {'author': {'first_name': '', 'initials': 'RA', 'last_name': 'Keyzers', 'id': 546}, 'first_author': False, 'id': 880}, {'author': {'first_name': '', 'initials': 'DEA', 'last_name': 'Rivett', 'id': 527}, 'first_author': False, 'id': 881}, {'author': {'first_name': '', 'initials': 'MR', 'last_name': 'Caira', 'id': 637}, 'first_author': False, 'id': 882}, {'author': {'first_name': '', 'initials': 'BS', 'last_name': 'Nader', 'id': 638}, 'first_author': False, 'id': 883}, {'author': {'first_name': '', 'initials': 'GE', 'last_name': 'Davis', 'id': 639}, 'first_author': False, 'id': 884}, {'author': {'first_name': '', 'initials': 'TL', 'last_name': 'Werk', 'id': 640}, 'first_author': False, 'id': 885}, {'author': {'first_name': 'Michael', 'initials': 'MT', 'last_name': 'Davies-Coleman', 'id': 449}, 'first_author': False, 'id': 886}], 'id': 301}]

>  <classifications>  (285) 
[{'classification': 'Diterpene', 'id': 771}, {'classification': 'Terpenoid', 'id': 839}, {'classification': 'Phenol lipids (Classyfire)', 'id': 951}]

>  <molecular_mass>  (285) 
318.45

$$$$
SANC00388_minRM1.pdb
     RDKit          3D

125132  0  0  1  0  0  0  0  0999 V2000
   -7.5390    0.3410    0.3660 H   0  0  0  0  0  0  0  0  0  0  0  0
   -6.4550    0.5920    0.5320 C   0  0  2  0  0  0  0  0  0  0  0  0
   -5.6280   -0.5100    0.8070 O   0  0  0  0  0  0  0  0  0  0  0  0
   -5.8520   -1.6440    0.0140 C   0  0  2  0  0  0  0  0  0  0  0  0
   -6.1840   -1.4040   -1.0310 H   0  0  0  0  0  0  0  0  0  0  0  0
   -6.8730   -2.5650    0.7300 C   0  0  1  0  0  0  0  0  0  0  0  0
   -6.5740   -2.7310    1.8010 H   0  0  0  0  0  0  0  0  0  0  0  0
   -8.1090   -1.9260    0.6340 O   0  0  0  0  0  0  0  0  0  0  0  0
   -6.9270   -3.9150   -0.0340 C   0  0  2  0  0  0  0  0  0  0  0  0
   -7.3300   -3.7540   -1.0700 H   0  0  0  0  0  0  0  0  0  0  0  0
   -7.7620   -4.7200    0.7410 O   0  0  0  0  0  0  0  0  0  0  0  0
   -5.5040   -4.5230   -0.0940 C   0  0  1  0  0  0  0  0  0  0  0  0
   -5.1550   -4.7960    0.9400 H   0  0  0  0  0  0  0  0  0  0  0  0
   -5.4780   -5.7660   -1.0120 C   0  0  0  0  0  0  0  0  0  0  0  0
   -4.2700   -6.4250   -0.7550 O   0  0  0  0  0  0  0  0  0  0  0  0
   -4.6420   -3.6080   -0.7150 O   0  0  0  0  0  0  0  0  0  0  0  0
   -4.4910   -2.4030    0.0050 C   0  0  1  0  0  0  0  0  0  0  0  0
   -4.1050   -2.5800    1.0490 H   0  0  0  0  0  0  0  0  0  0  0  0
   -3.6380   -1.6530   -0.8010 O   0  0  0  0  0  0  0  0  0  0  0  0
   -2.2740   -2.0280   -0.7530 C   0  0  1  0  0  0  0  0  0  0  0  0
   -2.1400   -3.1430   -0.7630 H   0  0  0  0  0  0  0  0  0  0  0  0
   -1.6600   -1.4050   -2.0090 C   0  0  0  0  0  0  0  0  0  0  0  0
   -0.1640   -1.6830   -2.0320 C   0  0  0  0  0  0  0  0  0  0  0  0
    0.5680   -1.1590   -0.7870 C   0  0  1  0  0  0  0  0  0  0  0  0
    0.5670    0.3710   -0.7710 C   0  0  0  0  0  0  0  0  0  0  0  0
   -0.1390   -1.6220    0.4550 C   0  0  0  0  0  0  0  0  0  0  0  0
    0.4950   -2.1070    1.5230 C   0  0  0  0  0  0  0  0  0  0  0  0
    1.9690   -2.2650    1.6100 C   0  0  0  0  0  0  0  0  0  0  0  0
    2.6760   -1.4220    0.5490 C   0  0  2  0  0  0  0  0  0  0  0  0
    2.5550   -0.3430    0.8240 H   0  0  0  0  0  0  0  0  0  0  0  0
    2.0250   -1.6970   -0.8130 C   0  0  2  0  0  0  0  0  0  0  0  0
    1.9890   -2.8110   -0.9510 H   0  0  0  0  0  0  0  0  0  0  0  0
    2.8170   -1.1120   -1.9890 C   0  0  0  0  0  0  0  0  0  0  0  0
    4.3330   -1.3130   -1.9200 C   0  0  0  0  0  0  0  0  0  0  0  0
    4.8690   -0.9130   -0.5510 C   0  0  1  0  0  0  0  0  0  0  0  0
    4.5930    0.5520   -0.2620 C   0  0  0  0  0  0  0  0  0  0  0  0
    4.3200    1.3600   -1.1320 O   0  0  0  0  0  0  0  0  0  0  0  0
    4.1450   -1.8030    0.4710 C   0  0  1  0  0  0  0  0  0  0  0  0
    4.2130   -2.8760    0.1430 H   0  0  0  0  0  0  0  0  0  0  0  0
    4.9840   -1.6580    1.7310 C   0  0  0  0  0  0  0  0  0  0  0  0
    6.4220   -1.7340    1.1670 C   0  0  2  0  0  0  0  0  0  0  0  0
    6.7640   -2.8050    1.1580 H   0  0  0  0  0  0  0  0  0  0  0  0
    7.3040   -1.1550    2.0790 O   0  0  0  0  0  0  0  0  0  0  0  0
    7.8160    0.1110    1.7680 C   0  0  1  0  0  0  0  0  0  0  0  0
    7.0210    0.9070    1.8610 H   0  0  0  0  0  0  0  0  0  0  0  0
    8.8080    0.3420    2.7140 O   0  0  0  0  0  0  0  0  0  0  0  0
    8.4570    0.1140    0.3680 C   0  0  1  0  0  0  0  0  0  0  0  0
    9.4870   -0.9530    0.2300 C   0  0  0  0  0  0  0  0  0  0  0  0
   10.7490   -0.7130   -0.1350 C   0  0  0  0  0  0  0  0  0  0  0  0
   11.2890    0.6430   -0.4150 C   0  0  0  0  0  0  0  0  0  0  0  0
   11.7260   -1.8310   -0.2640 C   0  0  0  0  0  0  0  0  0  0  0  0
    7.3220   -0.0540   -0.6500 C   0  0  1  0  0  0  0  0  0  0  0  0
    6.7820    0.9270   -0.6610 H   0  0  0  0  0  0  0  0  0  0  0  0
    7.9150   -0.2380   -2.0450 C   0  0  0  0  0  0  0  0  0  0  0  0
    6.3720   -1.2090   -0.2990 C   0  0  2  0  0  0  0  0  0  0  0  0
    6.6530   -2.0840   -0.9420 H   0  0  0  0  0  0  0  0  0  0  0  0
   -1.6190   -1.4260    0.4960 C   0  0  0  0  0  0  0  0  0  0  0  0
   -6.0870    1.1330   -0.6930 O   0  0  0  0  0  0  0  0  0  0  0  0
   -4.8010    1.7080   -0.7690 C   0  0  1  0  0  0  0  0  0  0  0  0
   -4.0010    0.9390   -0.5880 H   0  0  0  0  0  0  0  0  0  0  0  0
   -4.7030    2.2440   -2.1950 C   0  0  0  0  0  0  0  0  0  0  0  0
   -4.7090    2.8530    0.2660 C   0  0  2  0  0  0  0  0  0  0  0  0
   -5.4940    3.6360    0.0860 H   0  0  0  0  0  0  0  0  0  0  0  0
   -3.3850    3.3420    0.2380 O   0  0  0  0  0  0  0  0  0  0  0  0
   -3.1260    4.5110   -0.4040 C   0  0  0  0  0  0  0  0  0  0  0  0
   -4.0020    5.0970   -1.0200 O   0  0  0  0  0  0  0  0  0  0  0  0
   -1.7210    4.9250   -0.3030 C   0  0  0  0  0  0  0  0  0  0  0  0
   -0.8740    4.4350    0.6880 C   0  0  0  0  0  0  0  0  0  0  0  0
    0.4520    4.8360    0.7340 C   0  0  0  0  0  0  0  0  0  0  0  0
    0.9190    5.7290   -0.2400 C   0  0  0  0  0  0  0  0  0  0  0  0
    2.2260    6.0720   -0.1220 O   0  0  0  0  0  0  0  0  0  0  0  0
    0.0810    6.2300   -1.2420 C   0  0  0  0  0  0  0  0  0  0  0  0
   -1.2470    5.8300   -1.2520 C   0  0  0  0  0  0  0  0  0  0  0  0
   -4.8830    2.2450    1.6790 C   0  0  1  0  0  0  0  0  0  0  0  0
   -4.0810    1.4890    1.9000 H   0  0  0  0  0  0  0  0  0  0  0  0
   -4.7600    3.3160    2.5650 O   0  0  0  0  0  0  0  0  0  0  0  0
   -6.2620    1.5470    1.7440 C   0  0  1  0  0  0  0  0  0  0  0  0
   -6.3530    0.9570    2.6980 H   0  0  0  0  0  0  0  0  0  0  0  0
   -7.2020    2.5750    1.7060 O   0  0  0  0  0  0  0  0  0  0  0  0
   -8.7470   -2.4500    1.1300 H   0  0  0  0  0  0  0  0  0  0  0  0
   -8.0820   -5.4390    0.2020 H   0  0  0  0  0  0  0  0  0  0  0  0
   -6.3030   -6.4660   -0.7500 H   0  0  0  0  0  0  0  0  0  0  0  0
   -5.6350   -5.4840   -2.0780 H   0  0  0  0  0  0  0  0  0  0  0  0
   -3.8640   -6.6090   -1.6120 H   0  0  0  0  0  0  0  0  0  0  0  0
   -2.1450   -1.8190   -2.9200 H   0  0  0  0  0  0  0  0  0  0  0  0
   -1.8780   -0.3170   -2.0630 H   0  0  0  0  0  0  0  0  0  0  0  0
    0.0040   -2.7760   -2.1440 H   0  0  0  0  0  0  0  0  0  0  0  0
    0.2690   -1.2360   -2.9510 H   0  0  0  0  0  0  0  0  0  0  0  0
   -0.4380    0.8070   -0.8410 H   0  0  0  0  0  0  0  0  0  0  0  0
    1.0130    0.7720    0.1520 H   0  0  0  0  0  0  0  0  0  0  0  0
    1.1420    0.7990   -1.6080 H   0  0  0  0  0  0  0  0  0  0  0  0
   -0.0530   -2.4270    2.4150 H   0  0  0  0  0  0  0  0  0  0  0  0
    2.3220   -1.9800    2.6250 H   0  0  0  0  0  0  0  0  0  0  0  0
    2.2280   -3.3420    1.5180 H   0  0  0  0  0  0  0  0  0  0  0  0
    2.4580   -1.5670   -2.9370 H   0  0  0  0  0  0  0  0  0  0  0  0
    2.5830   -0.0330   -2.1210 H   0  0  0  0  0  0  0  0  0  0  0  0
    4.5930   -2.3680   -2.1480 H   0  0  0  0  0  0  0  0  0  0  0  0
    4.8250   -0.7270   -2.7250 H   0  0  0  0  0  0  0  0  0  0  0  0
    4.6670    0.8690    0.7960 H   0  0  0  0  0  0  0  0  0  0  0  0
    4.7890   -0.7190    2.2850 H   0  0  0  0  0  0  0  0  0  0  0  0
    4.7910   -2.4530    2.4750 H   0  0  0  0  0  0  0  0  0  0  0  0
    8.7100   -0.2690    3.4380 H   0  0  0  0  0  0  0  0  0  0  0  0
    8.9290    1.1240    0.2120 H   0  0  0  0  0  0  0  0  0  0  0  0
    9.1480   -1.9740    0.4350 H   0  0  0  0  0  0  0  0  0  0  0  0
   12.0020    0.9560    0.3590 H   0  0  0  0  0  0  0  0  0  0  0  0
   11.8140    0.6800   -1.3810 H   0  0  0  0  0  0  0  0  0  0  0  0
   10.5090    1.4200   -0.4540 H   0  0  0  0  0  0  0  0  0  0  0  0
   11.5110   -2.4400   -1.1560 H   0  0  0  0  0  0  0  0  0  0  0  0
   12.7650   -1.4860   -0.3660 H   0  0  0  0  0  0  0  0  0  0  0  0
   11.7040   -2.5090    0.6020 H   0  0  0  0  0  0  0  0  0  0  0  0
    8.4720   -1.1800   -2.1580 H   0  0  0  0  0  0  0  0  0  0  0  0
    7.1460   -0.2260   -2.8300 H   0  0  0  0  0  0  0  0  0  0  0  0
    8.6230    0.5690   -2.2890 H   0  0  0  0  0  0  0  0  0  0  0  0
   -1.8570   -0.3430    0.5860 H   0  0  0  0  0  0  0  0  0  0  0  0
   -2.0610   -1.8670    1.4150 H   0  0  0  0  0  0  0  0  0  0  0  0
   -5.4360    3.0370   -2.4020 H   0  0  0  0  0  0  0  0  0  0  0  0
   -3.7060    2.6620   -2.3910 H   0  0  0  0  0  0  0  0  0  0  0  0
   -4.8670    1.4520   -2.9400 H   0  0  0  0  0  0  0  0  0  0  0  0
   -1.2420    3.7300    1.4330 H   0  0  0  0  0  0  0  0  0  0  0  0
    1.1240    4.4670    1.5170 H   0  0  0  0  0  0  0  0  0  0  0  0
    2.4830    6.5480   -0.9180 H   0  0  0  0  0  0  0  0  0  0  0  0
    0.4510    6.9300   -1.9960 H   0  0  0  0  0  0  0  0  0  0  0  0
   -1.9210    6.2310   -2.0210 H   0  0  0  0  0  0  0  0  0  0  0  0
   -5.3470    3.1700    3.3140 H   0  0  0  0  0  0  0  0  0  0  0  0
   -8.0790    2.1830    1.7590 H   0  0  0  0  0  0  0  0  0  0  0  0
  2  1  1  6
  2 58  1  0
  2  3  1  0
  2 77  1  0
  3  4  1  0
  4  5  1  6
  4 17  1  0
  4  6  1  0
  6  9  1  0
  6  8  1  0
  6  7  1  1
  8 80  1  0
  9 10  1  6
  9 12  1  0
  9 11  1  0
 11 81  1  0
 12 14  1  0
 12 16  1  0
 12 13  1  1
 14 83  1  0
 14 15  1  0
 14 82  1  0
 15 84  1  0
 16 17  1  0
 17 19  1  0
 17 18  1  1
 19 20  1  0
 20 22  1  0
 20 21  1  6
 20 57  1  0
 22 85  1  0
 22 86  1  0
 22 23  1  0
 23 88  1  0
 23 87  1  0
 23 24  1  0
 24 31  1  0
 24 25  1  6
 24 26  1  0
 25 91  1  0
 25 89  1  0
 25 90  1  0
 26 57  1  0
 26 27  2  0
 27 28  1  0
 27 92  1  0
 28 29  1  0
 28 94  1  0
 28 93  1  0
 29 31  1  0
 29 38  1  0
 29 30  1  1
 31 33  1  0
 31 32  1  6
 33 95  1  0
 33 96  1  0
 33 34  1  0
 34 98  1  0
 34 97  1  0
 34 35  1  0
 35 55  1  0
 35 36  1  1
 35 38  1  0
 36 37  2  0
 36 99  1  0
 38 39  1  6
 38 40  1  0
 40 41  1  0
 40100  1  0
 40101  1  0
 41 55  1  0
 41 42  1  6
 41 43  1  0
 43 44  1  0
 44 47  1  0
 44 45  1  6
 44 46  1  0
 46102  1  0
 47 52  1  0
 47103  1  6
 47 48  1  0
 48 49  2  0
 48104  1  0
 49 50  1  0
 49 51  1  0
 50106  1  0
 50107  1  0
 50105  1  0
 51108  1  0
 51109  1  0
 51110  1  0
 52 54  1  0
 52 53  1  6
 52 55  1  0
 54112  1  0
 54113  1  0
 54111  1  0
 55 56  1  6
 57114  1  0
 57115  1  0
 58 59  1  0
 59 61  1  0
 59 60  1  1
 59 62  1  0
 61118  1  0
 61116  1  0
 61117  1  0
 62 63  1  6
 62 64  1  0
 62 74  1  0
 64 65  1  0
 65 66  2  0
 65 67  1  0
 67 73  2  0
 67 68  1  0
 68 69  2  0
 68119  1  0
 69 70  1  0
 69120  1  0
 70 72  2  0
 70 71  1  0
 71121  1  0
 72122  1  0
 72 73  1  0
 73123  1  0
 74 77  1  0
 74 75  1  1
 74 76  1  0
 76124  1  0
 77 79  1  0
 77 78  1  1
 79125  1  0
M  END
>  <id>  (286) 
388

>  <scaffolds>  (286) 
['c1ccccc1', 'C1=C2CCCCC2C2CCC3CCCC3C2C1', 'C1=CCCCC1', 'C1=CCC2CCCCC2C1', 'O=C(OC1CCC(OC2CCCOC2OC2CCC3C(=CCC4C3CCC3C5CCCOC5CC34)C2)OC1)c1ccccc1', 'C1CCOCC1', 'C1=C2CC(OC3CCCCO3)CCC2C2CCC3CCCC3C2C1', 'C1CCCCC1', 'C1=C2CC(OC3OCCCC3OC3CCCCO3)CCC2C2CCC3C4CCCOC4CC3C2C1', 'C1=C2CCCCC2CCC1', 'C1CCC(OC2CCCOC2)OC1']

>  <name>  (286) 
Saundersioside E

>  <formula>  (286) 
C46H64O15

>  <SMILES>  (286) 
[H][C@@]8(O[C@@H]1[C@@H](O)[C@H](O)[C@@H](CO)O[C@@]1([H])O[C@H]6CC[C@@]2(C)C(=CC[C@]3([H])[C@]2([H])CC[C@@]5(C=O)[C@@]3([H])C[C@]4([H])O[C@@H](O)C(/C=C(C)/C)[C@@H](C)[C@@]45[H])C6)O[C@@H](C)[C@H](OC(=O)c7ccc(O)cc7)[C@@H](O)[C@H]8O

>  <ChEMBL_id>  (286) 


>  <ZINC_id>  (286) 


>  <PubChem_id>  (286) 


>  <DrugBank_id>  (286) 


>  <CAS_no>  (286) 
153005-22-2

>  <references>  (286) 
[{'journal': {'name': 'Life Sciences', 'id': 27}, 'title': 'Potent growth inhibitory activity of a novel Ornithogalum cholestane glycoside on human cells: induction of apoptosis in promyelocytic leukemia HL-60 cells', 'year': 1996, 'start_page': 789, 'volume': 58, 'issue': 9, 'doi': '10.1016/0024-3205(95)02357-7', 'isbn': '', 'despositor': {'code': 'NFA', 'first_name': 'Ngonidzashe', 'last_name': 'Faya', 'id': 21}, 'refauthors_set': [{'author': {'first_name': 'Toshihiko', 'initials': 'T', 'last_name': 'Hirano', 'id': 641}, 'first_author': True, 'id': 887}, {'author': {'first_name': 'Kitaro ', 'initials': 'K', 'last_name': 'Oka', 'id': 642}, 'first_author': None, 'id': 1169}, {'author': {'first_name': 'Yoshihiro ', 'initials': 'Y', 'last_name': 'Mimaki', 'id': 643}, 'first_author': None, 'id': 1170}, {'author': {'first_name': 'Minpei', 'initials': 'M', 'last_name': 'Kuroda', 'id': 644}, 'first_author': None, 'id': 1171}, {'author': {'first_name': 'Yutaka', 'initials': 'Y', 'last_name': 'Sashida', 'id': 645}, 'first_author': None, 'id': 1172}], 'id': 302}, {'journal': {'name': 'Tetrahedron Letters', 'id': 3}, 'title': 'Three novel rearranged cholestane glycosides from Ornithogalum saundersiae bulbs and their cytostatic activities on leukemia HL-60 and MOLT-4 cells', 'year': 1996, 'start_page': 1445, 'volume': 37, 'issue': 8, 'doi': '10.1016/0040-4039(95)02407-7', 'isbn': '', 'despositor': {'code': 'NFA', 'first_name': 'Ngonidzashe', 'last_name': 'Faya', 'id': 21}, 'refauthors_set': [{'author': {'first_name': 'Yoshihiro ', 'initials': 'Y', 'last_name': 'Mimaki', 'id': 643}, 'first_author': True, 'id': 891}, {'author': {'first_name': 'Minpei', 'initials': 'M', 'last_name': 'Kuroda', 'id': 644}, 'first_author': None, 'id': 1212}, {'author': {'first_name': 'Yutaka', 'initials': 'Y', 'last_name': 'Sashida', 'id': 645}, 'first_author': None, 'id': 1213}, {'author': {'first_name': 'Toshihiko', 'initials': 'T', 'last_name': 'Hirano', 'id': 641}, 'first_author': None, 'id': 1214}, {'author': {'first_name': 'Kitaro ', 'initials': 'K', 'last_name': 'Oka', 'id': 642}, 'first_author': None, 'id': 1215}, {'author': {'first_name': 'Akira', 'initials': 'A', 'last_name': 'Dobashi', 'id': 651}, 'first_author': None, 'id': 1216}], 'id': 306}, {'journal': {'name': 'Phytochemistry', 'id': 10}, 'title': 'Saundersiosides C-H, rearranged cholestane glycosides from the bulbs of Ornithogalum saundersiae and their cytostatic activity on HL-60 cells', 'year': 1999, 'start_page': 435, 'volume': 52, 'issue': 3, 'doi': '10.1016/S0031-9422(99)00239-3', 'isbn': '', 'despositor': {'code': 'rah', 'first_name': 'Rowan', 'last_name': 'Hatherley', 'id': 20}, 'refauthors_set': [{'author': {'first_name': 'Minpei', 'initials': 'M', 'last_name': 'Kuroda', 'id': 644}, 'first_author': True, 'id': 1029}, {'author': {'first_name': 'Yoshihiro ', 'initials': 'Y', 'last_name': 'Mimaki', 'id': 643}, 'first_author': None, 'id': 1189}, {'author': {'first_name': 'Yutaka', 'initials': 'Y', 'last_name': 'Sashida', 'id': 645}, 'first_author': None, 'id': 1190}], 'id': 338}]

>  <classifications>  (286) 
[{'classification': 'Cholestane', 'id': 761}, {'classification': 'Glycoside', 'id': 781}, {'classification': 'Steroids and steroid derivatives (Classyfire)', 'id': 942}]

>  <molecular_mass>  (286) 
856.99

$$$$
SANC00389_minRM1.pdb
     RDKit          3D

114119  0  0  1  0  0  0  0  0999 V2000
   -6.2550   -0.4340    0.9090 H   0  0  0  0  0  0  0  0  0  0  0  0
   -6.1660   -0.8620   -0.1290 C   0  0  2  0  0  0  0  0  0  0  0  0
   -4.8740   -0.7560   -0.6500 O   0  0  0  0  0  0  0  0  0  0  0  0
   -3.8630   -1.4010    0.0770 C   0  0  1  0  0  0  0  0  0  0  0  0
   -4.1870   -1.7260    1.1030 H   0  0  0  0  0  0  0  0  0  0  0  0
   -3.4070   -2.6430   -0.7230 C   0  0  1  0  0  0  0  0  0  0  0  0
   -4.2300   -3.4060   -0.7600 H   0  0  0  0  0  0  0  0  0  0  0  0
   -3.0810   -2.1740   -1.9930 O   0  0  0  0  0  0  0  0  0  0  0  0
   -2.1680   -3.2390   -0.0180 C   0  0  0  0  0  0  0  0  0  0  0  0
   -1.1410   -2.2970    0.0860 O   0  0  0  0  0  0  0  0  0  0  0  0
   -1.5000   -1.1630    0.8440 C   0  0  1  0  0  0  0  0  0  0  0  0
   -1.7410   -1.4480    1.9120 H   0  0  0  0  0  0  0  0  0  0  0  0
   -0.3930   -0.3170    0.7370 O   0  0  0  0  0  0  0  0  0  0  0  0
    0.7550   -0.7730    1.4000 C   0  0  1  0  0  0  0  0  0  0  0  0
    0.5010   -1.4820    2.2370 H   0  0  0  0  0  0  0  0  0  0  0  0
    1.6920   -1.4960    0.4050 C   0  0  0  0  0  0  0  0  0  0  0  0
    3.0760   -1.0280    0.8410 C   0  0  1  0  0  0  0  0  0  0  0  0
    3.3320   -1.5540    1.8020 H   0  0  0  0  0  0  0  0  0  0  0  0
    4.2230   -1.2440   -0.1420 C   0  0  2  0  0  0  0  0  0  0  0  0
    4.0130   -0.6990   -1.0980 H   0  0  0  0  0  0  0  0  0  0  0  0
    4.3760   -2.7350   -0.4340 C   0  0  0  0  0  0  0  0  0  0  0  0
    5.6760   -3.0520   -1.0770 C   0  0  0  0  0  0  0  0  0  0  0  0
    6.7290   -2.2360   -1.0770 C   0  0  0  0  0  0  0  0  0  0  0  0
    7.9820   -2.6330   -1.7820 C   0  0  0  0  0  0  0  0  0  0  0  0
    9.1940   -2.4510   -0.8580 C   0  0  1  0  0  0  0  0  0  0  0  0
    9.1060   -3.1390    0.0290 H   0  0  0  0  0  0  0  0  0  0  0  0
   10.3860   -2.6850   -1.5550 O   0  0  0  0  0  0  0  0  0  0  0  0
    9.2710   -0.9940   -0.3910 C   0  0  0  0  0  0  0  0  0  0  0  0
    7.9970   -0.6460    0.3630 C   0  0  0  0  0  0  0  0  0  0  0  0
    6.7160   -0.8670   -0.4620 C   0  0  1  0  0  0  0  0  0  0  0  0
    6.6480    0.1410   -1.6120 C   0  0  0  0  0  0  0  0  0  0  0  0
    5.5090   -0.7070    0.5000 C   0  0  1  0  0  0  0  0  0  0  0  0
    5.7080   -1.3260    1.4150 H   0  0  0  0  0  0  0  0  0  0  0  0
    5.3520    0.7530    0.9410 C   0  0  0  0  0  0  0  0  0  0  0  0
    4.1260    0.9810    1.8260 C   0  0  0  0  0  0  0  0  0  0  0  0
    2.8690    0.4720    1.1210 C   0  0  1  0  0  0  0  0  0  0  0  0
    2.6540    1.2540   -0.1700 C   0  0  0  0  0  0  0  0  0  0  0  0
    1.5560    0.4590    1.9730 C   0  0  2  0  0  0  0  0  0  0  0  0
    1.9900    0.1180    3.2640 O   0  0  0  0  0  0  0  0  0  0  0  0
    0.8340    1.8230    2.1020 C   0  0  2  0  0  0  0  0  0  0  0  0
    1.6080    2.5180    2.5250 H   0  0  0  0  0  0  0  0  0  0  0  0
   -0.3360    1.7470    3.0870 C   0  0  0  0  0  0  0  0  0  0  0  0
    0.2480    2.4620    0.8540 C   0  0  0  0  0  0  0  0  0  0  0  0
   -0.6050    1.9280    0.1740 O   0  0  0  0  0  0  0  0  0  0  0  0
    0.6440    3.9050    0.6030 C   0  0  0  0  0  0  0  0  0  0  0  0
    0.4630    4.2900   -0.8610 C   0  0  0  0  0  0  0  0  0  0  0  0
    0.8560    5.7480   -1.1200 C   0  0  1  0  0  0  0  0  0  0  0  0
    2.3560    5.9560   -0.9480 C   0  0  0  0  0  0  0  0  0  0  0  0
    0.4510    6.1360   -2.5400 C   0  0  0  0  0  0  0  0  0  0  0  0
   -2.6820   -0.4050    0.1750 C   0  0  2  0  0  0  0  0  0  0  0  0
   -2.3870   -0.0010   -0.8320 H   0  0  0  0  0  0  0  0  0  0  0  0
   -3.0350    0.5830    1.1170 O   0  0  0  0  0  0  0  0  0  0  0  0
   -3.4780    1.7930    0.6800 C   0  0  0  0  0  0  0  0  0  0  0  0
   -3.6150    2.7480    1.8240 C   0  0  0  0  0  0  0  0  0  0  0  0
   -3.7430    1.9980   -0.4860 O   0  0  0  0  0  0  0  0  0  0  0  0
   -6.4380   -2.2450   -0.1360 O   0  0  0  0  0  0  0  0  0  0  0  0
   -7.7540   -2.5420    0.2350 C   0  0  0  0  0  0  0  0  0  0  0  0
   -8.7290   -1.9470   -0.8000 C   0  0  1  0  0  0  0  0  0  0  0  0
   -8.5350   -2.3850   -1.8150 H   0  0  0  0  0  0  0  0  0  0  0  0
  -10.0460   -2.1420   -0.3770 O   0  0  0  0  0  0  0  0  0  0  0  0
   -8.5470   -0.4080   -0.8400 C   0  0  2  0  0  0  0  0  0  0  0  0
   -8.8480    0.0510    0.1410 H   0  0  0  0  0  0  0  0  0  0  0  0
   -9.2690    0.1080   -1.9140 O   0  0  0  0  0  0  0  0  0  0  0  0
   -7.0610   -0.0980   -1.1540 C   0  0  1  0  0  0  0  0  0  0  0  0
   -6.8080   -0.4030   -2.2060 H   0  0  0  0  0  0  0  0  0  0  0  0
   -6.9050    1.2640   -0.9250 O   0  0  0  0  0  0  0  0  0  0  0  0
   -2.7990   -2.9330   -2.5170 H   0  0  0  0  0  0  0  0  0  0  0  0
   -2.4460   -3.6720    0.9710 H   0  0  0  0  0  0  0  0  0  0  0  0
   -1.7080   -4.0650   -0.5990 H   0  0  0  0  0  0  0  0  0  0  0  0
    1.5690   -2.5970    0.4500 H   0  0  0  0  0  0  0  0  0  0  0  0
    1.4630   -1.2430   -0.6510 H   0  0  0  0  0  0  0  0  0  0  0  0
    4.2870   -3.3450    0.4940 H   0  0  0  0  0  0  0  0  0  0  0  0
    3.5400   -3.0830   -1.0790 H   0  0  0  0  0  0  0  0  0  0  0  0
    5.7200   -4.0370   -1.5530 H   0  0  0  0  0  0  0  0  0  0  0  0
    7.9380   -3.6820   -2.1480 H   0  0  0  0  0  0  0  0  0  0  0  0
    8.1030   -2.0370   -2.7120 H   0  0  0  0  0  0  0  0  0  0  0  0
   10.3900   -3.6120   -1.8270 H   0  0  0  0  0  0  0  0  0  0  0  0
   10.1590   -0.8440    0.2600 H   0  0  0  0  0  0  0  0  0  0  0  0
    9.4490   -0.3100   -1.2460 H   0  0  0  0  0  0  0  0  0  0  0  0
    7.9550   -1.2460    1.2980 H   0  0  0  0  0  0  0  0  0  0  0  0
    8.0500    0.4070    0.7120 H   0  0  0  0  0  0  0  0  0  0  0  0
    7.5550    0.1540   -2.2310 H   0  0  0  0  0  0  0  0  0  0  0  0
    5.8160   -0.0660   -2.2990 H   0  0  0  0  0  0  0  0  0  0  0  0
    6.5130    1.1750   -1.2570 H   0  0  0  0  0  0  0  0  0  0  0  0
    6.2590    1.0750    1.4970 H   0  0  0  0  0  0  0  0  0  0  0  0
    5.3220    1.4370    0.0630 H   0  0  0  0  0  0  0  0  0  0  0  0
    4.2860    0.4840    2.8070 H   0  0  0  0  0  0  0  0  0  0  0  0
    4.0280    2.0580    2.0800 H   0  0  0  0  0  0  0  0  0  0  0  0
    3.4200    1.0220   -0.9350 H   0  0  0  0  0  0  0  0  0  0  0  0
    1.6930    1.0410   -0.6590 H   0  0  0  0  0  0  0  0  0  0  0  0
    2.7240    2.3400   -0.0200 H   0  0  0  0  0  0  0  0  0  0  0  0
    1.2310   -0.1170    3.8040 H   0  0  0  0  0  0  0  0  0  0  0  0
   -0.0060    1.7510    4.1350 H   0  0  0  0  0  0  0  0  0  0  0  0
   -1.0240    2.6080    2.9910 H   0  0  0  0  0  0  0  0  0  0  0  0
   -0.9590    0.8540    2.9380 H   0  0  0  0  0  0  0  0  0  0  0  0
    0.0110    4.5410    1.2610 H   0  0  0  0  0  0  0  0  0  0  0  0
    1.6820    4.1100    0.9380 H   0  0  0  0  0  0  0  0  0  0  0  0
    1.0500    3.6060   -1.5110 H   0  0  0  0  0  0  0  0  0  0  0  0
   -0.5920    4.1230   -1.1680 H   0  0  0  0  0  0  0  0  0  0  0  0
    0.3120    6.4090   -0.3970 H   0  0  0  0  0  0  0  0  0  0  0  0
    2.9460    5.3140   -1.6190 H   0  0  0  0  0  0  0  0  0  0  0  0
    2.6530    6.9930   -1.1660 H   0  0  0  0  0  0  0  0  0  0  0  0
    2.6980    5.7480    0.0760 H   0  0  0  0  0  0  0  0  0  0  0  0
   -0.6320    6.0430   -2.7050 H   0  0  0  0  0  0  0  0  0  0  0  0
    0.7130    7.1770   -2.7740 H   0  0  0  0  0  0  0  0  0  0  0  0
    0.9410    5.5080   -3.2980 H   0  0  0  0  0  0  0  0  0  0  0  0
   -4.3900    2.4130    2.5320 H   0  0  0  0  0  0  0  0  0  0  0  0
   -2.6690    2.8470    2.3880 H   0  0  0  0  0  0  0  0  0  0  0  0
   -3.9010    3.7510    1.4700 H   0  0  0  0  0  0  0  0  0  0  0  0
   -7.7880   -3.6480    0.2550 H   0  0  0  0  0  0  0  0  0  0  0  0
   -7.9970   -2.1980    1.2680 H   0  0  0  0  0  0  0  0  0  0  0  0
  -10.2620   -3.0670   -0.5230 H   0  0  0  0  0  0  0  0  0  0  0  0
  -10.1990    0.0950   -1.6630 H   0  0  0  0  0  0  0  0  0  0  0  0
   -6.0690    1.5320   -1.3270 H   0  0  0  0  0  0  0  0  0  0  0  0
  2  1  1  1
  2 64  1  0
  2  3  1  0
  2 56  1  0
  3  4  1  0
  4  6  1  0
  4 50  1  0
  4  5  1  1
  6  8  1  0
  6  7  1  6
  6  9  1  0
  8 67  1  0
  9 69  1  0
  9 10  1  0
  9 68  1  0
 10 11  1  0
 11 50  1  0
 11 13  1  0
 11 12  1  1
 13 14  1  0
 14 16  1  0
 14 38  1  0
 14 15  1  1
 16 71  1  0
 16 70  1  0
 16 17  1  0
 17 19  1  0
 17 36  1  0
 17 18  1  1
 19 20  1  6
 19 21  1  0
 19 32  1  0
 21 73  1  0
 21 22  1  0
 21 72  1  0
 22 74  1  0
 22 23  2  0
 23 24  1  0
 23 30  1  0
 24 76  1  0
 24 75  1  0
 24 25  1  0
 25 27  1  0
 25 28  1  0
 25 26  1  1
 27 77  1  0
 28 79  1  0
 28 78  1  0
 28 29  1  0
 29 30  1  0
 29 81  1  0
 29 80  1  0
 30 31  1  6
 30 32  1  0
 31 83  1  0
 31 82  1  0
 31 84  1  0
 32 34  1  0
 32 33  1  1
 34 86  1  0
 34 85  1  0
 34 35  1  0
 35 36  1  0
 35 88  1  0
 35 87  1  0
 36 37  1  6
 36 38  1  0
 37 89  1  0
 37 90  1  0
 37 91  1  0
 38 40  1  0
 38 39  1  1
 39 92  1  0
 40 43  1  0
 40 41  1  1
 40 42  1  0
 42 95  1  0
 42 94  1  0
 42 93  1  0
 43 44  2  0
 43 45  1  0
 45 46  1  0
 45 97  1  0
 45 96  1  0
 46 98  1  0
 46 99  1  0
 46 47  1  0
 47 49  1  0
 47 48  1  0
 47100  1  1
 48101  1  0
 48102  1  0
 48103  1  0
 49106  1  0
 49105  1  0
 49104  1  0
 50 51  1  6
 50 52  1  0
 52 53  1  0
 53 55  2  0
 53 54  1  0
 54109  1  0
 54108  1  0
 54107  1  0
 56 57  1  0
 57 58  1  0
 57110  1  0
 57111  1  0
 58 59  1  6
 58 61  1  0
 58 60  1  0
 60112  1  0
 61 63  1  0
 61 64  1  0
 61 62  1  1
 63113  1  0
 64 65  1  6
 64 66  1  0
 66114  1  0
M  END
>  <id>  (287) 
389

>  <scaffolds>  (287) 
['C1=C2CCCCC2C2CCC3CCCC3C2C1', 'C1=CCCCC1', 'C1=CCC2CCCCC2C1', 'C1=C2CCCCC2C2CCC3CC(OC4CCCCO4)CC3C2C1', 'C1CCOCC1', 'C1CCCCC1', 'C1=C2CCCCC2C2CCC3CC(OC4CC(OC5CCCCO5)CCO4)CC3C2C1', 'C1=C2CCCCC2CCC1']

>  <name>  (287) 
3[beta]P,16[beta]P,17[alpha]-trihydroxycholest-5-en-22-one 16-O-[beta]-d-xylopyranosyl-(1[to]3)-(2-O-acetyl-[alpha]-l-arabinopyranoside)

>  <formula>  (287) 
C39H62O13

>  <SMILES>  (287) 
[H][C@@]6(O[C@H]5[C@@H](O)CO[C@@]([H])(O[C@H]4C[C@@]3([H])[C@]2([H])CC=C1C[C@@H](O)CC[C@]1(C)[C@@]2([H])CC[C@]3(C)[C@@]4(O)[C@H](C)C(=O)CCC(C)C)[C@@H]5OC(C)=O)OC[C@@H](O)[C@H](O)[C@H]6O

>  <ChEMBL_id>  (287) 


>  <ZINC_id>  (287) 


>  <PubChem_id>  (287) 


>  <DrugBank_id>  (287) 


>  <CAS_no>  (287) 
145075-80-5

>  <references>  (287) 
[{'journal': {'name': 'Phytochemistry', 'id': 10}, 'title': 'Acylated cholestane glycosides from the bulbs of Ornithogalum saundersiae', 'year': 1992, 'start_page': 3969, 'volume': 31, 'issue': 11, 'doi': '10.1016/S0031-9422(00)97565-4', 'isbn': '', 'despositor': {'code': 'NFA', 'first_name': 'Ngonidzashe', 'last_name': 'Faya', 'id': 21}, 'refauthors_set': [{'author': {'first_name': 'Satoshi', 'initials': 'S', 'last_name': 'Kubo', 'id': 646}, 'first_author': True, 'id': 888}, {'author': {'first_name': 'Yoshihiro ', 'initials': 'Y', 'last_name': 'Mimaki', 'id': 643}, 'first_author': None, 'id': 1173}, {'author': {'first_name': 'Miki', 'initials': 'M', 'last_name': 'Terao', 'id': 647}, 'first_author': None, 'id': 1174}, {'author': {'first_name': 'Yutaka', 'initials': 'Y', 'last_name': 'Sashida', 'id': 645}, 'first_author': None, 'id': 1175}, {'author': {'first_name': 'Tamotsu', 'initials': 'T', 'last_name': 'Nikaido', 'id': 648}, 'first_author': None, 'id': 1176}, {'author': {'first_name': 'Taichi', 'initials': 'T', 'last_name': 'Ohmoto', 'id': 649}, 'first_author': None, 'id': 1177}], 'id': 303}]

>  <classifications>  (287) 
[{'classification': 'Cholestane', 'id': 761}, {'classification': 'Glycoside', 'id': 781}, {'classification': 'Steroids and steroid derivatives (Classyfire)', 'id': 942}]

>  <molecular_mass>  (287) 
738.9

$$$$
SANC00390_minRM1.pdb
     RDKit          3D

130136  0  0  1  0  0  0  0  0999 V2000
   -0.2870    2.0000   -2.2090 H   0  0  0  0  0  0  0  0  0  0  0  0
   -0.1630    1.7420   -1.1160 C   0  0  2  0  0  0  0  0  0  0  0  0
    0.6970    0.6620   -0.9000 O   0  0  0  0  0  0  0  0  0  0  0  0
    1.9860    0.8020   -1.4350 C   0  0  1  0  0  0  0  0  0  0  0  0
    1.9740    1.4610   -2.3500 H   0  0  0  0  0  0  0  0  0  0  0  0
    2.9680    1.4110   -0.4160 C   0  0  0  0  0  0  0  0  0  0  0  0
    4.2930    0.8310   -0.8950 C   0  0  1  0  0  0  0  0  0  0  0  0
    4.5210    1.2980   -1.8940 H   0  0  0  0  0  0  0  0  0  0  0  0
    5.5120    1.0270   -0.0070 C   0  0  2  0  0  0  0  0  0  0  0  0
    5.3360    0.5830    1.0030 H   0  0  0  0  0  0  0  0  0  0  0  0
    5.7970    2.5190    0.1780 C   0  0  0  0  0  0  0  0  0  0  0  0
    7.1340    2.7480    0.7820 C   0  0  0  0  0  0  0  0  0  0  0  0
    8.1050    1.8350    0.8120 C   0  0  0  0  0  0  0  0  0  0  0  0
    9.3940    2.1410    1.4990 C   0  0  0  0  0  0  0  0  0  0  0  0
   10.5820    1.7950    0.5890 C   0  0  1  0  0  0  0  0  0  0  0  0
   10.5680    2.4520   -0.3240 H   0  0  0  0  0  0  0  0  0  0  0  0
   11.7910    1.9300    1.2810 O   0  0  0  0  0  0  0  0  0  0  0  0
   10.5060    0.3210    0.1850 C   0  0  0  0  0  0  0  0  0  0  0  0
    9.2050    0.0750   -0.5650 C   0  0  0  0  0  0  0  0  0  0  0  0
    7.9560    0.4500    0.2500 C   0  0  1  0  0  0  0  0  0  0  0  0
    7.7920   -0.5110    1.4290 C   0  0  0  0  0  0  0  0  0  0  0  0
    6.7260    0.3810   -0.6940 C   0  0  1  0  0  0  0  0  0  0  0  0
    6.9530    0.9860   -1.6120 H   0  0  0  0  0  0  0  0  0  0  0  0
    6.4540   -1.0590   -1.1500 C   0  0  0  0  0  0  0  0  0  0  0  0
    5.1450   -1.2220   -1.9290 C   0  0  0  0  0  0  0  0  0  0  0  0
    3.9830   -0.6610   -1.1050 C   0  0  1  0  0  0  0  0  0  0  0  0
    3.9240   -1.4360    0.2080 C   0  0  0  0  0  0  0  0  0  0  0  0
    2.5790   -0.6120   -1.8170 C   0  0  2  0  0  0  0  0  0  0  0  0
    2.8950   -0.5880   -3.1820 O   0  0  0  0  0  0  0  0  0  0  0  0
    1.6790   -1.8490   -1.5770 C   0  0  2  0  0  0  0  0  0  0  0  0
    2.3180   -2.7380   -1.8350 H   0  0  0  0  0  0  0  0  0  0  0  0
    0.4650   -1.8720   -2.5060 C   0  0  0  0  0  0  0  0  0  0  0  0
    1.1480   -2.0270   -0.1650 C   0  0  0  0  0  0  0  0  0  0  0  0
    0.9110   -1.1040    0.5860 O   0  0  0  0  0  0  0  0  0  0  0  0
    0.8930   -3.4640    0.2490 C   0  0  0  0  0  0  0  0  0  0  0  0
    0.5030   -3.5680    1.7210 C   0  0  0  0  0  0  0  0  0  0  0  0
    0.2150   -5.0160    2.1320 C   0  0  1  0  0  0  0  0  0  0  0  0
    1.4880   -5.8550    2.1230 C   0  0  0  0  0  0  0  0  0  0  0  0
   -0.3940   -5.0340    3.5320 C   0  0  0  0  0  0  0  0  0  0  0  0
    0.4240    2.8070   -0.4050 O   0  0  0  0  0  0  0  0  0  0  0  0
   -0.3580    3.9660   -0.3700 C   0  0  0  0  0  0  0  0  0  0  0  0
   -1.7010    3.7050    0.3490 C   0  0  2  0  0  0  0  0  0  0  0  0
   -2.3190    4.6430    0.3560 H   0  0  0  0  0  0  0  0  0  0  0  0
   -1.5140    3.2200    1.6400 O   0  0  0  0  0  0  0  0  0  0  0  0
   -2.4270    2.5800   -0.4240 C   0  0  2  0  0  0  0  0  0  0  0  0
   -2.6510    2.9380   -1.4650 H   0  0  0  0  0  0  0  0  0  0  0  0
   -3.5700    2.1930    0.2960 O   0  0  0  0  0  0  0  0  0  0  0  0
   -4.7920    2.6160   -0.2330 C   0  0  2  0  0  0  0  0  0  0  0  0
   -4.9580    2.2860   -1.3000 H   0  0  0  0  0  0  0  0  0  0  0  0
   -4.7450    4.0210   -0.1270 O   0  0  0  0  0  0  0  0  0  0  0  0
   -5.9460    4.6480   -0.4740 C   0  0  0  0  0  0  0  0  0  0  0  0
   -7.0590    4.2150    0.5040 C   0  0  1  0  0  0  0  0  0  0  0  0
   -6.7980    4.5110    1.5560 H   0  0  0  0  0  0  0  0  0  0  0  0
   -8.2830    4.7440    0.0890 O   0  0  0  0  0  0  0  0  0  0  0  0
   -7.2290    2.6770    0.4080 C   0  0  2  0  0  0  0  0  0  0  0  0
   -7.5740    2.3840   -0.6230 H   0  0  0  0  0  0  0  0  0  0  0  0
   -8.0970    2.2170    1.3910 O   0  0  0  0  0  0  0  0  0  0  0  0
   -5.8610    2.0310    0.7370 C   0  0  1  0  0  0  0  0  0  0  0  0
   -5.5720    2.2230    1.8060 H   0  0  0  0  0  0  0  0  0  0  0  0
   -5.9540    0.6730    0.3870 O   0  0  0  0  0  0  0  0  0  0  0  0
   -5.9700   -0.2800    1.3640 C   0  0  0  0  0  0  0  0  0  0  0  0
   -5.9310    0.0120    2.5390 O   0  0  0  0  0  0  0  0  0  0  0  0
   -6.0140   -1.6280    0.7790 C   0  0  0  0  0  0  0  0  0  0  0  0
   -6.8860   -1.9330   -0.2640 C   0  0  0  0  0  0  0  0  0  0  0  0
   -6.9230   -3.2160   -0.7780 C   0  0  0  0  0  0  0  0  0  0  0  0
   -6.0660   -4.1880   -0.2390 C   0  0  0  0  0  0  0  0  0  0  0  0
   -6.1920   -5.4050   -0.8340 O   0  0  0  0  0  0  0  0  0  0  0  0
   -5.4270   -6.4670   -0.3160 C   0  0  0  0  0  0  0  0  0  0  0  0
   -5.1820   -3.8870    0.7960 C   0  0  0  0  0  0  0  0  0  0  0  0
   -5.1650   -2.5950    1.3070 C   0  0  0  0  0  0  0  0  0  0  0  0
   -1.5150    1.3280   -0.4640 C   0  0  1  0  0  0  0  0  0  0  0  0
   -1.3440    0.9070    0.5660 H   0  0  0  0  0  0  0  0  0  0  0  0
   -2.1230    0.4450   -1.3790 O   0  0  0  0  0  0  0  0  0  0  0  0
   -2.7030   -0.7020   -0.9370 C   0  0  0  0  0  0  0  0  0  0  0  0
   -3.4760   -1.3620   -2.0350 C   0  0  0  0  0  0  0  0  0  0  0  0
   -2.5670   -1.0970    0.2010 O   0  0  0  0  0  0  0  0  0  0  0  0
    2.9520    2.5170   -0.4240 H   0  0  0  0  0  0  0  0  0  0  0  0
    2.7130    1.1360    0.6260 H   0  0  0  0  0  0  0  0  0  0  0  0
    5.7400    3.0720   -0.7860 H   0  0  0  0  0  0  0  0  0  0  0  0
    5.0110    2.9830    0.8130 H   0  0  0  0  0  0  0  0  0  0  0  0
    7.2800    3.7480    1.2070 H   0  0  0  0  0  0  0  0  0  0  0  0
    9.4550    3.2060    1.8110 H   0  0  0  0  0  0  0  0  0  0  0  0
    9.4550    1.5810    2.4570 H   0  0  0  0  0  0  0  0  0  0  0  0
   11.8820    2.8510    1.5330 H   0  0  0  0  0  0  0  0  0  0  0  0
   11.3760    0.0500   -0.4510 H   0  0  0  0  0  0  0  0  0  0  0  0
   10.6040   -0.3400    1.0700 H   0  0  0  0  0  0  0  0  0  0  0  0
    9.2220    0.6390   -1.5220 H   0  0  0  0  0  0  0  0  0  0  0  0
    9.1580   -0.9910   -0.8700 H   0  0  0  0  0  0  0  0  0  0  0  0
    8.6880   -0.5790    2.0610 H   0  0  0  0  0  0  0  0  0  0  0  0
    6.9710   -0.2150    2.0990 H   0  0  0  0  0  0  0  0  0  0  0  0
    7.5730   -1.5410    1.1010 H   0  0  0  0  0  0  0  0  0  0  0  0
    7.2910   -1.4220   -1.7840 H   0  0  0  0  0  0  0  0  0  0  0  0
    6.4540   -1.7500   -0.2730 H   0  0  0  0  0  0  0  0  0  0  0  0
    5.2440   -0.7220   -2.9160 H   0  0  0  0  0  0  0  0  0  0  0  0
    4.9700   -2.2890   -2.1790 H   0  0  0  0  0  0  0  0  0  0  0  0
    4.9140   -1.5370    0.6890 H   0  0  0  0  0  0  0  0  0  0  0  0
    3.2880   -0.9710    0.9710 H   0  0  0  0  0  0  0  0  0  0  0  0
    3.6000   -2.4780    0.0740 H   0  0  0  0  0  0  0  0  0  0  0  0
    2.0990   -0.3980   -3.6870 H   0  0  0  0  0  0  0  0  0  0  0  0
   -0.1060   -0.9340   -2.5120 H   0  0  0  0  0  0  0  0  0  0  0  0
    0.7440   -2.0900   -3.5510 H   0  0  0  0  0  0  0  0  0  0  0  0
   -0.2550   -2.6610   -2.2350 H   0  0  0  0  0  0  0  0  0  0  0  0
    0.0980   -3.8950   -0.3950 H   0  0  0  0  0  0  0  0  0  0  0  0
    1.7920   -4.0820    0.0370 H   0  0  0  0  0  0  0  0  0  0  0  0
    1.3000   -3.1310    2.3590 H   0  0  0  0  0  0  0  0  0  0  0  0
   -0.3870   -2.9310    1.9160 H   0  0  0  0  0  0  0  0  0  0  0  0
   -0.5210   -5.4650    1.4160 H   0  0  0  0  0  0  0  0  0  0  0  0
    1.9410   -5.9240    1.1240 H   0  0  0  0  0  0  0  0  0  0  0  0
    2.2600   -5.4520    2.7950 H   0  0  0  0  0  0  0  0  0  0  0  0
    1.3010   -6.8900    2.4470 H   0  0  0  0  0  0  0  0  0  0  0  0
   -1.3430   -4.4810    3.5790 H   0  0  0  0  0  0  0  0  0  0  0  0
   -0.6090   -6.0560    3.8760 H   0  0  0  0  0  0  0  0  0  0  0  0
    0.2710   -4.5810    4.2810 H   0  0  0  0  0  0  0  0  0  0  0  0
    0.2770    4.6970    0.1730 H   0  0  0  0  0  0  0  0  0  0  0  0
   -0.5290    4.3930   -1.3850 H   0  0  0  0  0  0  0  0  0  0  0  0
   -0.9350    3.8310    2.1020 H   0  0  0  0  0  0  0  0  0  0  0  0
   -5.7210    5.7340   -0.4020 H   0  0  0  0  0  0  0  0  0  0  0  0
   -6.2410    4.4570   -1.5320 H   0  0  0  0  0  0  0  0  0  0  0  0
   -8.2840    5.6800    0.3110 H   0  0  0  0  0  0  0  0  0  0  0  0
   -8.9730    2.5600    1.1840 H   0  0  0  0  0  0  0  0  0  0  0  0
   -7.5460   -1.1610   -0.6730 H   0  0  0  0  0  0  0  0  0  0  0  0
   -7.6100   -3.4740   -1.5890 H   0  0  0  0  0  0  0  0  0  0  0  0
   -4.3410   -6.3220   -0.4350 H   0  0  0  0  0  0  0  0  0  0  0  0
   -5.6510   -6.6870    0.7430 H   0  0  0  0  0  0  0  0  0  0  0  0
   -5.7330   -7.3280   -0.9340 H   0  0  0  0  0  0  0  0  0  0  0  0
   -4.4960   -4.6270    1.2180 H   0  0  0  0  0  0  0  0  0  0  0  0
   -4.4730   -2.3360    2.1190 H   0  0  0  0  0  0  0  0  0  0  0  0
   -2.8010   -1.8220   -2.7710 H   0  0  0  0  0  0  0  0  0  0  0  0
   -4.1300   -2.1510   -1.6300 H   0  0  0  0  0  0  0  0  0  0  0  0
   -4.1190   -0.6530   -2.5770 H   0  0  0  0  0  0  0  0  0  0  0  0
  2  1  1  6
  2  3  1  0
  2 71  1  0
  2 40  1  0
  3  4  1  0
  4  5  1  6
  4 28  1  0
  4  6  1  0
  6  7  1  0
  6 77  1  0
  6 78  1  0
  7  8  1  6
  7 26  1  0
  7  9  1  0
  9 22  1  0
  9 11  1  0
  9 10  1  1
 11 79  1  0
 11 12  1  0
 11 80  1  0
 12 13  2  0
 12 81  1  0
 13 20  1  0
 13 14  1  0
 14 15  1  0
 14 82  1  0
 14 83  1  0
 15 16  1  6
 15 18  1  0
 15 17  1  0
 17 84  1  0
 18 19  1  0
 18 85  1  0
 18 86  1  0
 19 87  1  0
 19 88  1  0
 19 20  1  0
 20 22  1  0
 20 21  1  1
 21 91  1  0
 21 89  1  0
 21 90  1  0
 22 23  1  6
 22 24  1  0
 24 25  1  0
 24 92  1  0
 24 93  1  0
 25 94  1  0
 25 95  1  0
 25 26  1  0
 26 28  1  0
 26 27  1  1
 27 98  1  0
 27 96  1  0
 27 97  1  0
 28 29  1  6
 28 30  1  0
 29 99  1  0
 30 32  1  0
 30 31  1  6
 30 33  1  0
 32101  1  0
 32100  1  0
 32102  1  0
 33 35  1  0
 33 34  2  0
 35103  1  0
 35104  1  0
 35 36  1  0
 36106  1  0
 36 37  1  0
 36105  1  0
 37107  1  6
 37 38  1  0
 37 39  1  0
 38108  1  0
 38110  1  0
 38109  1  0
 39111  1  0
 39112  1  0
 39113  1  0
 40 41  1  0
 41115  1  0
 41114  1  0
 41 42  1  0
 42 45  1  0
 42 43  1  1
 42 44  1  0
 44116  1  0
 45 46  1  6
 45 71  1  0
 45 47  1  0
 47 48  1  0
 48 49  1  6
 48 50  1  0
 48 58  1  0
 50 51  1  0
 51118  1  0
 51117  1  0
 51 52  1  0
 52 54  1  0
 52 55  1  0
 52 53  1  1
 54119  1  0
 55 56  1  6
 55 58  1  0
 55 57  1  0
 57120  1  0
 58 60  1  0
 58 59  1  1
 60 61  1  0
 61 63  1  0
 61 62  2  0
 63 64  2  0
 63 70  1  0
 64 65  1  0
 64121  1  0
 65122  1  0
 65 66  2  0
 66 67  1  0
 66 69  1  0
 67 68  1  0
 68125  1  0
 68123  1  0
 68124  1  0
 69126  1  0
 69 70  2  0
 70127  1  0
 71 73  1  0
 71 72  1  1
 73 74  1  0
 74 75  1  0
 74 76  2  0
 75128  1  0
 75130  1  0
 75129  1  0
M  END
>  <id>  (288) 
390

>  <scaffolds>  (288) 
['c1ccccc1', 'C1=C2CCCCC2C2CCC3CCCC3C2C1', 'C1=CCCCC1', 'C1=CCC2CCCCC2C1', 'C1=C2CCCCC2C2CCC3CC(OC4CCCCO4)CC3C2C1', 'C1CCOCC1', 'C1CCCCC1', 'O=C(OC1CCCOC1OC1CCOC(OC2CC3CCC4C5CCCCC5=CCC4C3C2)C1)c1ccccc1', 'C1=C2CCCCC2C2CCC3CC(OC4CC(OC5CCCCO5)CCO4)CC3C2C1', 'C1=C2CCCCC2CCC1']

>  <name>  (288) 
3[beta],16[beta],17[alpha]-trihydroxycholest-5-en-22-one 16-O-(2-O-4-methoxybenzoyl-[beta]P-d-xylopyranosyl)-(1[to]3)-(2-O-acetyl-[alpha]-l-arabinopyranoside)

>  <formula>  (288) 
C47H68O15

>  <SMILES>  (288) 
[H][C@@]7(O[C@H]4C[C@@]3([H])[C@]2([H])CC=C1C[C@@H](O)CC[C@]1(C)[C@@]2([H])CC[C@]3(C)[C@@]4(O)[C@H](C)C(=O)CCC(C)C)OC[C@H](O)[C@H](O[C@]5([H])OC[C@@H](O)[C@H](O)[C@H]5OC(=O)c6ccc(OC)cc6)[C@H]7OC(C)=O

>  <ChEMBL_id>  (288) 


>  <ZINC_id>  (288) 


>  <PubChem_id>  (288) 


>  <DrugBank_id>  (288) 


>  <CAS_no>  (288) 
145075-81-6

>  <references>  (288) 
[{'journal': {'name': 'Phytochemistry', 'id': 10}, 'title': 'Acylated cholestane glycosides from the bulbs of Ornithogalum saundersiae', 'year': 1992, 'start_page': 3969, 'volume': 31, 'issue': 11, 'doi': '10.1016/S0031-9422(00)97565-4', 'isbn': '', 'despositor': {'code': 'NFA', 'first_name': 'Ngonidzashe', 'last_name': 'Faya', 'id': 21}, 'refauthors_set': [{'author': {'first_name': 'Satoshi', 'initials': 'S', 'last_name': 'Kubo', 'id': 646}, 'first_author': True, 'id': 888}, {'author': {'first_name': 'Yoshihiro ', 'initials': 'Y', 'last_name': 'Mimaki', 'id': 643}, 'first_author': None, 'id': 1173}, {'author': {'first_name': 'Miki', 'initials': 'M', 'last_name': 'Terao', 'id': 647}, 'first_author': None, 'id': 1174}, {'author': {'first_name': 'Yutaka', 'initials': 'Y', 'last_name': 'Sashida', 'id': 645}, 'first_author': None, 'id': 1175}, {'author': {'first_name': 'Tamotsu', 'initials': 'T', 'last_name': 'Nikaido', 'id': 648}, 'first_author': None, 'id': 1176}, {'author': {'first_name': 'Taichi', 'initials': 'T', 'last_name': 'Ohmoto', 'id': 649}, 'first_author': None, 'id': 1177}], 'id': 303}, {'journal': {'name': 'Bioorganic & Medicinal Chemistry Letters', 'id': 28}, 'title': 'Cholestane glycosides with potent cytostatic activities on various tumor cells from Ornithogalum saundersiae bulbs', 'year': 1997, 'start_page': 633, 'volume': 7, 'issue': 5, 'doi': '10.1016/S0960-894X(97)00071-1', 'isbn': '', 'despositor': {'code': 'NFA', 'first_name': 'Ngonidzashe', 'last_name': 'Faya', 'id': 21}, 'refauthors_set': [{'author': {'first_name': 'Yoshihiro ', 'initials': 'Y', 'last_name': 'Mimaki', 'id': 643}, 'first_author': True, 'id': 890}, {'author': {'first_name': 'Minpei', 'initials': 'M', 'last_name': 'Kuroda', 'id': 644}, 'first_author': None, 'id': 1217}, {'author': {'first_name': 'Aiko', 'initials': 'A', 'last_name': 'Kameyama', 'id': 652}, 'first_author': None, 'id': 1218}, {'author': {'first_name': 'Yutaka', 'initials': 'Y', 'last_name': 'Sashida', 'id': 645}, 'first_author': None, 'id': 1219}, {'author': {'first_name': 'Kitaro ', 'initials': 'K', 'last_name': 'Oka', 'id': 642}, 'first_author': None, 'id': 1220}], 'id': 305}, {'journal': {'name': 'Journal of Natural Products', 'id': 5}, 'title': 'Cytotoxic Cholestane Glycosides from the Bulbs of Ornithogalum saundersiae', 'year': 2001, 'start_page': 88, 'volume': 64, 'issue': 1, 'doi': '10.1021/np0003084', 'isbn': '', 'despositor': {'code': 'NFA', 'first_name': 'Ngonidzashe', 'last_name': 'Faya', 'id': 21}, 'refauthors_set': [{'author': {'first_name': 'Minpei', 'initials': 'M', 'last_name': 'Kuroda', 'id': 644}, 'first_author': True, 'id': 1030}, {'author': {'first_name': 'Yoshihiro ', 'initials': 'Y', 'last_name': 'Mimaki', 'id': 643}, 'first_author': None, 'id': 1195}, {'author': {'first_name': 'Akihito ', 'initials': 'A', 'last_name': 'Yokosuka', 'id': 650}, 'first_author': None, 'id': 1196}, {'author': {'first_name': 'Yutaka', 'initials': 'Y', 'last_name': 'Sashida', 'id': 645}, 'first_author': None, 'id': 1197}, {'author': {'first_name': 'John', 'initials': 'JA', 'last_name': 'Beutler', 'id': 710}, 'first_author': None, 'id': 1198}], 'id': 340}]

>  <classifications>  (288) 
[{'classification': 'Cholestane', 'id': 761}, {'classification': 'Glycoside', 'id': 781}, {'classification': 'Steroids and steroid derivatives (Classyfire)', 'id': 942}]

>  <molecular_mass>  (288) 
873.03

$$$$
SANC00391_minRM1.pdb
     RDKit          3D

134140  0  0  1  0  0  0  0  0999 V2000
    0.0630    2.2440    2.1220 H   0  0  0  0  0  0  0  0  0  0  0  0
   -0.0430    1.9500    1.0370 C   0  0  2  0  0  0  0  0  0  0  0  0
   -0.8680    0.8400    0.8430 O   0  0  0  0  0  0  0  0  0  0  0  0
   -2.1600    0.9470    1.3790 C   0  0  1  0  0  0  0  0  0  0  0  0
   -2.1740    1.6410    2.2670 H   0  0  0  0  0  0  0  0  0  0  0  0
   -3.1700    1.4740    0.3410 C   0  0  0  0  0  0  0  0  0  0  0  0
   -4.4680    0.8730    0.8660 C   0  0  1  0  0  0  0  0  0  0  0  0
   -4.6970    1.3780    1.8460 H   0  0  0  0  0  0  0  0  0  0  0  0
   -5.7080    0.9890   -0.0080 C   0  0  2  0  0  0  0  0  0  0  0  0
   -5.5370    0.5040   -1.0010 H   0  0  0  0  0  0  0  0  0  0  0  0
   -6.0460    2.4610   -0.2560 C   0  0  0  0  0  0  0  0  0  0  0  0
   -7.3990    2.6180   -0.8490 C   0  0  0  0  0  0  0  0  0  0  0  0
   -8.3390    1.6730   -0.8180 C   0  0  0  0  0  0  0  0  0  0  0  0
   -9.6510    1.9070   -1.4940 C   0  0  0  0  0  0  0  0  0  0  0  0
  -10.8110    1.5670   -0.5480 C   0  0  1  0  0  0  0  0  0  0  0  0
  -10.8030    2.2670    0.3340 H   0  0  0  0  0  0  0  0  0  0  0  0
  -12.0380    1.6330   -1.2230 O   0  0  0  0  0  0  0  0  0  0  0  0
  -10.6780    0.1140   -0.0760 C   0  0  0  0  0  0  0  0  0  0  0  0
   -9.3570   -0.0540    0.6620 C   0  0  0  0  0  0  0  0  0  0  0  0
   -8.1350    0.3220   -0.1920 C   0  0  1  0  0  0  0  0  0  0  0  0
   -7.9550   -0.6900   -1.3280 C   0  0  0  0  0  0  0  0  0  0  0  0
   -6.8880    0.3380    0.7320 C   0  0  1  0  0  0  0  0  0  0  0  0
   -7.1200    0.9790    1.6240 H   0  0  0  0  0  0  0  0  0  0  0  0
   -6.5620   -1.0690    1.2510 C   0  0  0  0  0  0  0  0  0  0  0  0
   -5.2350   -1.1530    2.0110 C   0  0  0  0  0  0  0  0  0  0  0  0
   -4.1070   -0.5980    1.1360 C   0  0  1  0  0  0  0  0  0  0  0  0
   -4.0540   -1.4320   -0.1400 C   0  0  0  0  0  0  0  0  0  0  0  0
   -2.6920   -0.4750    1.8160 C   0  0  2  0  0  0  0  0  0  0  0  0
   -2.9770   -0.4240    3.1870 O   0  0  0  0  0  0  0  0  0  0  0  0
   -1.7530   -1.6860    1.5870 C   0  0  2  0  0  0  0  0  0  0  0  0
   -2.3580   -2.5900    1.8700 H   0  0  0  0  0  0  0  0  0  0  0  0
   -0.5270   -1.6530    2.5000 C   0  0  0  0  0  0  0  0  0  0  0  0
   -1.2390   -1.8690    0.1690 C   0  0  0  0  0  0  0  0  0  0  0  0
   -1.0740   -0.9550   -0.6090 O   0  0  0  0  0  0  0  0  0  0  0  0
   -0.9070   -3.2980   -0.2160 C   0  0  0  0  0  0  0  0  0  0  0  0
   -0.6390   -3.4280   -1.7120 C   0  0  0  0  0  0  0  0  0  0  0  0
   -0.2940   -4.8680   -2.1040 C   0  0  1  0  0  0  0  0  0  0  0  0
   -1.4910   -5.7920   -1.9130 C   0  0  0  0  0  0  0  0  0  0  0  0
    0.1460   -4.9030   -3.5660 C   0  0  0  0  0  0  0  0  0  0  0  0
   -0.6560    2.9760    0.2890 O   0  0  0  0  0  0  0  0  0  0  0  0
    0.0920    4.1560    0.2240 C   0  0  0  0  0  0  0  0  0  0  0  0
    1.4520    3.9160   -0.4690 C   0  0  2  0  0  0  0  0  0  0  0  0
    2.0420    4.8720   -0.4940 H   0  0  0  0  0  0  0  0  0  0  0  0
    1.2960    3.3860   -1.7470 O   0  0  0  0  0  0  0  0  0  0  0  0
    2.2010    2.8370    0.3460 C   0  0  2  0  0  0  0  0  0  0  0  0
    2.3970    3.2330    1.3800 H   0  0  0  0  0  0  0  0  0  0  0  0
    3.3690    2.4660   -0.3390 O   0  0  0  0  0  0  0  0  0  0  0  0
    4.5670    2.9360    0.2020 C   0  0  2  0  0  0  0  0  0  0  0  0
    4.7050    2.6630    1.2870 H   0  0  0  0  0  0  0  0  0  0  0  0
    4.4940    4.3340    0.0300 O   0  0  0  0  0  0  0  0  0  0  0  0
    5.6750    5.0000    0.3790 C   0  0  0  0  0  0  0  0  0  0  0  0
    6.8280    4.5430   -0.5410 C   0  0  1  0  0  0  0  0  0  0  0  0
    6.5960    4.7800   -1.6140 H   0  0  0  0  0  0  0  0  0  0  0  0
    8.0240    5.1190   -0.1130 O   0  0  0  0  0  0  0  0  0  0  0  0
    7.0230    3.0180   -0.3570 C   0  0  2  0  0  0  0  0  0  0  0  0
    7.3350    2.7850    0.6970 H   0  0  0  0  0  0  0  0  0  0  0  0
    7.9340    2.5250   -1.2870 O   0  0  0  0  0  0  0  0  0  0  0  0
    5.6790    2.3290   -0.7000 C   0  0  1  0  0  0  0  0  0  0  0  0
    5.4220    2.4630   -1.7860 H   0  0  0  0  0  0  0  0  0  0  0  0
    5.7810    0.9910   -0.2820 O   0  0  0  0  0  0  0  0  0  0  0  0
    5.9430    0.0050   -1.2080 C   0  0  0  0  0  0  0  0  0  0  0  0
    6.0070    0.2460   -2.3930 O   0  0  0  0  0  0  0  0  0  0  0  0
    5.9880   -1.3160   -0.5580 C   0  0  0  0  0  0  0  0  0  0  0  0
    6.7810   -1.5410    0.5520 C   0  0  0  0  0  0  0  0  0  0  0  0
    6.8110   -2.8040    1.1420 C   0  0  0  0  0  0  0  0  0  0  0  0
    6.0320   -3.8190    0.6110 C   0  0  0  0  0  0  0  0  0  0  0  0
    5.9350   -5.0870    1.0900 O   0  0  0  0  0  0  0  0  0  0  0  0
    6.8370   -5.4550    2.1050 C   0  0  0  0  0  0  0  0  0  0  0  0
    5.2170   -3.5790   -0.5240 C   0  0  0  0  0  0  0  0  0  0  0  0
    4.5130   -4.6710   -0.9310 O   0  0  0  0  0  0  0  0  0  0  0  0
    3.6330   -4.4880   -2.0150 C   0  0  0  0  0  0  0  0  0  0  0  0
    5.1990   -2.3270   -1.1150 C   0  0  0  0  0  0  0  0  0  0  0  0
    1.3270    1.5590    0.4090 C   0  0  1  0  0  0  0  0  0  0  0  0
    1.1810    1.1060   -0.6110 H   0  0  0  0  0  0  0  0  0  0  0  0
    1.9520    0.7200    1.3530 O   0  0  0  0  0  0  0  0  0  0  0  0
    2.5490   -0.4340    0.9500 C   0  0  0  0  0  0  0  0  0  0  0  0
    3.3420   -1.0390    2.0640 C   0  0  0  0  0  0  0  0  0  0  0  0
    2.4060   -0.8780   -0.1700 O   0  0  0  0  0  0  0  0  0  0  0  0
   -3.1880    2.5790    0.2970 H   0  0  0  0  0  0  0  0  0  0  0  0
   -2.9160    1.1570   -0.6890 H   0  0  0  0  0  0  0  0  0  0  0  0
   -5.9930    3.0610    0.6800 H   0  0  0  0  0  0  0  0  0  0  0  0
   -5.2850    2.9220   -0.9230 H   0  0  0  0  0  0  0  0  0  0  0  0
   -7.5830    3.5900   -1.3210 H   0  0  0  0  0  0  0  0  0  0  0  0
   -9.7520    2.9540   -1.8550 H   0  0  0  0  0  0  0  0  0  0  0  0
   -9.7100    1.3000   -2.4260 H   0  0  0  0  0  0  0  0  0  0  0  0
  -12.1600    2.5360   -1.5220 H   0  0  0  0  0  0  0  0  0  0  0  0
  -11.5290   -0.1520    0.5880 H   0  0  0  0  0  0  0  0  0  0  0  0
  -10.7720   -0.5920   -0.9280 H   0  0  0  0  0  0  0  0  0  0  0  0
   -9.3780    0.5560    1.5930 H   0  0  0  0  0  0  0  0  0  0  0  0
   -9.2710   -1.1040    1.0170 H   0  0  0  0  0  0  0  0  0  0  0  0
   -8.8500   -0.8000   -1.9560 H   0  0  0  0  0  0  0  0  0  0  0  0
   -7.1380   -0.4120   -2.0100 H   0  0  0  0  0  0  0  0  0  0  0  0
   -7.7190   -1.7000   -0.9520 H   0  0  0  0  0  0  0  0  0  0  0  0
   -7.3760   -1.4250    1.9190 H   0  0  0  0  0  0  0  0  0  0  0  0
   -6.5560   -1.8010    0.4100 H   0  0  0  0  0  0  0  0  0  0  0  0
   -5.3300   -0.6090    2.9750 H   0  0  0  0  0  0  0  0  0  0  0  0
   -5.0200   -2.2010    2.3080 H   0  0  0  0  0  0  0  0  0  0  0  0
   -5.0530   -1.6040   -0.5820 H   0  0  0  0  0  0  0  0  0  0  0  0
   -3.4670   -0.9740   -0.9450 H   0  0  0  0  0  0  0  0  0  0  0  0
   -3.6740   -2.4490    0.0300 H   0  0  0  0  0  0  0  0  0  0  0  0
   -2.1800   -0.1790    3.6660 H   0  0  0  0  0  0  0  0  0  0  0  0
    0.0160   -0.6970    2.4750 H   0  0  0  0  0  0  0  0  0  0  0  0
   -0.7830   -1.8520    3.5530 H   0  0  0  0  0  0  0  0  0  0  0  0
    0.2120   -2.4270    2.2370 H   0  0  0  0  0  0  0  0  0  0  0  0
   -0.0230   -3.6360    0.3660 H   0  0  0  0  0  0  0  0  0  0  0  0
   -1.7280   -3.9780    0.0950 H   0  0  0  0  0  0  0  0  0  0  0  0
   -1.5140   -3.0630   -2.2890 H   0  0  0  0  0  0  0  0  0  0  0  0
    0.1900   -2.7460   -2.0020 H   0  0  0  0  0  0  0  0  0  0  0  0
    0.5540   -5.2320   -1.4670 H   0  0  0  0  0  0  0  0  0  0  0  0
   -2.3660   -5.4690   -2.4960 H   0  0  0  0  0  0  0  0  0  0  0  0
   -1.2680   -6.8220   -2.2260 H   0  0  0  0  0  0  0  0  0  0  0  0
   -1.8120   -5.8530   -0.8640 H   0  0  0  0  0  0  0  0  0  0  0  0
    1.0390   -4.2870   -3.7450 H   0  0  0  0  0  0  0  0  0  0  0  0
    0.3980   -5.9200   -3.8970 H   0  0  0  0  0  0  0  0  0  0  0  0
   -0.6350   -4.5340   -4.2460 H   0  0  0  0  0  0  0  0  0  0  0  0
   -0.5610    4.8470   -0.3510 H   0  0  0  0  0  0  0  0  0  0  0  0
    0.2360    4.6210    1.2270 H   0  0  0  0  0  0  0  0  0  0  0  0
    0.7210    3.9730   -2.2380 H   0  0  0  0  0  0  0  0  0  0  0  0
    5.4260    6.0720    0.2350 H   0  0  0  0  0  0  0  0  0  0  0  0
    5.9350    4.8740    1.4540 H   0  0  0  0  0  0  0  0  0  0  0  0
    8.0170    6.0410   -0.3850 H   0  0  0  0  0  0  0  0  0  0  0  0
    8.7960    2.9030   -1.0820 H   0  0  0  0  0  0  0  0  0  0  0  0
    7.3890   -0.7340    0.9700 H   0  0  0  0  0  0  0  0  0  0  0  0
    7.4550   -2.9590    2.0110 H   0  0  0  0  0  0  0  0  0  0  0  0
    7.8940   -5.3450    1.8200 H   0  0  0  0  0  0  0  0  0  0  0  0
    6.6620   -4.9200    3.0530 H   0  0  0  0  0  0  0  0  0  0  0  0
    6.6160   -6.5230    2.2620 H   0  0  0  0  0  0  0  0  0  0  0  0
    2.8430   -3.7430   -1.8200 H   0  0  0  0  0  0  0  0  0  0  0  0
    4.1500   -4.2350   -2.9550 H   0  0  0  0  0  0  0  0  0  0  0  0
    3.1600   -5.4810   -2.1200 H   0  0  0  0  0  0  0  0  0  0  0  0
    4.5810   -2.0970   -1.9890 H   0  0  0  0  0  0  0  0  0  0  0  0
    2.6810   -1.5260    2.7940 H   0  0  0  0  0  0  0  0  0  0  0  0
    4.0440   -1.7980    1.6790 H   0  0  0  0  0  0  0  0  0  0  0  0
    3.9390   -0.2900    2.6080 H   0  0  0  0  0  0  0  0  0  0  0  0
  2  1  1  1
  2 40  1  0
  2 73  1  0
  2  3  1  0
  3  4  1  0
  4  6  1  0
  4 28  1  0
  4  5  1  1
  6 80  1  0
  6 79  1  0
  6  7  1  0
  7  9  1  0
  7 26  1  0
  7  8  1  1
  9 10  1  6
  9 11  1  0
  9 22  1  0
 11 82  1  0
 11 12  1  0
 11 81  1  0
 12 83  1  0
 12 13  2  0
 13 14  1  0
 13 20  1  0
 14 85  1  0
 14 84  1  0
 14 15  1  0
 15 17  1  0
 15 18  1  0
 15 16  1  1
 17 86  1  0
 18 88  1  0
 18 87  1  0
 18 19  1  0
 19 20  1  0
 19 90  1  0
 19 89  1  0
 20 21  1  6
 20 22  1  0
 21 92  1  0
 21 91  1  0
 21 93  1  0
 22 24  1  0
 22 23  1  1
 24 95  1  0
 24 94  1  0
 24 25  1  0
 25 26  1  0
 25 97  1  0
 25 96  1  0
 26 27  1  6
 26 28  1  0
 27 99  1  0
 27 98  1  0
 27100  1  0
 28 30  1  0
 28 29  1  1
 29101  1  0
 30 33  1  0
 30 31  1  1
 30 32  1  0
 32104  1  0
 32102  1  0
 32103  1  0
 33 34  2  0
 33 35  1  0
 35 36  1  0
 35106  1  0
 35105  1  0
 36107  1  0
 36 37  1  0
 36108  1  0
 37 39  1  0
 37 38  1  0
 37109  1  1
 38110  1  0
 38111  1  0
 38112  1  0
 39115  1  0
 39114  1  0
 39113  1  0
 40 41  1  0
 41 42  1  0
 41116  1  0
 41117  1  0
 42 44  1  0
 42 43  1  6
 42 45  1  0
 44118  1  0
 45 47  1  0
 45 73  1  0
 45 46  1  1
 47 48  1  0
 48 58  1  0
 48 50  1  0
 48 49  1  1
 50 51  1  0
 51 52  1  0
 51119  1  0
 51120  1  0
 52 53  1  6
 52 55  1  0
 52 54  1  0
 54121  1  0
 55 57  1  0
 55 58  1  0
 55 56  1  1
 57122  1  0
 58 59  1  6
 58 60  1  0
 60 61  1  0
 61 62  2  0
 61 63  1  0
 63 72  2  0
 63 64  1  0
 64123  1  0
 64 65  2  0
 65 66  1  0
 65124  1  0
 66 69  2  0
 66 67  1  0
 67 68  1  0
 68125  1  0
 68127  1  0
 68126  1  0
 69 72  1  0
 69 70  1  0
 70 71  1  0
 71129  1  0
 71130  1  0
 71128  1  0
 72131  1  0
 73 74  1  6
 73 75  1  0
 75 76  1  0
 76 78  2  0
 76 77  1  0
 77133  1  0
 77134  1  0
 77132  1  0
M  END
>  <id>  (289) 
391

>  <scaffolds>  (289) 
['c1ccccc1', 'C1=C2CCCCC2C2CCC3CCCC3C2C1', 'C1=CCCCC1', 'C1=CCC2CCCCC2C1', 'C1=C2CCCCC2C2CCC3CC(OC4CCCCO4)CC3C2C1', 'C1CCOCC1', 'C1CCCCC1', 'O=C(OC1CCCOC1OC1CCOC(OC2CC3CCC4C5CCCCC5=CCC4C3C2)C1)c1ccccc1', 'C1=C2CCCCC2C2CCC3CC(OC4CC(OC5CCCCO5)CCO4)CC3C2C1', 'C1=C2CCCCC2CCC1']

>  <name>  (289) 
3[beta],16[beta],17[alpha]-trihydroxy-cholest-5-en-22-one 16-O-(2-O-3,4-dimethoxybenzoyl-[beta]-d-xylopyranosyl)-(1[to]3)-(2-O-acetyl-[alpha]-l-arabinopyranoside)

>  <formula>  (289) 
C48H70O16

>  <SMILES>  (289) 
[H][C@@]7(O[C@H]4C[C@@]3([H])[C@]2([H])CC=C1C[C@@H](O)CC[C@]1(C)[C@@]2([H])CC[C@]3(C)[C@@]4(O)[C@H](C)C(=O)CCC(C)C)OC[C@H](O)[C@H](O[C@]5([H])OC[C@@H](O)[C@H](O)[C@H]5OC(=O)c6ccc(OC)c(OC)c6)[C@H]7OC(C)=O

>  <ChEMBL_id>  (289) 


>  <ZINC_id>  (289) 


>  <PubChem_id>  (289) 


>  <DrugBank_id>  (289) 


>  <CAS_no>  (289) 
145075-82-7

>  <references>  (289) 
[{'journal': {'name': 'Phytochemistry', 'id': 10}, 'title': 'Acylated cholestane glycosides from the bulbs of Ornithogalum saundersiae', 'year': 1992, 'start_page': 3969, 'volume': 31, 'issue': 11, 'doi': '10.1016/S0031-9422(00)97565-4', 'isbn': '', 'despositor': {'code': 'NFA', 'first_name': 'Ngonidzashe', 'last_name': 'Faya', 'id': 21}, 'refauthors_set': [{'author': {'first_name': 'Satoshi', 'initials': 'S', 'last_name': 'Kubo', 'id': 646}, 'first_author': True, 'id': 888}, {'author': {'first_name': 'Yoshihiro ', 'initials': 'Y', 'last_name': 'Mimaki', 'id': 643}, 'first_author': None, 'id': 1173}, {'author': {'first_name': 'Miki', 'initials': 'M', 'last_name': 'Terao', 'id': 647}, 'first_author': None, 'id': 1174}, {'author': {'first_name': 'Yutaka', 'initials': 'Y', 'last_name': 'Sashida', 'id': 645}, 'first_author': None, 'id': 1175}, {'author': {'first_name': 'Tamotsu', 'initials': 'T', 'last_name': 'Nikaido', 'id': 648}, 'first_author': None, 'id': 1176}, {'author': {'first_name': 'Taichi', 'initials': 'T', 'last_name': 'Ohmoto', 'id': 649}, 'first_author': None, 'id': 1177}], 'id': 303}, {'journal': {'name': 'Bioorganic & Medicinal Chemistry Letters', 'id': 28}, 'title': 'Cholestane glycosides with potent cytostatic activities on various tumor cells from Ornithogalum saundersiae bulbs', 'year': 1997, 'start_page': 633, 'volume': 7, 'issue': 5, 'doi': '10.1016/S0960-894X(97)00071-1', 'isbn': '', 'despositor': {'code': 'NFA', 'first_name': 'Ngonidzashe', 'last_name': 'Faya', 'id': 21}, 'refauthors_set': [{'author': {'first_name': 'Yoshihiro ', 'initials': 'Y', 'last_name': 'Mimaki', 'id': 643}, 'first_author': True, 'id': 890}, {'author': {'first_name': 'Minpei', 'initials': 'M', 'last_name': 'Kuroda', 'id': 644}, 'first_author': None, 'id': 1217}, {'author': {'first_name': 'Aiko', 'initials': 'A', 'last_name': 'Kameyama', 'id': 652}, 'first_author': None, 'id': 1218}, {'author': {'first_name': 'Yutaka', 'initials': 'Y', 'last_name': 'Sashida', 'id': 645}, 'first_author': None, 'id': 1219}, {'author': {'first_name': 'Kitaro ', 'initials': 'K', 'last_name': 'Oka', 'id': 642}, 'first_author': None, 'id': 1220}], 'id': 305}]

>  <classifications>  (289) 
[{'classification': 'Cholestane', 'id': 761}, {'classification': 'Glycoside', 'id': 781}, {'classification': 'Steroids and steroid derivatives (Classyfire)', 'id': 942}]

>  <molecular_mass>  (289) 
903.06

$$$$
SANC00392_minRM1.pdb
     RDKit          3D

122127  0  0  1  0  0  0  0  0999 V2000
    7.4250    1.2010   -0.0710 H   0  0  0  0  0  0  0  0  0  0  0  0
    7.8790    0.2620    0.3550 C   0  0  2  0  0  0  0  0  0  0  0  0
    6.9990   -0.4810    1.1410 O   0  0  0  0  0  0  0  0  0  0  0  0
    5.7390   -0.7670    0.5640 C   0  0  1  0  0  0  0  0  0  0  0  0
    5.8360   -1.1560   -0.4850 H   0  0  0  0  0  0  0  0  0  0  0  0
    5.1390   -1.8380    1.4810 C   0  0  0  0  0  0  0  0  0  0  0  0
    3.7470   -2.1940    0.9840 C   0  0  0  0  0  0  0  0  0  0  0  0
    2.8000   -0.9830    0.9230 C   0  0  1  0  0  0  0  0  0  0  0  0
    2.4920   -0.4840    2.3360 C   0  0  0  0  0  0  0  0  0  0  0  0
    3.4580    0.1460    0.1860 C   0  0  0  0  0  0  0  0  0  0  0  0
    2.8350    0.8840   -0.7330 C   0  0  0  0  0  0  0  0  0  0  0  0
    1.4310    0.6650   -1.1630 C   0  0  0  0  0  0  0  0  0  0  0  0
    0.6580   -0.2070   -0.1760 C   0  0  2  0  0  0  0  0  0  0  0  0
    0.4210    0.3890    0.7430 H   0  0  0  0  0  0  0  0  0  0  0  0
    1.5060   -1.4300    0.1940 C   0  0  2  0  0  0  0  0  0  0  0  0
    1.8020   -1.9380   -0.7630 H   0  0  0  0  0  0  0  0  0  0  0  0
    0.7140   -2.4380    1.0330 C   0  0  0  0  0  0  0  0  0  0  0  0
   -0.6510   -2.7950    0.4470 C   0  0  0  0  0  0  0  0  0  0  0  0
   -1.4660   -1.5370    0.1620 C   0  0  1  0  0  0  0  0  0  0  0  0
   -1.7500   -0.7880    1.4590 C   0  0  0  0  0  0  0  0  0  0  0  0
   -0.6330   -0.6920   -0.8210 C   0  0  1  0  0  0  0  0  0  0  0  0
   -0.3650   -1.3180   -1.7150 H   0  0  0  0  0  0  0  0  0  0  0  0
   -1.6080    0.3840   -1.2780 C   0  0  0  0  0  0  0  0  0  0  0  0
   -2.9700   -0.3510   -1.3340 C   0  0  2  0  0  0  0  0  0  0  0  0
   -3.2910   -0.5000   -2.3990 H   0  0  0  0  0  0  0  0  0  0  0  0
   -3.9200    0.3780   -0.5950 O   0  0  0  0  0  0  0  0  0  0  0  0
   -4.6760    1.3080   -1.3160 C   0  0  2  0  0  0  0  0  0  0  0  0
   -5.0180    0.9560   -2.3290 H   0  0  0  0  0  0  0  0  0  0  0  0
   -3.8730    2.4010   -1.6260 O   0  0  0  0  0  0  0  0  0  0  0  0
   -3.3790    3.1410   -0.5330 C   0  0  1  0  0  0  0  0  0  0  0  0
   -2.6920    2.5060    0.0970 H   0  0  0  0  0  0  0  0  0  0  0  0
   -2.5970    4.2950   -1.1580 C   0  0  0  0  0  0  0  0  0  0  0  0
   -4.5560    3.6800    0.3150 C   0  0  2  0  0  0  0  0  0  0  0  0
   -5.1970    4.3720   -0.2940 H   0  0  0  0  0  0  0  0  0  0  0  0
   -4.0110    4.2790    1.4520 O   0  0  0  0  0  0  0  0  0  0  0  0
   -5.3880    2.4770    0.8150 C   0  0  1  0  0  0  0  0  0  0  0  0
   -4.7870    1.8260    1.5060 H   0  0  0  0  0  0  0  0  0  0  0  0
   -6.4850    3.0760    1.4690 O   0  0  0  0  0  0  0  0  0  0  0  0
   -7.2970    2.2970    2.2250 C   0  0  0  0  0  0  0  0  0  0  0  0
   -8.4000    3.0940    2.8420 C   0  0  0  0  0  0  0  0  0  0  0  0
   -7.0980    1.1000    2.3350 O   0  0  0  0  0  0  0  0  0  0  0  0
   -5.8800    1.6500   -0.3890 C   0  0  1  0  0  0  0  0  0  0  0  0
   -6.3620    0.6940   -0.0430 H   0  0  0  0  0  0  0  0  0  0  0  0
   -6.7760    2.4720   -1.0720 O   0  0  0  0  0  0  0  0  0  0  0  0
   -2.7640   -1.7430   -0.6540 C   0  0  2  0  0  0  0  0  0  0  0  0
   -2.5540   -2.4760   -1.4780 H   0  0  0  0  0  0  0  0  0  0  0  0
   -3.9750   -2.2730    0.1170 C   0  0  2  0  0  0  0  0  0  0  0  0
   -4.2350   -1.5740    0.9520 H   0  0  0  0  0  0  0  0  0  0  0  0
   -3.6630   -3.6420    0.7080 C   0  0  0  0  0  0  0  0  0  0  0  0
   -5.2080   -2.3660   -0.8230 C   0  0  1  0  0  0  0  0  0  0  0  0
   -5.3340   -1.4270   -1.4210 H   0  0  0  0  0  0  0  0  0  0  0  0
   -5.0230   -3.3170   -1.8240 O   0  0  0  0  0  0  0  0  0  0  0  0
   -6.4990   -2.6120   -0.0180 C   0  0  0  0  0  0  0  0  0  0  0  0
   -7.7170   -2.6050   -0.9370 C   0  0  0  0  0  0  0  0  0  0  0  0
   -9.0170   -2.8690   -0.1690 C   0  0  1  0  0  0  0  0  0  0  0  0
   -9.3330   -1.7290    0.7930 C   0  0  0  0  0  0  0  0  0  0  0  0
  -10.1680   -3.0320   -1.1600 C   0  0  0  0  0  0  0  0  0  0  0  0
    4.8560    0.4850    0.5880 C   0  0  0  0  0  0  0  0  0  0  0  0
    8.2980   -0.6330   -0.6480 O   0  0  0  0  0  0  0  0  0  0  0  0
    9.2490   -0.0670   -1.5140 C   0  0  2  0  0  0  0  0  0  0  0  0
    8.8710    0.8740   -1.9990 H   0  0  0  0  0  0  0  0  0  0  0  0
    9.5050   -1.1480   -2.5860 C   0  0  0  0  0  0  0  0  0  0  0  0
    8.3510   -1.1820   -3.3760 O   0  0  0  0  0  0  0  0  0  0  0  0
   10.5450    0.2190   -0.7110 C   0  0  1  0  0  0  0  0  0  0  0  0
   10.9670   -0.7350   -0.2930 H   0  0  0  0  0  0  0  0  0  0  0  0
   11.4180    0.8240   -1.6130 O   0  0  0  0  0  0  0  0  0  0  0  0
   10.2060    1.2030    0.4400 C   0  0  2  0  0  0  0  0  0  0  0  0
    9.8890    2.1990    0.0260 H   0  0  0  0  0  0  0  0  0  0  0  0
   11.3800    1.3090    1.1860 O   0  0  0  0  0  0  0  0  0  0  0  0
    9.0780    0.5800    1.2950 C   0  0  1  0  0  0  0  0  0  0  0  0
    9.4420   -0.3540    1.8040 H   0  0  0  0  0  0  0  0  0  0  0  0
    8.7140    1.5690    2.2070 O   0  0  0  0  0  0  0  0  0  0  0  0
    5.7880   -2.7400    1.4970 H   0  0  0  0  0  0  0  0  0  0  0  0
    5.1240   -1.4980    2.5380 H   0  0  0  0  0  0  0  0  0  0  0  0
    3.8280   -2.6700   -0.0180 H   0  0  0  0  0  0  0  0  0  0  0  0
    3.3180   -2.9850    1.6360 H   0  0  0  0  0  0  0  0  0  0  0  0
    3.3950   -0.2910    2.9320 H   0  0  0  0  0  0  0  0  0  0  0  0
    1.9240    0.4570    2.3330 H   0  0  0  0  0  0  0  0  0  0  0  0
    1.8950   -1.2080    2.9160 H   0  0  0  0  0  0  0  0  0  0  0  0
    3.3470    1.7070   -1.2470 H   0  0  0  0  0  0  0  0  0  0  0  0
    0.9160    1.6410   -1.2940 H   0  0  0  0  0  0  0  0  0  0  0  0
    1.4410    0.2180   -2.1820 H   0  0  0  0  0  0  0  0  0  0  0  0
    1.3050   -3.3740    1.1480 H   0  0  0  0  0  0  0  0  0  0  0  0
    0.5920   -2.0750    2.0790 H   0  0  0  0  0  0  0  0  0  0  0  0
   -0.5310   -3.4080   -0.4710 H   0  0  0  0  0  0  0  0  0  0  0  0
   -1.1880   -3.4660    1.1550 H   0  0  0  0  0  0  0  0  0  0  0  0
   -0.8560   -0.2810    1.8590 H   0  0  0  0  0  0  0  0  0  0  0  0
   -2.5020    0.0080    1.3580 H   0  0  0  0  0  0  0  0  0  0  0  0
   -2.1110   -1.4490    2.2590 H   0  0  0  0  0  0  0  0  0  0  0  0
   -1.6220    1.2500   -0.5810 H   0  0  0  0  0  0  0  0  0  0  0  0
   -1.3340    0.8250   -2.2560 H   0  0  0  0  0  0  0  0  0  0  0  0
   -3.2180    4.9210   -1.8140 H   0  0  0  0  0  0  0  0  0  0  0  0
   -2.1700    4.9460   -0.3830 H   0  0  0  0  0  0  0  0  0  0  0  0
   -1.7600    3.9310   -1.7710 H   0  0  0  0  0  0  0  0  0  0  0  0
   -4.1630    5.2250    1.3760 H   0  0  0  0  0  0  0  0  0  0  0  0
   -9.1950    3.2850    2.1040 H   0  0  0  0  0  0  0  0  0  0  0  0
   -8.8500    2.5550    3.6880 H   0  0  0  0  0  0  0  0  0  0  0  0
   -8.0600    4.0730    3.2120 H   0  0  0  0  0  0  0  0  0  0  0  0
   -7.2170    1.9300   -1.7340 H   0  0  0  0  0  0  0  0  0  0  0  0
   -2.8780   -3.5950    1.4810 H   0  0  0  0  0  0  0  0  0  0  0  0
   -4.5340   -4.0980    1.2000 H   0  0  0  0  0  0  0  0  0  0  0  0
   -3.2960   -4.3650   -0.0370 H   0  0  0  0  0  0  0  0  0  0  0  0
   -5.0970   -4.1950   -1.4410 H   0  0  0  0  0  0  0  0  0  0  0  0
   -6.4480   -3.5670    0.5460 H   0  0  0  0  0  0  0  0  0  0  0  0
   -6.5930   -1.8280    0.7630 H   0  0  0  0  0  0  0  0  0  0  0  0
   -7.7840   -1.6400   -1.4830 H   0  0  0  0  0  0  0  0  0  0  0  0
   -7.5930   -3.3660   -1.7380 H   0  0  0  0  0  0  0  0  0  0  0  0
   -8.9130   -3.8200    0.4160 H   0  0  0  0  0  0  0  0  0  0  0  0
  -10.3290   -1.8380    1.2470 H   0  0  0  0  0  0  0  0  0  0  0  0
   -8.6240   -1.6710    1.6320 H   0  0  0  0  0  0  0  0  0  0  0  0
   -9.3180   -0.7470    0.2990 H   0  0  0  0  0  0  0  0  0  0  0  0
  -10.0000   -3.8600   -1.8640 H   0  0  0  0  0  0  0  0  0  0  0  0
  -11.1220   -3.2450   -0.6540 H   0  0  0  0  0  0  0  0  0  0  0  0
  -10.3280   -2.1280   -1.7650 H   0  0  0  0  0  0  0  0  0  0  0  0
    4.8560    0.9540    1.5950 H   0  0  0  0  0  0  0  0  0  0  0  0
    5.2880    1.2700   -0.0700 H   0  0  0  0  0  0  0  0  0  0  0  0
   10.3760   -0.8620   -3.2190 H   0  0  0  0  0  0  0  0  0  0  0  0
    9.7590   -2.1250   -2.1180 H   0  0  0  0  0  0  0  0  0  0  0  0
    8.1810   -2.1020   -3.6000 H   0  0  0  0  0  0  0  0  0  0  0  0
   12.2470    0.9880   -1.1510 H   0  0  0  0  0  0  0  0  0  0  0  0
   11.2180    1.9350    1.9000 H   0  0  0  0  0  0  0  0  0  0  0  0
    8.0610    1.1870    2.8030 H   0  0  0  0  0  0  0  0  0  0  0  0
  2  1  1  6
  2 59  1  0
  2  3  1  0
  2 70  1  0
  3  4  1  0
  4  5  1  6
  4 58  1  0
  4  6  1  0
  6  7  1  0
  6 73  1  0
  6 74  1  0
  7 75  1  0
  7  8  1  0
  7 76  1  0
  8 10  1  0
  8 15  1  0
  8  9  1  1
  9 78  1  0
  9 79  1  0
  9 77  1  0
 10 11  2  0
 10 58  1  0
 11 80  1  0
 11 12  1  0
 12 82  1  0
 12 81  1  0
 12 13  1  0
 13 21  1  0
 13 15  1  0
 13 14  1  1
 15 16  1  6
 15 17  1  0
 17 18  1  0
 17 83  1  0
 17 84  1  0
 18 85  1  0
 18 19  1  0
 18 86  1  0
 19 21  1  0
 19 45  1  0
 19 20  1  1
 20 88  1  0
 20 87  1  0
 20 89  1  0
 21 22  1  6
 21 23  1  0
 23 91  1  0
 23 24  1  0
 23 90  1  0
 24 25  1  6
 24 45  1  0
 24 26  1  0
 26 27  1  0
 27 28  1  6
 27 29  1  0
 27 42  1  0
 29 30  1  0
 30 32  1  0
 30 31  1  1
 30 33  1  0
 32 92  1  0
 32 94  1  0
 32 93  1  0
 33 34  1  6
 33 36  1  0
 33 35  1  0
 35 95  1  0
 36 42  1  0
 36 38  1  0
 36 37  1  1
 38 39  1  0
 39 41  2  0
 39 40  1  0
 40 96  1  0
 40 98  1  0
 40 97  1  0
 42 44  1  0
 42 43  1  1
 44 99  1  0
 45 46  1  6
 45 47  1  0
 47 50  1  0
 47 49  1  0
 47 48  1  1
 49102  1  0
 49101  1  0
 49100  1  0
 50 52  1  0
 50 51  1  6
 50 53  1  0
 52103  1  0
 53 54  1  0
 53104  1  0
 53105  1  0
 54107  1  0
 54106  1  0
 54 55  1  0
 55 57  1  0
 55108  1  1
 55 56  1  0
 56111  1  0
 56109  1  0
 56110  1  0
 57112  1  0
 57114  1  0
 57113  1  0
 58116  1  0
 58115  1  0
 59 60  1  0
 60 62  1  0
 60 61  1  6
 60 64  1  0
 62 63  1  0
 62117  1  0
 62118  1  0
 63119  1  0
 64 66  1  0
 64 65  1  1
 64 67  1  0
 66120  1  0
 67 68  1  6
 67 69  1  0
 67 70  1  0
 69121  1  0
 70 71  1  1
 70 72  1  0
 72122  1  0
M  END
>  <id>  (290) 
392

>  <scaffolds>  (290) 
['C1=C2CCCCC2C2CCC3CCCC3C2C1', 'C1=CCCCC1', 'C1=CCC2CCCCC2C1', 'C1=C2CCCCC2C2CCC3CC(OC4CCCCO4)CC3C2C1', 'C1CCOCC1', 'C1=C2CC(OC3CCCCO3)CCC2C2CCC3CCCC3C2C1', 'C1=C2CC(OC3CCCCO3)CCC2C2CCC3CC(OC4CCCCO4)CC3C2C1', 'C1CCCCC1', 'C1=C2CCCCC2CCC1']

>  <name>  (290) 
(22S)-3[beta]-[([beta]-D-glucopyranosyl)oxy]-22-hydroxycholest-5-en-16[beta]-yl 3-O-acetyl-[alpha]-L-rhamnopyranoside

>  <formula>  (290) 
C41H68O13

>  <SMILES>  (290) 
[H][C@@]6(O[C@H]5CC[C@@]1(C)C(=CC[C@]2([H])[C@]1([H])CC[C@@]4(C)[C@@]2([H])C[C@H](O[C@]3([H])O[C@@H](C)[C@H](O)[C@@H](OC(C)=O)[C@H]3O)[C@]4([H])[C@H](C)[C@@H](O)CCC(C)C)C5)O[C@H](CO)[C@@H](O)[C@H](O)[C@H]6O

>  <ChEMBL_id>  (290) 


>  <ZINC_id>  (290) 


>  <PubChem_id>  (290) 


>  <DrugBank_id>  (290) 


>  <CAS_no>  (290) 
263570-68-9

>  <references>  (290) 
[{'journal': {'name': 'Journal of Natural Products', 'id': 5}, 'title': 'Five New Polyoxygenated Cholestane Bisdesmosides from the Bulbs of Galtonia candicans', 'year': 2001, 'start_page': 1069, 'volume': 64, 'issue': None, 'doi': '10.1021/np010208d', 'isbn': '', 'despositor': {'code': 'NFA', 'first_name': 'Ngonidzashe', 'last_name': 'Faya', 'id': 21}, 'refauthors_set': [{'author': {'first_name': 'Yoshihiro ', 'initials': 'Y', 'last_name': 'Mimaki', 'id': 643}, 'first_author': True, 'id': 889}, {'author': {'first_name': 'Minpei', 'initials': 'M', 'last_name': 'Kuroda', 'id': 644}, 'first_author': None, 'id': 1221}, {'author': {'first_name': 'Akihito ', 'initials': 'A', 'last_name': 'Yokosuka', 'id': 650}, 'first_author': None, 'id': 1222}, {'author': {'first_name': 'Yutaka', 'initials': 'Y', 'last_name': 'Sashida', 'id': 645}, 'first_author': None, 'id': 1223}], 'id': 304}]

>  <classifications>  (290) 
[{'classification': 'Bisdesmoside', 'id': 750}, {'classification': 'Cholestane', 'id': 761}, {'classification': 'Steroids and steroid derivatives (Classyfire)', 'id': 942}]

>  <molecular_mass>  (290) 
768.97

$$$$
SANC00393_minRM1.pdb
     RDKit          3D

120125  0  0  1  0  0  0  0  0999 V2000
   -7.3600    1.1290    0.0590 H   0  0  0  0  0  0  0  0  0  0  0  0
   -7.8080    0.1840   -0.3610 C   0  0  2  0  0  0  0  0  0  0  0  0
   -6.9150   -0.5700   -1.1200 O   0  0  0  0  0  0  0  0  0  0  0  0
   -5.6600   -0.8390   -0.5240 C   0  0  1  0  0  0  0  0  0  0  0  0
   -5.7680   -1.2250    0.5250 H   0  0  0  0  0  0  0  0  0  0  0  0
   -5.0370   -1.9060   -1.4320 C   0  0  0  0  0  0  0  0  0  0  0  0
   -3.6400   -2.2380   -0.9290 C   0  0  0  0  0  0  0  0  0  0  0  0
   -2.7130   -1.0110   -0.8810 C   0  0  1  0  0  0  0  0  0  0  0  0
   -2.4330   -0.5110   -2.3010 C   0  0  0  0  0  0  0  0  0  0  0  0
   -3.3890    0.1060   -0.1400 C   0  0  0  0  0  0  0  0  0  0  0  0
   -2.7790    0.8520    0.7820 C   0  0  0  0  0  0  0  0  0  0  0  0
   -1.3700    0.6580    1.2040 C   0  0  0  0  0  0  0  0  0  0  0  0
   -0.5850   -0.1810    0.1980 C   0  0  2  0  0  0  0  0  0  0  0  0
   -0.3870    0.4300   -0.7210 H   0  0  0  0  0  0  0  0  0  0  0  0
   -1.4010   -1.4270   -0.1670 C   0  0  2  0  0  0  0  0  0  0  0  0
   -1.6730   -1.9450    0.7920 H   0  0  0  0  0  0  0  0  0  0  0  0
   -0.5920   -2.4140   -1.0160 C   0  0  0  0  0  0  0  0  0  0  0  0
    0.7990   -2.7210   -0.4620 C   0  0  0  0  0  0  0  0  0  0  0  0
    1.5720   -1.4340   -0.1940 C   0  0  1  0  0  0  0  0  0  0  0  0
    1.7990   -0.6710   -1.4940 C   0  0  0  0  0  0  0  0  0  0  0  0
    0.7340   -0.6240    0.8140 C   0  0  1  0  0  0  0  0  0  0  0  0
    0.5070   -1.2640    1.7090 H   0  0  0  0  0  0  0  0  0  0  0  0
    1.6850    0.4800    1.2570 C   0  0  0  0  0  0  0  0  0  0  0  0
    3.0690   -0.2130    1.2860 C   0  0  2  0  0  0  0  0  0  0  0  0
    3.4050   -0.3760    2.3450 H   0  0  0  0  0  0  0  0  0  0  0  0
    3.9900    0.5650    0.5580 O   0  0  0  0  0  0  0  0  0  0  0  0
    4.7110    1.5010    1.3080 C   0  0  2  0  0  0  0  0  0  0  0  0
    5.0640    1.1310    2.3110 H   0  0  0  0  0  0  0  0  0  0  0  0
    3.8690    2.5550    1.6480 O   0  0  0  0  0  0  0  0  0  0  0  0
    3.3570    3.3170    0.5800 C   0  0  1  0  0  0  0  0  0  0  0  0
    2.6880    2.6840   -0.0720 H   0  0  0  0  0  0  0  0  0  0  0  0
    2.5400    4.4280    1.2370 C   0  0  0  0  0  0  0  0  0  0  0  0
    4.5170    3.9170   -0.2490 C   0  0  2  0  0  0  0  0  0  0  0  0
    5.1340    4.6110    0.3840 H   0  0  0  0  0  0  0  0  0  0  0  0
    3.9610    4.5370   -1.3700 O   0  0  0  0  0  0  0  0  0  0  0  0
    5.3930    2.7610   -0.7830 C   0  0  1  0  0  0  0  0  0  0  0  0
    4.8170    2.1110   -1.4980 H   0  0  0  0  0  0  0  0  0  0  0  0
    6.4710    3.4180   -1.4130 O   0  0  0  0  0  0  0  0  0  0  0  0
    7.3140    2.6860   -2.1800 C   0  0  0  0  0  0  0  0  0  0  0  0
    8.4000    3.5340   -2.7560 C   0  0  0  0  0  0  0  0  0  0  0  0
    7.1530    1.4880   -2.3280 O   0  0  0  0  0  0  0  0  0  0  0  0
    5.9060    1.9150    0.3990 C   0  0  1  0  0  0  0  0  0  0  0  0
    6.4280    0.9910    0.0270 H   0  0  0  0  0  0  0  0  0  0  0  0
    6.7680    2.7510    1.1130 O   0  0  0  0  0  0  0  0  0  0  0  0
    2.8970   -1.5980    0.5850 C   0  0  2  0  0  0  0  0  0  0  0  0
    2.7350   -2.3520    1.4010 H   0  0  0  0  0  0  0  0  0  0  0  0
    4.1080   -2.0660   -0.2240 C   0  0  2  0  0  0  0  0  0  0  0  0
    4.3270   -1.3400   -1.0470 H   0  0  0  0  0  0  0  0  0  0  0  0
    3.8530   -3.4410   -0.8350 C   0  0  0  0  0  0  0  0  0  0  0  0
    5.3670   -2.1400    0.6790 C   0  0  1  0  0  0  0  0  0  0  0  0
    5.5190   -1.1890    1.2500 H   0  0  0  0  0  0  0  0  0  0  0  0
    5.2060   -3.0700    1.7050 O   0  0  0  0  0  0  0  0  0  0  0  0
    6.6160   -2.4270   -0.1820 C   0  0  0  0  0  0  0  0  0  0  0  0
    7.8160   -2.5980    0.6800 C   0  0  0  0  0  0  0  0  0  0  0  0
    8.6510   -3.6380    0.6410 C   0  0  0  0  0  0  0  0  0  0  0  0
    8.4770   -4.8040   -0.2610 C   0  0  0  0  0  0  0  0  0  0  0  0
    9.8340   -3.7080    1.5430 C   0  0  0  0  0  0  0  0  0  0  0  0
   -4.7920    0.4260   -0.5400 C   0  0  0  0  0  0  0  0  0  0  0  0
   -8.2440   -0.6950    0.6480 O   0  0  0  0  0  0  0  0  0  0  0  0
   -9.2120   -0.1170    1.4900 C   0  0  2  0  0  0  0  0  0  0  0  0
   -8.8410    0.8280    1.9720 H   0  0  0  0  0  0  0  0  0  0  0  0
   -9.4880   -1.1920    2.5650 C   0  0  0  0  0  0  0  0  0  0  0  0
   -8.3580   -1.2020    3.3890 O   0  0  0  0  0  0  0  0  0  0  0  0
  -10.4920    0.1580    0.6590 C   0  0  1  0  0  0  0  0  0  0  0  0
  -10.9100   -0.8000    0.2470 H   0  0  0  0  0  0  0  0  0  0  0  0
  -11.3790    0.7790    1.5370 O   0  0  0  0  0  0  0  0  0  0  0  0
  -10.1300    1.1290   -0.4980 C   0  0  2  0  0  0  0  0  0  0  0  0
   -9.8170    2.1290   -0.0930 H   0  0  0  0  0  0  0  0  0  0  0  0
  -11.2920    1.2230   -1.2660 O   0  0  0  0  0  0  0  0  0  0  0  0
   -8.9900    0.4910   -1.3250 C   0  0  1  0  0  0  0  0  0  0  0  0
   -9.3450   -0.4510   -1.8260 H   0  0  0  0  0  0  0  0  0  0  0  0
   -8.6100    1.4590   -2.2500 O   0  0  0  0  0  0  0  0  0  0  0  0
   -5.6710   -2.8180   -1.4460 H   0  0  0  0  0  0  0  0  0  0  0  0
   -5.0200   -1.5690   -2.4910 H   0  0  0  0  0  0  0  0  0  0  0  0
   -3.7140   -2.7060    0.0780 H   0  0  0  0  0  0  0  0  0  0  0  0
   -3.2020   -3.0280   -1.5760 H   0  0  0  0  0  0  0  0  0  0  0  0
   -3.3460   -0.3350   -2.8860 H   0  0  0  0  0  0  0  0  0  0  0  0
   -1.8790    0.4400   -2.3080 H   0  0  0  0  0  0  0  0  0  0  0  0
   -1.8320   -1.2270   -2.8870 H   0  0  0  0  0  0  0  0  0  0  0  0
   -3.3030    1.6650    1.2940 H   0  0  0  0  0  0  0  0  0  0  0  0
   -0.8770    1.6450    1.3470 H   0  0  0  0  0  0  0  0  0  0  0  0
   -1.3630    0.1960    2.2160 H   0  0  0  0  0  0  0  0  0  0  0  0
   -1.1500   -3.3720   -1.1130 H   0  0  0  0  0  0  0  0  0  0  0  0
   -0.5040   -2.0550   -2.0660 H   0  0  0  0  0  0  0  0  0  0  0  0
    0.7210   -3.3370    0.4590 H   0  0  0  0  0  0  0  0  0  0  0  0
    1.3440   -3.3730   -1.1790 H   0  0  0  0  0  0  0  0  0  0  0  0
    0.8770   -0.2080   -1.8840 H   0  0  0  0  0  0  0  0  0  0  0  0
    2.5140    0.1590   -1.3990 H   0  0  0  0  0  0  0  0  0  0  0  0
    2.1810   -1.3170   -2.2980 H   0  0  0  0  0  0  0  0  0  0  0  0
    1.6600    1.3460    0.5590 H   0  0  0  0  0  0  0  0  0  0  0  0
    1.4190    0.9120    2.2400 H   0  0  0  0  0  0  0  0  0  0  0  0
    3.1490    5.0680    1.8920 H   0  0  0  0  0  0  0  0  0  0  0  0
    2.0720    5.0750    0.4820 H   0  0  0  0  0  0  0  0  0  0  0  0
    1.7330    4.0220    1.8640 H   0  0  0  0  0  0  0  0  0  0  0  0
    4.0300    5.4870   -1.2350 H   0  0  0  0  0  0  0  0  0  0  0  0
    9.2050    3.6770   -2.0170 H   0  0  0  0  0  0  0  0  0  0  0  0
    8.8550    3.0460   -3.6390 H   0  0  0  0  0  0  0  0  0  0  0  0
    8.0470    4.5340   -3.0630 H   0  0  0  0  0  0  0  0  0  0  0  0
    7.2250    2.2080    1.7590 H   0  0  0  0  0  0  0  0  0  0  0  0
    3.4730   -4.1740   -0.1090 H   0  0  0  0  0  0  0  0  0  0  0  0
    3.1200   -3.4120   -1.6540 H   0  0  0  0  0  0  0  0  0  0  0  0
    4.7730   -3.8740   -1.2640 H   0  0  0  0  0  0  0  0  0  0  0  0
    5.3130   -3.9530    1.3420 H   0  0  0  0  0  0  0  0  0  0  0  0
    6.4280   -3.2930   -0.8520 H   0  0  0  0  0  0  0  0  0  0  0  0
    6.7910   -1.5800   -0.8820 H   0  0  0  0  0  0  0  0  0  0  0  0
    7.9890   -1.7710    1.3760 H   0  0  0  0  0  0  0  0  0  0  0  0
    8.4690   -4.5130   -1.3190 H   0  0  0  0  0  0  0  0  0  0  0  0
    9.2730   -5.5490   -0.1530 H   0  0  0  0  0  0  0  0  0  0  0  0
    7.5370   -5.3390   -0.0710 H   0  0  0  0  0  0  0  0  0  0  0  0
    9.7370   -4.5480    2.2590 H   0  0  0  0  0  0  0  0  0  0  0  0
   10.7630   -3.8750    0.9790 H   0  0  0  0  0  0  0  0  0  0  0  0
    9.9920   -2.7950    2.1470 H   0  0  0  0  0  0  0  0  0  0  0  0
   -4.7970    0.9020   -1.5450 H   0  0  0  0  0  0  0  0  0  0  0  0
   -5.2350    1.2030    0.1230 H   0  0  0  0  0  0  0  0  0  0  0  0
  -10.3830   -0.9080    3.1660 H   0  0  0  0  0  0  0  0  0  0  0  0
   -9.7210   -2.1770    2.1050 H   0  0  0  0  0  0  0  0  0  0  0  0
   -8.2390   -2.1020    3.7020 H   0  0  0  0  0  0  0  0  0  0  0  0
  -12.1970    0.9450    1.0610 H   0  0  0  0  0  0  0  0  0  0  0  0
  -11.1150    1.8430   -1.9820 H   0  0  0  0  0  0  0  0  0  0  0  0
   -7.9380    1.0780   -2.8240 H   0  0  0  0  0  0  0  0  0  0  0  0
  2  1  1  1
  2 70  1  0
  2  3  1  0
  2 59  1  0
  3  4  1  0
  4  6  1  0
  4 58  1  0
  4  5  1  1
  6 74  1  0
  6 73  1  0
  6  7  1  0
  7 76  1  0
  7  8  1  0
  7 75  1  0
  8  9  1  6
  8 15  1  0
  8 10  1  0
  9 79  1  0
  9 77  1  0
  9 78  1  0
 10 58  1  0
 10 11  2  0
 11 12  1  0
 11 80  1  0
 12 13  1  0
 12 81  1  0
 12 82  1  0
 13 14  1  6
 13 15  1  0
 13 21  1  0
 15 17  1  0
 15 16  1  1
 17 84  1  0
 17 83  1  0
 17 18  1  0
 18 86  1  0
 18 19  1  0
 18 85  1  0
 19 20  1  6
 19 45  1  0
 19 21  1  0
 20 89  1  0
 20 87  1  0
 20 88  1  0
 21 23  1  0
 21 22  1  1
 23 90  1  0
 23 24  1  0
 23 91  1  0
 24 26  1  0
 24 45  1  0
 24 25  1  1
 26 27  1  0
 27 42  1  0
 27 29  1  0
 27 28  1  1
 29 30  1  0
 30 33  1  0
 30 31  1  6
 30 32  1  0
 32 93  1  0
 32 94  1  0
 32 92  1  0
 33 35  1  0
 33 36  1  0
 33 34  1  1
 35 95  1  0
 36 37  1  6
 36 38  1  0
 36 42  1  0
 38 39  1  0
 39 40  1  0
 39 41  2  0
 40 97  1  0
 40 98  1  0
 40 96  1  0
 42 43  1  6
 42 44  1  0
 44 99  1  0
 45 47  1  0
 45 46  1  1
 47 48  1  6
 47 49  1  0
 47 50  1  0
 49101  1  0
 49102  1  0
 49100  1  0
 50 53  1  0
 50 51  1  1
 50 52  1  0
 52103  1  0
 53105  1  0
 53104  1  0
 53 54  1  0
 54 55  2  0
 54106  1  0
 55 56  1  0
 55 57  1  0
 56107  1  0
 56108  1  0
 56109  1  0
 57111  1  0
 57112  1  0
 57110  1  0
 58113  1  0
 58114  1  0
 59 60  1  0
 60 64  1  0
 60 61  1  1
 60 62  1  0
 62116  1  0
 62115  1  0
 62 63  1  0
 63117  1  0
 64 67  1  0
 64 65  1  6
 64 66  1  0
 66118  1  0
 67 70  1  0
 67 69  1  0
 67 68  1  1
 69119  1  0
 70 72  1  0
 70 71  1  6
 72120  1  0
M  END
>  <id>  (291) 
393

>  <scaffolds>  (291) 
['C1=C2CCCCC2C2CCC3CCCC3C2C1', 'C1=CCCCC1', 'C1=CCC2CCCCC2C1', 'C1=C2CCCCC2C2CCC3CC(OC4CCCCO4)CC3C2C1', 'C1CCOCC1', 'C1=C2CC(OC3CCCCO3)CCC2C2CCC3CCCC3C2C1', 'C1=C2CC(OC3CCCCO3)CCC2C2CCC3CC(OC4CCCCO4)CC3C2C1', 'C1CCCCC1', 'C1=C2CCCCC2CCC1']

>  <name>  (291) 
(22S)-3[beta]-[([beta]-D-glucopyranosyl)oxy]-22-hydroxycholesta-5,24-dien-16[beta]-yl 3-O-acetyl-[alpha]-L-rhamnopyranoside

>  <formula>  (291) 
C41H66O13

>  <SMILES>  (291) 
[H][C@@]6(O[C@H]5CC[C@@]1(C)C(=CC[C@]2([H])[C@]1([H])CC[C@@]4(C)[C@@]2([H])C[C@H](O[C@]3([H])O[C@@H](C)[C@H](O)[C@@H](OC(C)=O)[C@H]3O)[C@]4([H])[C@H](C)[C@@H](O)C/C=C(C)/C)C5)O[C@H](CO)[C@@H](O)[C@H](O)[C@H]6O

>  <ChEMBL_id>  (291) 


>  <ZINC_id>  (291) 


>  <PubChem_id>  (291) 


>  <DrugBank_id>  (291) 


>  <CAS_no>  (291) 
263570-69-0

>  <references>  (291) 
[{'journal': {'name': 'Journal of Natural Products', 'id': 5}, 'title': 'Five New Polyoxygenated Cholestane Bisdesmosides from the Bulbs of Galtonia candicans', 'year': 2001, 'start_page': 1069, 'volume': 64, 'issue': None, 'doi': '10.1021/np010208d', 'isbn': '', 'despositor': {'code': 'NFA', 'first_name': 'Ngonidzashe', 'last_name': 'Faya', 'id': 21}, 'refauthors_set': [{'author': {'first_name': 'Yoshihiro ', 'initials': 'Y', 'last_name': 'Mimaki', 'id': 643}, 'first_author': True, 'id': 889}, {'author': {'first_name': 'Minpei', 'initials': 'M', 'last_name': 'Kuroda', 'id': 644}, 'first_author': None, 'id': 1221}, {'author': {'first_name': 'Akihito ', 'initials': 'A', 'last_name': 'Yokosuka', 'id': 650}, 'first_author': None, 'id': 1222}, {'author': {'first_name': 'Yutaka', 'initials': 'Y', 'last_name': 'Sashida', 'id': 645}, 'first_author': None, 'id': 1223}], 'id': 304}]

>  <classifications>  (291) 
[{'classification': 'Bisdesmoside', 'id': 750}, {'classification': 'Cholestane', 'id': 761}, {'classification': 'Steroids and steroid derivatives (Classyfire)', 'id': 942}]

>  <molecular_mass>  (291) 
766.95

$$$$
SANC00394_minRM1.pdb
     RDKit          3D

117122  0  0  1  0  0  0  0  0999 V2000
    5.2020    0.3970    1.0640 H   0  0  0  0  0  0  0  0  0  0  0  0
    4.7940    0.9160    0.1490 C   0  0  2  0  0  0  0  0  0  0  0  0
    3.6450    0.3030   -0.3580 O   0  0  0  0  0  0  0  0  0  0  0  0
    2.5700    0.1860    0.5490 C   0  0  1  0  0  0  0  0  0  0  0  0
    2.9370    0.0380    1.5990 H   0  0  0  0  0  0  0  0  0  0  0  0
    1.6790    1.4500    0.4540 C   0  0  0  0  0  0  0  0  0  0  0  0
    0.2720    0.8940    0.2760 C   0  0  1  0  0  0  0  0  0  0  0  0
   -0.1040    0.5810    1.2880 H   0  0  0  0  0  0  0  0  0  0  0  0
   -0.7650    1.8230   -0.3410 C   0  0  2  0  0  0  0  0  0  0  0  0
   -0.4560    2.1170   -1.3780 H   0  0  0  0  0  0  0  0  0  0  0  0
   -0.8890    3.0740    0.5220 C   0  0  0  0  0  0  0  0  0  0  0  0
   -2.0080    3.9220    0.0510 C   0  0  0  0  0  0  0  0  0  0  0  0
   -3.0360    3.4490   -0.6520 C   0  0  0  0  0  0  0  0  0  0  0  0
   -4.0850    4.3970   -1.1340 C   0  0  0  0  0  0  0  0  0  0  0  0
   -5.4620    3.9450   -0.6300 C   0  0  1  0  0  0  0  0  0  0  0  0
   -5.5040    4.0210    0.4920 H   0  0  0  0  0  0  0  0  0  0  0  0
   -6.4800    4.7030   -1.2200 O   0  0  0  0  0  0  0  0  0  0  0  0
   -5.7180    2.5050   -1.0740 C   0  0  0  0  0  0  0  0  0  0  0  0
   -4.6140    1.6030   -0.5020 C   0  0  1  0  0  0  0  0  0  0  0  0
   -4.6110    1.6790    0.6190 H   0  0  0  0  0  0  0  0  0  0  0  0
   -4.8700    0.2900   -0.9520 O   0  0  0  0  0  0  0  0  0  0  0  0
   -5.7750   -0.4440   -0.1800 C   0  0  2  0  0  0  0  0  0  0  0  0
   -6.7360    0.1030    0.0330 H   0  0  0  0  0  0  0  0  0  0  0  0
   -5.0610   -0.7480    0.9950 O   0  0  0  0  0  0  0  0  0  0  0  0
   -5.8040   -1.5350    1.8920 C   0  0  2  0  0  0  0  0  0  0  0  0
   -6.7840   -1.0550    2.1650 H   0  0  0  0  0  0  0  0  0  0  0  0
   -4.9110   -1.6620    3.1430 C   0  0  0  0  0  0  0  0  0  0  0  0
   -4.9410   -0.4000    3.7460 O   0  0  0  0  0  0  0  0  0  0  0  0
   -6.0420   -2.9240    1.2460 C   0  0  1  0  0  0  0  0  0  0  0  0
   -5.0620   -3.4350    1.0420 H   0  0  0  0  0  0  0  0  0  0  0  0
   -6.8210   -3.6310    2.1590 O   0  0  0  0  0  0  0  0  0  0  0  0
   -6.8260   -2.7220   -0.0770 C   0  0  2  0  0  0  0  0  0  0  0  0
   -7.8520   -2.3130    0.1330 H   0  0  0  0  0  0  0  0  0  0  0  0
   -6.8880   -3.9870   -0.6590 O   0  0  0  0  0  0  0  0  0  0  0  0
   -6.0250   -1.7540   -0.9810 C   0  0  1  0  0  0  0  0  0  0  0  0
   -5.0510   -2.2230   -1.2930 H   0  0  0  0  0  0  0  0  0  0  0  0
   -6.8530   -1.4920   -2.0700 O   0  0  0  0  0  0  0  0  0  0  0  0
   -3.2070    2.0020   -1.0390 C   0  0  1  0  0  0  0  0  0  0  0  0
   -3.1670    1.9280   -2.5650 C   0  0  0  0  0  0  0  0  0  0  0  0
   -2.1190    1.0960   -0.3930 C   0  0  1  0  0  0  0  0  0  0  0  0
   -2.4340    0.8830    0.6630 H   0  0  0  0  0  0  0  0  0  0  0  0
   -1.9670   -0.2540   -1.1080 C   0  0  0  0  0  0  0  0  0  0  0  0
   -0.8230   -1.1210   -0.5800 C   0  0  0  0  0  0  0  0  0  0  0  0
    0.4940   -0.3560   -0.5970 C   0  0  1  0  0  0  0  0  0  0  0  0
    0.8830    0.0040   -2.0250 C   0  0  0  0  0  0  0  0  0  0  0  0
    1.6750   -1.0260    0.1420 C   0  0  1  0  0  0  0  0  0  0  0  0
    1.2840   -1.4670    1.0970 H   0  0  0  0  0  0  0  0  0  0  0  0
    2.3940   -2.1470   -0.6080 C   0  0  2  0  0  0  0  0  0  0  0  0
    2.8280   -1.7560   -1.5620 H   0  0  0  0  0  0  0  0  0  0  0  0
    1.4240   -3.2800   -0.9340 C   0  0  0  0  0  0  0  0  0  0  0  0
    3.5650   -2.7060    0.2430 C   0  0  1  0  0  0  0  0  0  0  0  0
    4.2510   -1.8850    0.5750 H   0  0  0  0  0  0  0  0  0  0  0  0
    3.1210   -3.2240    1.4590 O   0  0  0  0  0  0  0  0  0  0  0  0
    4.3600   -3.7510   -0.5660 C   0  0  0  0  0  0  0  0  0  0  0  0
    5.4830   -4.3130    0.2310 C   0  0  0  0  0  0  0  0  0  0  0  0
    5.9000   -5.5770    0.1210 C   0  0  0  0  0  0  0  0  0  0  0  0
    5.2630   -6.5750   -0.7770 C   0  0  0  0  0  0  0  0  0  0  0  0
    7.0570   -6.0870    0.9060 C   0  0  0  0  0  0  0  0  0  0  0  0
    4.4090    2.2430    0.4150 O   0  0  0  0  0  0  0  0  0  0  0  0
    5.4650    3.0360    0.8940 C   0  0  2  0  0  0  0  0  0  0  0  0
    5.9260    2.6080    1.8260 H   0  0  0  0  0  0  0  0  0  0  0  0
    4.8190    4.4050    1.1990 C   0  0  0  0  0  0  0  0  0  0  0  0
    4.0390    4.2030    2.3440 O   0  0  0  0  0  0  0  0  0  0  0  0
    6.5270    3.1790   -0.2280 C   0  0  1  0  0  0  0  0  0  0  0  0
    6.0860    3.6880   -1.1280 H   0  0  0  0  0  0  0  0  0  0  0  0
    7.5640    3.9200    0.3340 O   0  0  0  0  0  0  0  0  0  0  0  0
    7.0340    1.7630   -0.6080 C   0  0  2  0  0  0  0  0  0  0  0  0
    7.5750    1.2930    0.2600 H   0  0  0  0  0  0  0  0  0  0  0  0
    7.8850    1.9570   -1.6950 O   0  0  0  0  0  0  0  0  0  0  0  0
    5.8170    0.9010   -1.0240 C   0  0  1  0  0  0  0  0  0  0  0  0
    5.3510    1.3080   -1.9630 H   0  0  0  0  0  0  0  0  0  0  0  0
    6.3230   -0.3850   -1.1990 O   0  0  0  0  0  0  0  0  0  0  0  0
    1.7840    2.0880    1.3520 H   0  0  0  0  0  0  0  0  0  0  0  0
    1.9690    2.1100   -0.3880 H   0  0  0  0  0  0  0  0  0  0  0  0
   -1.0490    2.8210    1.5930 H   0  0  0  0  0  0  0  0  0  0  0  0
    0.0600    3.6520    0.5110 H   0  0  0  0  0  0  0  0  0  0  0  0
   -1.9380    4.9820    0.3220 H   0  0  0  0  0  0  0  0  0  0  0  0
   -3.8870    5.4410   -0.8040 H   0  0  0  0  0  0  0  0  0  0  0  0
   -4.0680    4.4700   -2.2430 H   0  0  0  0  0  0  0  0  0  0  0  0
   -6.3720    5.6100   -0.9270 H   0  0  0  0  0  0  0  0  0  0  0  0
   -6.7250    2.1770   -0.7430 H   0  0  0  0  0  0  0  0  0  0  0  0
   -5.7580    2.4330   -2.1830 H   0  0  0  0  0  0  0  0  0  0  0  0
   -5.3340   -2.4200    3.8380 H   0  0  0  0  0  0  0  0  0  0  0  0
   -3.8850   -2.0040    2.8710 H   0  0  0  0  0  0  0  0  0  0  0  0
   -4.0940   -0.2750    4.1920 H   0  0  0  0  0  0  0  0  0  0  0  0
   -6.9670   -4.5110    1.7940 H   0  0  0  0  0  0  0  0  0  0  0  0
   -7.4010   -3.9090   -1.4720 H   0  0  0  0  0  0  0  0  0  0  0  0
   -6.3670   -0.9260   -2.6800 H   0  0  0  0  0  0  0  0  0  0  0  0
   -4.0460    2.3910   -3.0420 H   0  0  0  0  0  0  0  0  0  0  0  0
   -2.2800    2.4310   -2.9750 H   0  0  0  0  0  0  0  0  0  0  0  0
   -3.1470    0.8940   -2.9430 H   0  0  0  0  0  0  0  0  0  0  0  0
   -2.9010   -0.8460   -1.0140 H   0  0  0  0  0  0  0  0  0  0  0  0
   -1.8520   -0.1120   -2.2040 H   0  0  0  0  0  0  0  0  0  0  0  0
   -1.0570   -1.4880    0.4420 H   0  0  0  0  0  0  0  0  0  0  0  0
   -0.7550   -2.0470   -1.1950 H   0  0  0  0  0  0  0  0  0  0  0  0
    0.2360    0.7870   -2.4560 H   0  0  0  0  0  0  0  0  0  0  0  0
    1.9040    0.4010   -2.1170 H   0  0  0  0  0  0  0  0  0  0  0  0
    0.8220   -0.8560   -2.7070 H   0  0  0  0  0  0  0  0  0  0  0  0
    0.6900   -2.9960   -1.7040 H   0  0  0  0  0  0  0  0  0  0  0  0
    1.9430   -4.1680   -1.3260 H   0  0  0  0  0  0  0  0  0  0  0  0
    0.8390   -3.6130   -0.0640 H   0  0  0  0  0  0  0  0  0  0  0  0
    2.6490   -4.0450    1.2900 H   0  0  0  0  0  0  0  0  0  0  0  0
    3.6810   -4.5550   -0.9410 H   0  0  0  0  0  0  0  0  0  0  0  0
    4.7710   -3.2870   -1.4880 H   0  0  0  0  0  0  0  0  0  0  0  0
    5.9760   -3.6150    0.9190 H   0  0  0  0  0  0  0  0  0  0  0  0
    5.8510   -6.7090   -1.6980 H   0  0  0  0  0  0  0  0  0  0  0  0
    5.1810   -7.5640   -0.3030 H   0  0  0  0  0  0  0  0  0  0  0  0
    4.2450   -6.2890   -1.0840 H   0  0  0  0  0  0  0  0  0  0  0  0
    6.7190   -6.7130    1.7460 H   0  0  0  0  0  0  0  0  0  0  0  0
    7.7260   -6.7080    0.2930 H   0  0  0  0  0  0  0  0  0  0  0  0
    7.6800   -5.2880    1.3390 H   0  0  0  0  0  0  0  0  0  0  0  0
    5.6090    5.1670    1.3960 H   0  0  0  0  0  0  0  0  0  0  0  0
    4.2330    4.7770    0.3240 H   0  0  0  0  0  0  0  0  0  0  0  0
    3.3560    4.8780    2.3450 H   0  0  0  0  0  0  0  0  0  0  0  0
    8.2330    4.0470   -0.3460 H   0  0  0  0  0  0  0  0  0  0  0  0
    8.2520    1.1000   -1.9350 H   0  0  0  0  0  0  0  0  0  0  0  0
    5.6100   -0.9340   -1.5390 H   0  0  0  0  0  0  0  0  0  0  0  0
  2  1  1  1
  2 70  1  0
  2  3  1  0
  2 59  1  0
  3  4  1  0
  4 46  1  0
  4  6  1  0
  4  5  1  1
  6 74  1  0
  6  7  1  0
  6 73  1  0
  7 44  1  0
  7  9  1  0
  7  8  1  1
  9 10  1  6
  9 40  1  0
  9 11  1  0
 11 12  1  0
 11 76  1  0
 11 75  1  0
 12 13  2  0
 12 77  1  0
 13 14  1  0
 13 38  1  0
 14 79  1  0
 14 78  1  0
 14 15  1  0
 15 17  1  0
 15 18  1  0
 15 16  1  1
 17 80  1  0
 18 82  1  0
 18 81  1  0
 18 19  1  0
 19 38  1  0
 19 21  1  0
 19 20  1  1
 21 22  1  0
 22 35  1  0
 22 23  1  1
 22 24  1  0
 24 25  1  0
 25 29  1  0
 25 26  1  1
 25 27  1  0
 27 84  1  0
 27 28  1  0
 27 83  1  0
 28 85  1  0
 29 32  1  0
 29 30  1  6
 29 31  1  0
 31 86  1  0
 32 35  1  0
 32 34  1  0
 32 33  1  1
 34 87  1  0
 35 37  1  0
 35 36  1  6
 37 88  1  0
 38 39  1  6
 38 40  1  0
 39 89  1  0
 39 90  1  0
 39 91  1  0
 40 42  1  0
 40 41  1  1
 42 93  1  0
 42 92  1  0
 42 43  1  0
 43 95  1  0
 43 44  1  0
 43 94  1  0
 44 45  1  6
 44 46  1  0
 45 98  1  0
 45 96  1  0
 45 97  1  0
 46 48  1  0
 46 47  1  1
 48 49  1  6
 48 50  1  0
 48 51  1  0
 50 99  1  0
 50100  1  0
 50101  1  0
 51 54  1  0
 51 52  1  1
 51 53  1  0
 53102  1  0
 54104  1  0
 54103  1  0
 54 55  1  0
 55 56  2  0
 55105  1  0
 56 57  1  0
 56 58  1  0
 57106  1  0
 57108  1  0
 57107  1  0
 58110  1  0
 58111  1  0
 58109  1  0
 59 60  1  0
 60 64  1  0
 60 62  1  0
 60 61  1  1
 62113  1  0
 62112  1  0
 62 63  1  0
 63114  1  0
 64 65  1  6
 64 67  1  0
 64 66  1  0
 66115  1  0
 67 69  1  0
 67 70  1  0
 67 68  1  1
 69116  1  0
 70 71  1  6
 70 72  1  0
 72117  1  0
M  END
>  <id>  (292) 
394

>  <scaffolds>  (292) 
['C1=C2CCCCC2C2CCC3CCCC3C2C1', 'C1=CCCCC1', 'C1=CCC2CCCCC2C1', 'C1=C2CCCC(OC3CCCCO3)C2C2CCC3CC(OC4CCCCO4)CC3C2C1', 'C1=C2CCCCC2C2CCC3CC(OC4CCCCO4)CC3C2C1', 'C1CCOCC1', 'C1CCCCC1', 'C1=C2CCCCC2CCC1']

>  <name>  (292) 
(22S)-1[beta]-[([beta]-D-glucopyranosyl)- oxy]-3[beta],22-dihydroxycholesta-5,24-dien-16[beta]-yl [beta]-D-glucopy- ranoside

>  <formula>  (292) 
C39H64O14

>  <SMILES>  (292) 
[H][C@@]6(O[C@H]5C[C@@]4([H])[C@]3([H])CC=C2C[C@@H](O)C[C@@H](O[C@]1([H])O[C@H](CO)[C@@H](O)[C@H](O)[C@H]1O)[C@]2(C)[C@@]3([H])CCC4(C)[C@@]5([H])[C@H](C)[C@@H](O)C/C=C(C)/C)O[C@H](CO)[C@@H](O)[C@H](O)[C@H]6O

>  <ChEMBL_id>  (292) 


>  <ZINC_id>  (292) 


>  <PubChem_id>  (292) 


>  <DrugBank_id>  (292) 


>  <CAS_no>  (292) 
263570-70-3

>  <references>  (292) 
[{'journal': {'name': 'Journal of Natural Products', 'id': 5}, 'title': 'Five New Polyoxygenated Cholestane Bisdesmosides from the Bulbs of Galtonia candicans', 'year': 2001, 'start_page': 1069, 'volume': 64, 'issue': None, 'doi': '10.1021/np010208d', 'isbn': '', 'despositor': {'code': 'NFA', 'first_name': 'Ngonidzashe', 'last_name': 'Faya', 'id': 21}, 'refauthors_set': [{'author': {'first_name': 'Yoshihiro ', 'initials': 'Y', 'last_name': 'Mimaki', 'id': 643}, 'first_author': True, 'id': 889}, {'author': {'first_name': 'Minpei', 'initials': 'M', 'last_name': 'Kuroda', 'id': 644}, 'first_author': None, 'id': 1221}, {'author': {'first_name': 'Akihito ', 'initials': 'A', 'last_name': 'Yokosuka', 'id': 650}, 'first_author': None, 'id': 1222}, {'author': {'first_name': 'Yutaka', 'initials': 'Y', 'last_name': 'Sashida', 'id': 645}, 'first_author': None, 'id': 1223}], 'id': 304}]

>  <classifications>  (292) 
[{'classification': 'Bisdesmoside', 'id': 750}, {'classification': 'Cholestane', 'id': 761}, {'classification': 'Steroids and steroid derivatives (Classyfire)', 'id': 942}]

>  <molecular_mass>  (292) 
756.91

$$$$
SANC00395_minRM1.pdb
     RDKit          3D

138144  0  0  1  0  0  0  0  0999 V2000
   -5.4000    2.6020    1.2150 H   0  0  0  0  0  0  0  0  0  0  0  0
   -4.4120    2.7000    0.6810 C   0  0  2  0  0  0  0  0  0  0  0  0
   -3.3110    2.6880    1.5400 O   0  0  0  0  0  0  0  0  0  0  0  0
   -3.2460    1.6040    2.4400 C   0  0  2  0  0  0  0  0  0  0  0  0
   -3.5520    0.6350    1.9600 H   0  0  0  0  0  0  0  0  0  0  0  0
   -4.1840    1.9050    3.6190 C   0  0  0  0  0  0  0  0  0  0  0  0
   -4.1190    0.7410    4.6100 C   0  0  2  0  0  0  0  0  0  0  0  0
   -4.4820   -0.2060    4.1240 H   0  0  0  0  0  0  0  0  0  0  0  0
   -4.9560    1.1110    5.6710 O   0  0  0  0  0  0  0  0  0  0  0  0
   -2.6740    0.5590    5.0960 C   0  0  0  0  0  0  0  0  0  0  0  0
   -1.7650    0.3820    3.9230 C   0  0  0  0  0  0  0  0  0  0  0  0
   -1.0070   -0.7110    3.8470 C   0  0  0  0  0  0  0  0  0  0  0  0
   -0.0390   -0.9500    2.7520 C   0  0  0  0  0  0  0  0  0  0  0  0
    0.3940    0.3750    2.1300 C   0  0  2  0  0  0  0  0  0  0  0  0
    0.9590    0.9720    2.8910 H   0  0  0  0  0  0  0  0  0  0  0  0
   -0.8520    1.1560    1.6820 C   0  0  2  0  0  0  0  0  0  0  0  0
   -1.4390    0.5000    0.9860 H   0  0  0  0  0  0  0  0  0  0  0  0
   -0.4320    2.4020    0.8890 C   0  0  0  0  0  0  0  0  0  0  0  0
    0.5710    2.1300   -0.2340 C   0  0  0  0  0  0  0  0  0  0  0  0
    1.8060    1.4100    0.3010 C   0  0  1  0  0  0  0  0  0  0  0  0
    2.5350    2.2730    1.3210 C   0  0  0  0  0  0  0  0  0  0  0  0
    1.2730    0.1000    0.9160 C   0  0  1  0  0  0  0  0  0  0  0  0
    0.6540   -0.4460    0.1530 H   0  0  0  0  0  0  0  0  0  0  0  0
    2.5320   -0.7180    1.1560 C   0  0  0  0  0  0  0  0  0  0  0  0
    3.4200   -0.3860   -0.0680 C   0  0  2  0  0  0  0  0  0  0  0  0
    3.4180   -1.2370   -0.8000 H   0  0  0  0  0  0  0  0  0  0  0  0
    4.7250   -0.0950    0.3870 O   0  0  0  0  0  0  0  0  0  0  0  0
    5.5970   -1.1860    0.4430 C   0  0  2  0  0  0  0  0  0  0  0  0
    5.7270   -1.7000   -0.5530 H   0  0  0  0  0  0  0  0  0  0  0  0
    5.0480   -2.0390    1.4180 O   0  0  0  0  0  0  0  0  0  0  0  0
    5.8310   -3.1790    1.6630 C   0  0  2  0  0  0  0  0  0  0  0  0
    6.0010   -3.7800    0.7290 H   0  0  0  0  0  0  0  0  0  0  0  0
    5.0240   -4.0050    2.6900 C   0  0  0  0  0  0  0  0  0  0  0  0
    3.9460   -4.5390    1.9740 O   0  0  0  0  0  0  0  0  0  0  0  0
    7.1810   -2.7330    2.2780 C   0  0  1  0  0  0  0  0  0  0  0  0
    7.0100   -2.2100    3.2580 H   0  0  0  0  0  0  0  0  0  0  0  0
    7.9250   -3.9010    2.4330 O   0  0  0  0  0  0  0  0  0  0  0  0
    7.8910   -1.7820    1.2790 C   0  0  2  0  0  0  0  0  0  0  0  0
    8.1620   -2.3320    0.3380 H   0  0  0  0  0  0  0  0  0  0  0  0
    9.0230   -1.3250    1.9550 O   0  0  0  0  0  0  0  0  0  0  0  0
    6.9400   -0.6020    0.9720 C   0  0  1  0  0  0  0  0  0  0  0  0
    6.7680    0.0140    1.8960 H   0  0  0  0  0  0  0  0  0  0  0  0
    7.5720    0.1230   -0.0370 O   0  0  0  0  0  0  0  0  0  0  0  0
    2.8030    0.8760   -0.7550 C   0  0  2  0  0  0  0  0  0  0  0  0
    2.2050    0.5100   -1.6310 H   0  0  0  0  0  0  0  0  0  0  0  0
    3.8400    1.8660   -1.2930 C   0  0  2  0  0  0  0  0  0  0  0  0
    4.5500    2.1630   -0.4800 H   0  0  0  0  0  0  0  0  0  0  0  0
    3.1820    3.1330   -1.8280 C   0  0  0  0  0  0  0  0  0  0  0  0
    4.6790    1.1970   -2.4150 C   0  0  1  0  0  0  0  0  0  0  0  0
    5.1260    0.2330   -2.0590 H   0  0  0  0  0  0  0  0  0  0  0  0
    3.8850    0.7790   -3.4780 O   0  0  0  0  0  0  0  0  0  0  0  0
    5.7950    2.1500   -2.8870 C   0  0  0  0  0  0  0  0  0  0  0  0
    6.6250    1.5400   -3.9610 C   0  0  0  0  0  0  0  0  0  0  0  0
    7.1840    2.2570   -4.9390 C   0  0  0  0  0  0  0  0  0  0  0  0
    6.9990    3.7270   -5.0820 C   0  0  0  0  0  0  0  0  0  0  0  0
    8.0530    1.6260   -5.9690 C   0  0  0  0  0  0  0  0  0  0  0  0
   -1.7620    1.4910    2.9020 C   0  0  1  0  0  0  0  0  0  0  0  0
   -1.3140    2.7720    3.6050 C   0  0  0  0  0  0  0  0  0  0  0  0
   -4.1770    1.6340   -0.2090 O   0  0  0  0  0  0  0  0  0  0  0  0
   -5.1740    1.5210   -1.1940 C   0  0  2  0  0  0  0  0  0  0  0  0
   -6.2000    1.4110   -0.7470 H   0  0  0  0  0  0  0  0  0  0  0  0
   -4.8060    0.2540   -1.9940 C   0  0  0  0  0  0  0  0  0  0  0  0
   -4.9840   -0.7960   -1.0700 O   0  0  0  0  0  0  0  0  0  0  0  0
   -4.4870   -2.0360   -1.4800 C   0  0  2  0  0  0  0  0  0  0  0  0
   -3.4480   -1.9860   -1.9150 H   0  0  0  0  0  0  0  0  0  0  0  0
   -5.4290   -2.4840   -2.4240 O   0  0  0  0  0  0  0  0  0  0  0  0
   -5.1920   -3.8000   -2.8530 C   0  0  2  0  0  0  0  0  0  0  0  0
   -4.1820   -3.8880   -3.3420 H   0  0  0  0  0  0  0  0  0  0  0  0
   -6.3080   -4.0900   -3.8840 C   0  0  0  0  0  0  0  0  0  0  0  0
   -6.0290   -3.4020   -5.0620 O   0  0  0  0  0  0  0  0  0  0  0  0
   -5.2680   -4.8020   -1.6750 C   0  0  2  0  0  0  0  0  0  0  0  0
   -5.0240   -5.8360   -2.0410 H   0  0  0  0  0  0  0  0  0  0  0  0
   -6.5650   -4.7300   -1.1750 O   0  0  0  0  0  0  0  0  0  0  0  0
   -4.2300   -4.3740   -0.6070 C   0  0  2  0  0  0  0  0  0  0  0  0
   -3.1900   -4.4620   -1.0230 H   0  0  0  0  0  0  0  0  0  0  0  0
   -4.4210   -5.2440    0.4670 O   0  0  0  0  0  0  0  0  0  0  0  0
   -4.5300   -2.9140   -0.1960 C   0  0  1  0  0  0  0  0  0  0  0  0
   -5.5350   -2.8430    0.3040 H   0  0  0  0  0  0  0  0  0  0  0  0
   -3.4890   -2.5480    0.6570 O   0  0  0  0  0  0  0  0  0  0  0  0
   -5.1100    2.7740   -2.1070 C   0  0  1  0  0  0  0  0  0  0  0  0
   -4.1090    2.8430   -2.6130 H   0  0  0  0  0  0  0  0  0  0  0  0
   -6.1490    2.6200   -3.0220 O   0  0  0  0  0  0  0  0  0  0  0  0
   -5.3540    4.0320   -1.2300 C   0  0  2  0  0  0  0  0  0  0  0  0
   -6.3970    4.0230   -0.8110 H   0  0  0  0  0  0  0  0  0  0  0  0
   -5.1530    5.1140   -2.0860 O   0  0  0  0  0  0  0  0  0  0  0  0
   -4.3070    4.0470   -0.0910 C   0  0  1  0  0  0  0  0  0  0  0  0
   -3.2730    4.1840   -0.5120 H   0  0  0  0  0  0  0  0  0  0  0  0
   -4.6800    5.1010    0.7420 O   0  0  0  0  0  0  0  0  0  0  0  0
   -3.9080    2.8630    4.1130 H   0  0  0  0  0  0  0  0  0  0  0  0
   -5.2290    2.0580    3.2800 H   0  0  0  0  0  0  0  0  0  0  0  0
   -4.9710    0.3780    6.2940 H   0  0  0  0  0  0  0  0  0  0  0  0
   -2.3490    1.4200    5.7180 H   0  0  0  0  0  0  0  0  0  0  0  0
   -2.6180   -0.3010    5.7990 H   0  0  0  0  0  0  0  0  0  0  0  0
   -1.0630   -1.5010    4.6040 H   0  0  0  0  0  0  0  0  0  0  0  0
    0.8420   -1.5070    3.1370 H   0  0  0  0  0  0  0  0  0  0  0  0
   -0.4950   -1.6320    1.9990 H   0  0  0  0  0  0  0  0  0  0  0  0
   -1.3180    2.8860    0.4300 H   0  0  0  0  0  0  0  0  0  0  0  0
   -0.0230    3.1830    1.5670 H   0  0  0  0  0  0  0  0  0  0  0  0
    0.0920    1.5440   -1.0470 H   0  0  0  0  0  0  0  0  0  0  0  0
    0.8230    3.0960   -0.7130 H   0  0  0  0  0  0  0  0  0  0  0  0
    1.9630    2.4130    2.2520 H   0  0  0  0  0  0  0  0  0  0  0  0
    3.4990    1.8480    1.6340 H   0  0  0  0  0  0  0  0  0  0  0  0
    2.7440    3.2810    0.9310 H   0  0  0  0  0  0  0  0  0  0  0  0
    3.0220   -0.4560    2.1170 H   0  0  0  0  0  0  0  0  0  0  0  0
    2.3390   -1.8060    1.2350 H   0  0  0  0  0  0  0  0  0  0  0  0
    5.6510   -4.8210    3.1060 H   0  0  0  0  0  0  0  0  0  0  0  0
    4.7050   -3.3690    3.5500 H   0  0  0  0  0  0  0  0  0  0  0  0
    3.2450   -4.7210    2.6040 H   0  0  0  0  0  0  0  0  0  0  0  0
    8.7560   -3.6600    2.8590 H   0  0  0  0  0  0  0  0  0  0  0  0
    9.5150   -0.7660    1.3440 H   0  0  0  0  0  0  0  0  0  0  0  0
    7.0580    0.9260   -0.1820 H   0  0  0  0  0  0  0  0  0  0  0  0
    2.9200    3.8290   -1.0190 H   0  0  0  0  0  0  0  0  0  0  0  0
    3.8520    3.7070   -2.4900 H   0  0  0  0  0  0  0  0  0  0  0  0
    2.2740    2.9390   -2.4090 H   0  0  0  0  0  0  0  0  0  0  0  0
    3.5360    1.5560   -3.9260 H   0  0  0  0  0  0  0  0  0  0  0  0
    5.3590    3.1250   -3.2150 H   0  0  0  0  0  0  0  0  0  0  0  0
    6.4560    2.4180   -2.0350 H   0  0  0  0  0  0  0  0  0  0  0  0
    6.7770    0.4560   -3.8960 H   0  0  0  0  0  0  0  0  0  0  0  0
    6.0570    4.0820   -4.6290 H   0  0  0  0  0  0  0  0  0  0  0  0
    7.8160    4.2770   -4.5860 H   0  0  0  0  0  0  0  0  0  0  0  0
    6.9730    4.0430   -6.1290 H   0  0  0  0  0  0  0  0  0  0  0  0
    7.5300    1.5540   -6.9380 H   0  0  0  0  0  0  0  0  0  0  0  0
    8.9680    2.2150   -6.1440 H   0  0  0  0  0  0  0  0  0  0  0  0
    8.3840    0.6140   -5.7040 H   0  0  0  0  0  0  0  0  0  0  0  0
   -1.1400    3.6070    2.9080 H   0  0  0  0  0  0  0  0  0  0  0  0
   -2.0590    3.1530    4.3220 H   0  0  0  0  0  0  0  0  0  0  0  0
   -0.3790    2.6270    4.1630 H   0  0  0  0  0  0  0  0  0  0  0  0
   -5.4800    0.1370   -2.8720 H   0  0  0  0  0  0  0  0  0  0  0  0
   -3.7650    0.3070   -2.3880 H   0  0  0  0  0  0  0  0  0  0  0  0
   -6.2930   -5.1680   -4.1660 H   0  0  0  0  0  0  0  0  0  0  0  0
   -7.3190   -3.8780   -3.4640 H   0  0  0  0  0  0  0  0  0  0  0  0
   -6.4030   -2.5120   -4.9840 H   0  0  0  0  0  0  0  0  0  0  0  0
   -6.6480   -5.3720   -0.4630 H   0  0  0  0  0  0  0  0  0  0  0  0
   -3.8080   -4.9870    1.1630 H   0  0  0  0  0  0  0  0  0  0  0  0
   -3.6540   -1.6470    0.9520 H   0  0  0  0  0  0  0  0  0  0  0  0
   -6.1170    3.3710   -3.6270 H   0  0  0  0  0  0  0  0  0  0  0  0
   -5.3330    5.9190   -1.5890 H   0  0  0  0  0  0  0  0  0  0  0  0
   -4.0090    5.1830    1.4280 H   0  0  0  0  0  0  0  0  0  0  0  0
  2  1  1  1
  2 59  1  0
  2 86  1  0
  2  3  1  0
  3  4  1  0
  4  5  1  6
  4 57  1  0
  4  6  1  0
  6 90  1  0
  6 89  1  0
  6  7  1  0
  7  8  1  6
  7 10  1  0
  7  9  1  0
  9 91  1  0
 10 11  1  0
 10 92  1  0
 10 93  1  0
 11 57  1  0
 11 12  2  0
 12 13  1  0
 12 94  1  0
 13 96  1  0
 13 14  1  0
 13 95  1  0
 14 22  1  0
 14 16  1  0
 14 15  1  1
 16 18  1  0
 16 17  1  6
 16 57  1  0
 18 19  1  0
 18 97  1  0
 18 98  1  0
 19 99  1  0
 19100  1  0
 19 20  1  0
 20 44  1  0
 20 22  1  0
 20 21  1  1
 21103  1  0
 21102  1  0
 21101  1  0
 22 23  1  6
 22 24  1  0
 24 25  1  0
 24105  1  0
 24104  1  0
 25 26  1  6
 25 44  1  0
 25 27  1  0
 27 28  1  0
 28 29  1  6
 28 41  1  0
 28 30  1  0
 30 31  1  0
 31 32  1  6
 31 35  1  0
 31 33  1  0
 33 34  1  0
 33106  1  0
 33107  1  0
 34108  1  0
 35 38  1  0
 35 37  1  0
 35 36  1  1
 37109  1  0
 38 39  1  6
 38 41  1  0
 38 40  1  0
 40110  1  0
 41 43  1  0
 41 42  1  1
 43111  1  0
 44 45  1  6
 44 46  1  0
 46 49  1  0
 46 48  1  0
 46 47  1  1
 48113  1  0
 48114  1  0
 48112  1  0
 49 51  1  0
 49 52  1  0
 49 50  1  1
 51115  1  0
 52 53  1  0
 52116  1  0
 52117  1  0
 53 54  2  0
 53118  1  0
 54 56  1  0
 54 55  1  0
 55121  1  0
 55119  1  0
 55120  1  0
 56122  1  0
 56123  1  0
 56124  1  0
 57 58  1  1
 58125  1  0
 58127  1  0
 58126  1  0
 59 60  1  0
 60 80  1  0
 60 62  1  0
 60 61  1  1
 62128  1  0
 62129  1  0
 62 63  1  0
 63 64  1  0
 64 66  1  0
 64 65  1  6
 64 77  1  0
 66 67  1  0
 67 69  1  0
 67 68  1  6
 67 71  1  0
 69 70  1  0
 69130  1  0
 69131  1  0
 70132  1  0
 71 72  1  6
 71 73  1  0
 71 74  1  0
 73133  1  0
 74 75  1  6
 74 77  1  0
 74 76  1  0
 76134  1  0
 77 78  1  1
 77 79  1  0
 79135  1  0
 80 82  1  0
 80 81  1  6
 80 83  1  0
 82136  1  0
 83 85  1  0
 83 84  1  1
 83 86  1  0
 85137  1  0
 86 87  1  6
 86 88  1  0
 88138  1  0
M  END
>  <id>  (293) 
395

>  <scaffolds>  (293) 
['C1=C2CCCCC2C2CCC3CCCC3C2C1', 'C1=CCCCC1', 'C1=CCC2CCCCC2C1', 'C1=C2CCCC(OC3CCCCO3)C2C2CCC3CC(OC4CCCCO4)CC3C2C1', 'C1=C2CCCCC2C2CCC3CC(OC4CCCCO4)CC3C2C1', 'C1CCOCC1', 'C1CCCCC1', 'C1=C2CCCC(OC3CCCC(COC4CCCCO4)O3)C2C2CCC3CC(OC4CCCCO4)CC3C2C1', 'C1=C2CCCCC2CCC1']

>  <name>  (293) 
(22S)-1[beta]-[(O-[beta]-D-glucopyranosyl-(1[to]6)-[beta]-D-glucopyranosyl)oxy]-3[beta],22-dihydroxycholesta-5,24-dien-16[beta]-yl [beta]-D-glucopyranoside

>  <formula>  (293) 
C45H74O19

>  <SMILES>  (293) 
[H][C@@]7(O[C@@H]5C[C@H](O)CC4=CC[C@]1([H])[C@]([H])(CCC3(C)[C@@]1([H])C[C@H](O[C@]2([H])O[C@H](CO)[C@@H](O)[C@H](O)[C@H]2O)[C@]3([H])[C@H](C)[C@@H](O)C/C=C(C)/C)[C@]45C)O[C@H](CO[C@@H]6O[C@H](CO)[C@H](O)[C@H](O)[C@H]6O)[C@@H](O)[C@H](O)[C@H]7O

>  <ChEMBL_id>  (293) 


>  <ZINC_id>  (293) 


>  <PubChem_id>  (293) 


>  <DrugBank_id>  (293) 


>  <CAS_no>  (293) 
263570-72-5

>  <references>  (293) 
[{'journal': {'name': 'Journal of Natural Products', 'id': 5}, 'title': 'Five New Polyoxygenated Cholestane Bisdesmosides from the Bulbs of Galtonia candicans', 'year': 2001, 'start_page': 1069, 'volume': 64, 'issue': None, 'doi': '10.1021/np010208d', 'isbn': '', 'despositor': {'code': 'NFA', 'first_name': 'Ngonidzashe', 'last_name': 'Faya', 'id': 21}, 'refauthors_set': [{'author': {'first_name': 'Yoshihiro ', 'initials': 'Y', 'last_name': 'Mimaki', 'id': 643}, 'first_author': True, 'id': 889}, {'author': {'first_name': 'Minpei', 'initials': 'M', 'last_name': 'Kuroda', 'id': 644}, 'first_author': None, 'id': 1221}, {'author': {'first_name': 'Akihito ', 'initials': 'A', 'last_name': 'Yokosuka', 'id': 650}, 'first_author': None, 'id': 1222}, {'author': {'first_name': 'Yutaka', 'initials': 'Y', 'last_name': 'Sashida', 'id': 645}, 'first_author': None, 'id': 1223}], 'id': 304}]

>  <classifications>  (293) 
[{'classification': 'Bisdesmoside', 'id': 750}, {'classification': 'Cholestane', 'id': 761}, {'classification': 'Steroids and steroid derivatives (Classyfire)', 'id': 942}]

>  <molecular_mass>  (293) 
919.05

$$$$
SANC00396_minRM1.pdb
     RDKit          3D

140146  0  0  1  0  0  0  0  0999 V2000
   -5.6330   -1.6530    0.6170 H   0  0  0  0  0  0  0  0  0  0  0  0
   -5.4850   -1.1580   -0.3870 C   0  0  2  0  0  0  0  0  0  0  0  0
   -4.5870   -0.0890   -0.3450 O   0  0  0  0  0  0  0  0  0  0  0  0
   -3.3020   -0.3880    0.1550 C   0  0  1  0  0  0  0  0  0  0  0  0
   -3.3430   -1.1920    0.9370 H   0  0  0  0  0  0  0  0  0  0  0  0
   -2.3840   -0.8140   -1.0180 C   0  0  0  0  0  0  0  0  0  0  0  0
   -1.1580    0.0760   -0.8650 C   0  0  1  0  0  0  0  0  0  0  0  0
   -0.5070   -0.3740   -0.0670 H   0  0  0  0  0  0  0  0  0  0  0  0
   -0.2990    0.2900   -2.1040 C   0  0  2  0  0  0  0  0  0  0  0  0
   -0.8940    0.7940   -2.9090 H   0  0  0  0  0  0  0  0  0  0  0  0
    0.1930   -1.0610   -2.6110 C   0  0  0  0  0  0  0  0  0  0  0  0
    1.1400   -0.8720   -3.7340 C   0  0  0  0  0  0  0  0  0  0  0  0
    1.8540    0.2390   -3.8980 C   0  0  0  0  0  0  0  0  0  0  0  0
    2.7550    0.3670   -5.0830 C   0  0  0  0  0  0  0  0  0  0  0  0
    4.1960    0.6220   -4.6150 C   0  0  1  0  0  0  0  0  0  0  0  0
    4.5890   -0.2860   -4.0790 H   0  0  0  0  0  0  0  0  0  0  0  0
    5.0170    0.9560   -5.6990 O   0  0  0  0  0  0  0  0  0  0  0  0
    4.2340    1.8390   -3.6880 C   0  0  0  0  0  0  0  0  0  0  0  0
    3.3010    1.5780   -2.4980 C   0  0  1  0  0  0  0  0  0  0  0  0
    3.6190    0.6340   -1.9770 H   0  0  0  0  0  0  0  0  0  0  0  0
    3.3490    2.6970   -1.6420 O   0  0  0  0  0  0  0  0  0  0  0  0
    4.4360    2.7390   -0.7630 C   0  0  2  0  0  0  0  0  0  0  0  0
    5.4330    2.6290   -1.2770 H   0  0  0  0  0  0  0  0  0  0  0  0
    4.1870    1.6970    0.1520 O   0  0  0  0  0  0  0  0  0  0  0  0
    5.1710    1.6090    1.1530 C   0  0  2  0  0  0  0  0  0  0  0  0
    6.2020    1.4850    0.7240 H   0  0  0  0  0  0  0  0  0  0  0  0
    4.7870    0.3630    1.9770 C   0  0  0  0  0  0  0  0  0  0  0  0
    4.9550   -0.7070    1.0710 O   0  0  0  0  0  0  0  0  0  0  0  0
    4.4360   -1.9310    1.5040 C   0  0  2  0  0  0  0  0  0  0  0  0
    3.3850   -1.8610    1.9110 H   0  0  0  0  0  0  0  0  0  0  0  0
    5.3490   -2.3610    2.4860 O   0  0  0  0  0  0  0  0  0  0  0  0
    5.0890   -3.6620    2.9470 C   0  0  2  0  0  0  0  0  0  0  0  0
    4.0660   -3.7270    3.4110 H   0  0  0  0  0  0  0  0  0  0  0  0
    6.1720   -3.9190    4.0210 C   0  0  0  0  0  0  0  0  0  0  0  0
    5.9010   -3.1390    5.1420 O   0  0  0  0  0  0  0  0  0  0  0  0
    5.1880   -4.6960    1.8010 C   0  0  2  0  0  0  0  0  0  0  0  0
    4.9300   -5.7190    2.1900 H   0  0  0  0  0  0  0  0  0  0  0  0
    6.4970   -4.6440    1.3310 O   0  0  0  0  0  0  0  0  0  0  0  0
    4.1780   -4.2910    0.6960 C   0  0  2  0  0  0  0  0  0  0  0  0
    3.1270   -4.3570    1.0900 H   0  0  0  0  0  0  0  0  0  0  0  0
    4.3830   -5.1940   -0.3470 O   0  0  0  0  0  0  0  0  0  0  0  0
    4.5010   -2.8470    0.2490 C   0  0  1  0  0  0  0  0  0  0  0  0
    5.5200   -2.7990   -0.2260 H   0  0  0  0  0  0  0  0  0  0  0  0
    3.4860   -2.4980   -0.6420 O   0  0  0  0  0  0  0  0  0  0  0  0
    5.0940    2.8840    2.0320 C   0  0  1  0  0  0  0  0  0  0  0  0
    4.0860    2.9650    2.5230 H   0  0  0  0  0  0  0  0  0  0  0  0
    6.1210    2.7540    2.9640 O   0  0  0  0  0  0  0  0  0  0  0  0
    5.3470    4.1190    1.1260 C   0  0  2  0  0  0  0  0  0  0  0  0
    6.3960    4.1000    0.7200 H   0  0  0  0  0  0  0  0  0  0  0  0
    5.1370    5.2230    1.9510 O   0  0  0  0  0  0  0  0  0  0  0  0
    4.3130    4.1040   -0.0270 C   0  0  1  0  0  0  0  0  0  0  0  0
    3.2740    4.2480    0.3770 H   0  0  0  0  0  0  0  0  0  0  0  0
    4.6940    5.1390   -0.8790 O   0  0  0  0  0  0  0  0  0  0  0  0
    1.8200    1.4180   -2.9590 C   0  0  1  0  0  0  0  0  0  0  0  0
    1.3650    2.6360   -3.7600 C   0  0  0  0  0  0  0  0  0  0  0  0
    0.9060    1.1670   -1.7260 C   0  0  1  0  0  0  0  0  0  0  0  0
    1.5100    0.6120   -0.9600 H   0  0  0  0  0  0  0  0  0  0  0  0
    0.4220    2.4660   -1.0660 C   0  0  0  0  0  0  0  0  0  0  0  0
   -0.5580    2.2500    0.0870 C   0  0  0  0  0  0  0  0  0  0  0  0
   -1.7470    1.4050   -0.3570 C   0  0  1  0  0  0  0  0  0  0  0  0
   -2.5410    2.1280   -1.4380 C   0  0  0  0  0  0  0  0  0  0  0  0
   -2.6780    0.9040    0.7700 C   0  0  1  0  0  0  0  0  0  0  0  0
   -2.0390    0.5710    1.6310 H   0  0  0  0  0  0  0  0  0  0  0  0
   -3.6820    1.9150    1.3280 C   0  0  2  0  0  0  0  0  0  0  0  0
   -4.3510    2.2830    0.5110 H   0  0  0  0  0  0  0  0  0  0  0  0
   -2.9550    3.1070    1.9410 C   0  0  0  0  0  0  0  0  0  0  0  0
   -4.5740    1.2430    2.4050 C   0  0  1  0  0  0  0  0  0  0  0  0
   -5.0260    0.2950    2.0160 H   0  0  0  0  0  0  0  0  0  0  0  0
   -3.8260    0.7780    3.4840 O   0  0  0  0  0  0  0  0  0  0  0  0
   -5.6980    2.1930    2.8660 C   0  0  0  0  0  0  0  0  0  0  0  0
   -6.6820    1.4530    3.7670 C   0  0  0  0  0  0  0  0  0  0  0  0
   -7.8880    2.3200    4.1410 C   0  0  1  0  0  0  0  0  0  0  0  0
   -8.8480    1.5020    5.0000 C   0  0  0  0  0  0  0  0  0  0  0  0
   -7.4600    3.5690    4.9020 C   0  0  0  0  0  0  0  0  0  0  0  0
   -4.9520   -2.0450   -1.3380 O   0  0  0  0  0  0  0  0  0  0  0  0
   -5.7690   -3.1680   -1.5590 C   0  0  2  0  0  0  0  0  0  0  0  0
   -5.9700   -3.7350   -0.6090 H   0  0  0  0  0  0  0  0  0  0  0  0
   -4.9730   -4.0490   -2.5430 C   0  0  0  0  0  0  0  0  0  0  0  0
   -3.9210   -4.5920   -1.7980 O   0  0  0  0  0  0  0  0  0  0  0  0
   -7.0980   -2.6940   -2.2030 C   0  0  1  0  0  0  0  0  0  0  0  0
   -6.8980   -2.1920   -3.1890 H   0  0  0  0  0  0  0  0  0  0  0  0
   -7.8740   -3.8430   -2.3490 O   0  0  0  0  0  0  0  0  0  0  0  0
   -7.7890   -1.7070   -1.2270 C   0  0  2  0  0  0  0  0  0  0  0  0
   -8.0840   -2.2360   -0.2790 H   0  0  0  0  0  0  0  0  0  0  0  0
   -8.9040   -1.2340   -1.9180 O   0  0  0  0  0  0  0  0  0  0  0  0
   -6.8100   -0.5470   -0.9250 C   0  0  1  0  0  0  0  0  0  0  0  0
   -6.6200    0.0570   -1.8540 H   0  0  0  0  0  0  0  0  0  0  0  0
   -7.4270    0.2060    0.0720 O   0  0  0  0  0  0  0  0  0  0  0  0
   -2.1470   -1.8930   -0.9740 H   0  0  0  0  0  0  0  0  0  0  0  0
   -2.8680   -0.6810   -2.0050 H   0  0  0  0  0  0  0  0  0  0  0  0
    0.6900   -1.6470   -1.8070 H   0  0  0  0  0  0  0  0  0  0  0  0
   -0.6620   -1.6940   -2.9310 H   0  0  0  0  0  0  0  0  0  0  0  0
    1.2170   -1.7140   -4.4310 H   0  0  0  0  0  0  0  0  0  0  0  0
    2.7230   -0.5380   -5.7300 H   0  0  0  0  0  0  0  0  0  0  0  0
    2.4040    1.1770   -5.7580 H   0  0  0  0  0  0  0  0  0  0  0  0
    5.0530    0.1910   -6.2800 H   0  0  0  0  0  0  0  0  0  0  0  0
    5.2750    2.0340   -3.3580 H   0  0  0  0  0  0  0  0  0  0  0  0
    3.9390    2.7630   -4.2330 H   0  0  0  0  0  0  0  0  0  0  0  0
    5.4600    0.2540    2.8570 H   0  0  0  0  0  0  0  0  0  0  0  0
    3.7470    0.4380    2.3700 H   0  0  0  0  0  0  0  0  0  0  0  0
    6.1160   -4.9720    4.3760 H   0  0  0  0  0  0  0  0  0  0  0  0
    7.1980   -3.7730    3.6120 H   0  0  0  0  0  0  0  0  0  0  0  0
    6.2570   -2.2600    4.9810 H   0  0  0  0  0  0  0  0  0  0  0  0
    6.5930   -5.3040    0.6360 H   0  0  0  0  0  0  0  0  0  0  0  0
    3.7890   -4.9530   -1.0660 H   0  0  0  0  0  0  0  0  0  0  0  0
    3.6700   -1.6090   -0.9610 H   0  0  0  0  0  0  0  0  0  0  0  0
    6.0830    3.5240    3.5440 H   0  0  0  0  0  0  0  0  0  0  0  0
    5.3160    6.0150    1.4350 H   0  0  0  0  0  0  0  0  0  0  0  0
    4.0410    5.1930   -1.5840 H   0  0  0  0  0  0  0  0  0  0  0  0
    2.0800    2.9300   -4.5440 H   0  0  0  0  0  0  0  0  0  0  0  0
    0.4030    2.4530   -4.2600 H   0  0  0  0  0  0  0  0  0  0  0  0
    1.2380    3.5360   -3.1420 H   0  0  0  0  0  0  0  0  0  0  0  0
    1.2840    3.0440   -0.6700 H   0  0  0  0  0  0  0  0  0  0  0  0
   -0.0320    3.1520   -1.8130 H   0  0  0  0  0  0  0  0  0  0  0  0
   -0.0410    1.7840    0.9510 H   0  0  0  0  0  0  0  0  0  0  0  0
   -0.8960    3.2370    0.4720 H   0  0  0  0  0  0  0  0  0  0  0  0
   -2.0070    2.1670   -2.4020 H   0  0  0  0  0  0  0  0  0  0  0  0
   -3.5040    1.6550   -1.6710 H   0  0  0  0  0  0  0  0  0  0  0  0
   -2.7670    3.1690   -1.1680 H   0  0  0  0  0  0  0  0  0  0  0  0
   -2.4010    3.6930    1.1900 H   0  0  0  0  0  0  0  0  0  0  0  0
   -3.6430    3.8150    2.4260 H   0  0  0  0  0  0  0  0  0  0  0  0
   -2.2100    2.8180    2.6970 H   0  0  0  0  0  0  0  0  0  0  0  0
   -3.4830    1.5310    3.9760 H   0  0  0  0  0  0  0  0  0  0  0  0
   -5.2730    3.0760    3.3870 H   0  0  0  0  0  0  0  0  0  0  0  0
   -6.2240    2.6160    1.9850 H   0  0  0  0  0  0  0  0  0  0  0  0
   -7.0370    0.5290    3.2610 H   0  0  0  0  0  0  0  0  0  0  0  0
   -6.1650    1.0900    4.6800 H   0  0  0  0  0  0  0  0  0  0  0  0
   -8.4220    2.6290    3.2050 H   0  0  0  0  0  0  0  0  0  0  0  0
   -8.3970    1.1990    5.9550 H   0  0  0  0  0  0  0  0  0  0  0  0
   -9.7610    2.0620    5.2440 H   0  0  0  0  0  0  0  0  0  0  0  0
   -9.1750    0.5810    4.4960 H   0  0  0  0  0  0  0  0  0  0  0  0
   -6.9930    4.3210    4.2460 H   0  0  0  0  0  0  0  0  0  0  0  0
   -8.3150    4.0770    5.3740 H   0  0  0  0  0  0  0  0  0  0  0  0
   -6.7490    3.3480    5.7070 H   0  0  0  0  0  0  0  0  0  0  0  0
   -5.6210   -4.8660   -2.9430 H   0  0  0  0  0  0  0  0  0  0  0  0
   -4.6330   -3.4570   -3.4260 H   0  0  0  0  0  0  0  0  0  0  0  0
   -3.1730   -4.6970   -2.3920 H   0  0  0  0  0  0  0  0  0  0  0  0
   -8.6980   -3.5840   -2.7750 H   0  0  0  0  0  0  0  0  0  0  0  0
   -9.3820   -0.6490   -1.3230 H   0  0  0  0  0  0  0  0  0  0  0  0
   -6.8580    0.9600    0.2630 H   0  0  0  0  0  0  0  0  0  0  0  0
  2  1  1  1
  2 75  1  0
  2 86  1  0
  2  3  1  0
  3  4  1  0
  4  6  1  0
  4 62  1  0
  4  5  1  1
  6 90  1  0
  6 89  1  0
  6  7  1  0
  7  9  1  0
  7 60  1  0
  7  8  1  1
  9 10  1  6
  9 11  1  0
  9 56  1  0
 11 12  1  0
 11 92  1  0
 11 91  1  0
 12 93  1  0
 12 13  2  0
 13 14  1  0
 13 54  1  0
 14 95  1  0
 14 94  1  0
 14 15  1  0
 15 17  1  0
 15 16  1  1
 15 18  1  0
 17 96  1  0
 18 98  1  0
 18 97  1  0
 18 19  1  0
 19 54  1  0
 19 20  1  1
 19 21  1  0
 21 22  1  0
 22 23  1  6
 22 51  1  0
 22 24  1  0
 24 25  1  0
 25 26  1  6
 25 27  1  0
 25 45  1  0
 27 28  1  0
 27100  1  0
 27 99  1  0
 28 29  1  0
 29 42  1  0
 29 30  1  1
 29 31  1  0
 31 32  1  0
 32 36  1  0
 32 33  1  1
 32 34  1  0
 34102  1  0
 34101  1  0
 34 35  1  0
 35103  1  0
 36 39  1  0
 36 38  1  0
 36 37  1  1
 38104  1  0
 39 41  1  0
 39 42  1  0
 39 40  1  1
 41105  1  0
 42 44  1  0
 42 43  1  6
 44106  1  0
 45 48  1  0
 45 46  1  1
 45 47  1  0
 47107  1  0
 48 51  1  0
 48 49  1  6
 48 50  1  0
 50108  1  0
 51 53  1  0
 51 52  1  1
 53109  1  0
 54 55  1  6
 54 56  1  0
 55110  1  0
 55111  1  0
 55112  1  0
 56 58  1  0
 56 57  1  1
 58114  1  0
 58113  1  0
 58 59  1  0
 59 60  1  0
 59116  1  0
 59115  1  0
 60 61  1  6
 60 62  1  0
 61117  1  0
 61118  1  0
 61119  1  0
 62 64  1  0
 62 63  1  1
 64 65  1  6
 64 66  1  0
 64 67  1  0
 66120  1  0
 66121  1  0
 66122  1  0
 67 68  1  6
 67 70  1  0
 67 69  1  0
 69123  1  0
 70125  1  0
 70124  1  0
 70 71  1  0
 71126  1  0
 71 72  1  0
 71127  1  0
 72128  1  6
 72 74  1  0
 72 73  1  0
 73131  1  0
 73130  1  0
 73129  1  0
 74132  1  0
 74133  1  0
 74134  1  0
 75 76  1  0
 76 78  1  0
 76 80  1  0
 76 77  1  1
 78136  1  0
 78135  1  0
 78 79  1  0
 79137  1  0
 80 81  1  6
 80 82  1  0
 80 83  1  0
 82138  1  0
 83 85  1  0
 83 86  1  0
 83 84  1  1
 85139  1  0
 86 87  1  6
 86 88  1  0
 88140  1  0
M  END
>  <id>  (294) 
396

>  <scaffolds>  (294) 
['C1=C2CCCCC2C2CCC3CCCC3C2C1', 'C1=CCCCC1', 'C1=CCC2CCCCC2C1', 'C1=C2CCCC(OC3CCCCO3)C2C2CCC3CC(OC4CCCCO4)CC3C2C1', 'C1=C2CCCCC2C2CCC3CC(OC4CCCCO4)CC3C2C1', 'C1CCOCC1', 'C1CCCCC1', 'C1=C2CCCC(OC3CCCC(COC4CCCCO4)O3)C2C2CCC3CC(OC4CCCCO4)CC3C2C1', 'C1=C2CCCCC2CCC1']

>  <name>  (294) 
(22S)-1[beta]-[(O-[beta]-D-glucopyranosyl-(1[to]6)-[beta]-D-glucopyranosyl)oxy]-3[beta],22-dihydroxycholest-5-en-16[beta]-yl [beta]-D-glucopyranoside

>  <formula>  (294) 
C45H76O19

>  <SMILES>  (294) 
[H][C@@]7(O[C@H]6C[C@@]5([H])[C@]4([H])CC=C3C[C@@H](O)C[C@@H](O[C@]2([H])O[C@H](CO[C@@H]1O[C@H](CO)[C@H](O)[C@H](O)[C@H]1O)[C@@H](O)[C@H](O)[C@H]2O)[C@]3(C)[C@@]4([H])CCC5(C)[C@@]6([H])[C@H](C)[C@@H](O)CCC(C)C)O[C@H](CO)[C@@H](O)[C@H](O)[C@H]7O

>  <ChEMBL_id>  (294) 


>  <ZINC_id>  (294) 


>  <PubChem_id>  (294) 


>  <DrugBank_id>  (294) 


>  <CAS_no>  (294) 
263570-73-6

>  <references>  (294) 
[{'journal': {'name': 'Journal of Natural Products', 'id': 5}, 'title': 'Five New Polyoxygenated Cholestane Bisdesmosides from the Bulbs of Galtonia candicans', 'year': 2001, 'start_page': 1069, 'volume': 64, 'issue': None, 'doi': '10.1021/np010208d', 'isbn': '', 'despositor': {'code': 'NFA', 'first_name': 'Ngonidzashe', 'last_name': 'Faya', 'id': 21}, 'refauthors_set': [{'author': {'first_name': 'Yoshihiro ', 'initials': 'Y', 'last_name': 'Mimaki', 'id': 643}, 'first_author': True, 'id': 889}, {'author': {'first_name': 'Minpei', 'initials': 'M', 'last_name': 'Kuroda', 'id': 644}, 'first_author': None, 'id': 1221}, {'author': {'first_name': 'Akihito ', 'initials': 'A', 'last_name': 'Yokosuka', 'id': 650}, 'first_author': None, 'id': 1222}, {'author': {'first_name': 'Yutaka', 'initials': 'Y', 'last_name': 'Sashida', 'id': 645}, 'first_author': None, 'id': 1223}], 'id': 304}]

>  <classifications>  (294) 
[{'classification': 'Bisdesmoside', 'id': 750}, {'classification': 'Cholestane', 'id': 761}, {'classification': 'Steroids and steroid derivatives (Classyfire)', 'id': 942}]

>  <molecular_mass>  (294) 
921.07

$$$$
SANC00397_minRM1.pdb
     RDKit          3D

133140  0  0  1  0  0  0  0  0999 V2000
   -7.9940   -1.2790   -2.5260 H   0  0  0  0  0  0  0  0  0  0  0  0
   -7.5330   -0.3970   -2.0020 C   0  0  1  0  0  0  0  0  0  0  0  0
   -6.0120   -0.3440   -2.3050 C   0  0  0  0  0  0  0  0  0  0  0  0
   -5.3920   -0.9820   -1.0700 C   0  0  1  0  0  0  0  0  0  0  0  0
   -5.5340   -2.0940   -1.1530 H   0  0  0  0  0  0  0  0  0  0  0  0
   -3.9180   -0.7030   -0.8060 C   0  0  2  0  0  0  0  0  0  0  0  0
   -3.7420    0.3930   -0.6740 H   0  0  0  0  0  0  0  0  0  0  0  0
   -3.0770   -1.1980   -1.9830 C   0  0  0  0  0  0  0  0  0  0  0  0
   -1.6320   -1.2140   -1.6500 C   0  0  0  0  0  0  0  0  0  0  0  0
   -1.1570   -1.1930   -0.4040 C   0  0  0  0  0  0  0  0  0  0  0  0
    0.3170   -1.1430   -0.1710 C   0  0  0  0  0  0  0  0  0  0  0  0
    0.7410   -2.1990    0.8550 C   0  0  1  0  0  0  0  0  0  0  0  0
    0.5900   -3.2310    0.4390 H   0  0  0  0  0  0  0  0  0  0  0  0
    2.0840   -1.9880    1.2460 O   0  0  0  0  0  0  0  0  0  0  0  0
    3.0520   -2.2810    0.2870 C   0  0  2  0  0  0  0  0  0  0  0  0
    2.8090   -1.9290   -0.7560 H   0  0  0  0  0  0  0  0  0  0  0  0
    3.1480   -3.6910    0.3480 O   0  0  0  0  0  0  0  0  0  0  0  0
    4.1670   -4.2100   -0.4660 C   0  0  2  0  0  0  0  0  0  0  0  0
    4.0510   -3.8930   -1.5410 H   0  0  0  0  0  0  0  0  0  0  0  0
    4.0170   -5.7440   -0.3560 C   0  0  0  0  0  0  0  0  0  0  0  0
    2.7980   -6.1210   -0.9180 O   0  0  0  0  0  0  0  0  0  0  0  0
    5.5300   -3.7340    0.0910 C   0  0  1  0  0  0  0  0  0  0  0  0
    5.6670   -4.0800    1.1530 H   0  0  0  0  0  0  0  0  0  0  0  0
    6.5600   -4.1540   -0.7540 O   0  0  0  0  0  0  0  0  0  0  0  0
    5.5660   -2.1860    0.0260 C   0  0  2  0  0  0  0  0  0  0  0  0
    5.5250   -1.8450   -1.0470 H   0  0  0  0  0  0  0  0  0  0  0  0
    6.6970   -1.7120    0.6880 O   0  0  0  0  0  0  0  0  0  0  0  0
    4.3620   -1.6320    0.8250 C   0  0  1  0  0  0  0  0  0  0  0  0
    4.4810   -1.8510    1.9200 H   0  0  0  0  0  0  0  0  0  0  0  0
    4.2540   -0.2630    0.5100 O   0  0  0  0  0  0  0  0  0  0  0  0
    4.7030    0.6050    1.5120 C   0  0  2  0  0  0  0  0  0  0  0  0
    5.7030    0.3190    1.9510 H   0  0  0  0  0  0  0  0  0  0  0  0
    3.6560    0.5350    2.4560 O   0  0  0  0  0  0  0  0  0  0  0  0
    3.8210    1.3740    3.5670 C   0  0  2  0  0  0  0  0  0  0  0  0
    4.7790    1.1640    4.1170 H   0  0  0  0  0  0  0  0  0  0  0  0
    2.5950    1.0410    4.4580 C   0  0  0  0  0  0  0  0  0  0  0  0
    2.6020   -0.2820    4.8720 O   0  0  0  0  0  0  0  0  0  0  0  0
    3.7830    2.8410    3.0740 C   0  0  1  0  0  0  0  0  0  0  0  0
    2.7840    3.0780    2.6110 H   0  0  0  0  0  0  0  0  0  0  0  0
    4.1090    3.7050    4.1210 O   0  0  0  0  0  0  0  0  0  0  0  0
    4.9110    3.0510    2.0270 C   0  0  2  0  0  0  0  0  0  0  0  0
    5.9230    2.9200    2.5070 H   0  0  0  0  0  0  0  0  0  0  0  0
    4.7760    4.3130    1.4360 O   0  0  0  0  0  0  0  0  0  0  0  0
    4.7250    2.0290    0.8730 C   0  0  1  0  0  0  0  0  0  0  0  0
    3.7800    2.2310    0.2980 H   0  0  0  0  0  0  0  0  0  0  0  0
    5.8820    2.0440    0.0810 O   0  0  0  0  0  0  0  0  0  0  0  0
    5.8620    2.9190   -1.0180 C   0  0  2  0  0  0  0  0  0  0  0  0
    5.3970    3.9220   -0.8220 H   0  0  0  0  0  0  0  0  0  0  0  0
    5.0360    2.3820   -1.9980 O   0  0  0  0  0  0  0  0  0  0  0  0
    5.4290    1.1470   -2.5490 C   0  0  1  0  0  0  0  0  0  0  0  0
    5.4190    0.3410   -1.7670 H   0  0  0  0  0  0  0  0  0  0  0  0
    4.3940    0.8470   -3.6310 C   0  0  0  0  0  0  0  0  0  0  0  0
    6.8380    1.2780   -3.1720 C   0  0  2  0  0  0  0  0  0  0  0  0
    6.8310    2.0330   -4.0050 H   0  0  0  0  0  0  0  0  0  0  0  0
    7.1820   -0.0050   -3.5950 O   0  0  0  0  0  0  0  0  0  0  0  0
    7.8350    1.7140   -2.0700 C   0  0  1  0  0  0  0  0  0  0  0  0
    7.9060    0.9310   -1.2650 H   0  0  0  0  0  0  0  0  0  0  0  0
    9.0530    1.8550   -2.7330 O   0  0  0  0  0  0  0  0  0  0  0  0
    7.3540    3.0410   -1.4420 C   0  0  1  0  0  0  0  0  0  0  0  0
    7.9750    3.2980   -0.5400 H   0  0  0  0  0  0  0  0  0  0  0  0
    7.5000    3.9970   -2.4440 O   0  0  0  0  0  0  0  0  0  0  0  0
   -0.0530   -2.0120    2.1530 C   0  0  0  0  0  0  0  0  0  0  0  0
   -1.5430   -2.1270    1.8660 C   0  0  0  0  0  0  0  0  0  0  0  0
   -2.0320   -1.1150    0.8160 C   0  0  1  0  0  0  0  0  0  0  0  0
   -1.9290    0.3120    1.3650 C   0  0  0  0  0  0  0  0  0  0  0  0
   -3.5000   -1.4680    0.4570 C   0  0  1  0  0  0  0  0  0  0  0  0
   -3.5470   -2.5640    0.2160 H   0  0  0  0  0  0  0  0  0  0  0  0
   -4.4390   -1.2130    1.6430 C   0  0  0  0  0  0  0  0  0  0  0  0
   -5.9290   -1.2940    1.3100 C   0  0  0  0  0  0  0  0  0  0  0  0
   -6.2510   -0.4480    0.0860 C   0  0  1  0  0  0  0  0  0  0  0  0
   -5.9520    1.0200    0.3350 C   0  0  0  0  0  0  0  0  0  0  0  0
   -5.8220    1.4910    1.4480 O   0  0  0  0  0  0  0  0  0  0  0  0
   -7.6890   -0.5880   -0.4670 C   0  0  1  0  0  0  0  0  0  0  0  0
   -7.9860   -1.6630   -0.3340 H   0  0  0  0  0  0  0  0  0  0  0  0
   -8.7400    0.2800    0.2370 C   0  0  2  0  0  0  0  0  0  0  0  0
   -8.2480    1.0720    0.8610 H   0  0  0  0  0  0  0  0  0  0  0  0
   -9.5920   -0.5660    1.1850 C   0  0  0  0  0  0  0  0  0  0  0  0
   -9.6720    0.9730   -0.7660 C   0  0  1  0  0  0  0  0  0  0  0  0
  -10.3310    0.2170   -1.2730 H   0  0  0  0  0  0  0  0  0  0  0  0
  -10.4730    2.0110   -0.0470 C   0  0  0  0  0  0  0  0  0  0  0  0
  -11.7950    1.9580    0.1420 C   0  0  0  0  0  0  0  0  0  0  0  0
  -12.6570    0.8310   -0.3030 C   0  0  0  0  0  0  0  0  0  0  0  0
  -12.5170    3.0660    0.8360 C   0  0  0  0  0  0  0  0  0  0  0  0
   -8.7880    1.6520   -1.8350 C   0  0  2  0  0  0  0  0  0  0  0  0
   -8.0400    2.3680   -1.3860 H   0  0  0  0  0  0  0  0  0  0  0  0
   -9.6430    2.2880   -2.7250 O   0  0  0  0  0  0  0  0  0  0  0  0
   -8.1300    0.6990   -2.6300 O   0  0  0  0  0  0  0  0  0  0  0  0
   -5.7620   -0.8820   -3.2390 H   0  0  0  0  0  0  0  0  0  0  0  0
   -5.6510    0.6880   -2.4880 H   0  0  0  0  0  0  0  0  0  0  0  0
   -3.3860   -2.2130   -2.3130 H   0  0  0  0  0  0  0  0  0  0  0  0
   -3.2520   -0.5500   -2.8710 H   0  0  0  0  0  0  0  0  0  0  0  0
   -0.9630   -1.2450   -2.5140 H   0  0  0  0  0  0  0  0  0  0  0  0
    0.8820   -1.2790   -1.1190 H   0  0  0  0  0  0  0  0  0  0  0  0
    0.6140   -0.1230    0.1620 H   0  0  0  0  0  0  0  0  0  0  0  0
    4.7800   -6.2490   -0.9880 H   0  0  0  0  0  0  0  0  0  0  0  0
    4.1630   -6.0950    0.6880 H   0  0  0  0  0  0  0  0  0  0  0  0
    2.1200   -6.0480   -0.2470 H   0  0  0  0  0  0  0  0  0  0  0  0
    6.8290   -5.0320   -0.4690 H   0  0  0  0  0  0  0  0  0  0  0  0
    7.4490   -1.8480    0.1010 H   0  0  0  0  0  0  0  0  0  0  0  0
    2.6180    1.6280    5.3950 H   0  0  0  0  0  0  0  0  0  0  0  0
    1.6450    1.3020    3.9410 H   0  0  0  0  0  0  0  0  0  0  0  0
    2.7390   -0.8690    4.1260 H   0  0  0  0  0  0  0  0  0  0  0  0
    3.3290    3.8160    4.6660 H   0  0  0  0  0  0  0  0  0  0  0  0
    4.9510    4.9680    2.1230 H   0  0  0  0  0  0  0  0  0  0  0  0
    4.3470    1.6370   -4.3970 H   0  0  0  0  0  0  0  0  0  0  0  0
    4.6270   -0.0970   -4.1450 H   0  0  0  0  0  0  0  0  0  0  0  0
    3.3820    0.7570   -3.2120 H   0  0  0  0  0  0  0  0  0  0  0  0
    7.8300    0.0860   -4.3070 H   0  0  0  0  0  0  0  0  0  0  0  0
    9.6520    2.3400   -2.1690 H   0  0  0  0  0  0  0  0  0  0  0  0
    7.1940    4.8410   -2.0920 H   0  0  0  0  0  0  0  0  0  0  0  0
    0.2550   -2.7740    2.9020 H   0  0  0  0  0  0  0  0  0  0  0  0
    0.1950   -1.0400    2.6360 H   0  0  0  0  0  0  0  0  0  0  0  0
   -1.7740   -3.1670    1.5390 H   0  0  0  0  0  0  0  0  0  0  0  0
   -2.1060   -1.9950    2.8180 H   0  0  0  0  0  0  0  0  0  0  0  0
   -0.9360    0.5450    1.7740 H   0  0  0  0  0  0  0  0  0  0  0  0
   -2.1290    1.0740    0.5940 H   0  0  0  0  0  0  0  0  0  0  0  0
   -2.6460    0.5040    2.1860 H   0  0  0  0  0  0  0  0  0  0  0  0
   -4.2280   -1.9520    2.4470 H   0  0  0  0  0  0  0  0  0  0  0  0
   -4.2060   -0.2380    2.1240 H   0  0  0  0  0  0  0  0  0  0  0  0
   -6.2340   -2.3500    1.1490 H   0  0  0  0  0  0  0  0  0  0  0  0
   -6.5290   -0.9630    2.1840 H   0  0  0  0  0  0  0  0  0  0  0  0
   -5.8760    1.6660   -0.5610 H   0  0  0  0  0  0  0  0  0  0  0  0
   -8.9850   -1.0810    1.9410 H   0  0  0  0  0  0  0  0  0  0  0  0
  -10.3190    0.0510    1.7390 H   0  0  0  0  0  0  0  0  0  0  0  0
  -10.1780   -1.3370    0.6620 H   0  0  0  0  0  0  0  0  0  0  0  0
   -9.9010    2.8830    0.2860 H   0  0  0  0  0  0  0  0  0  0  0  0
  -12.6910    0.0400    0.4620 H   0  0  0  0  0  0  0  0  0  0  0  0
  -13.6990    1.1410   -0.4870 H   0  0  0  0  0  0  0  0  0  0  0  0
  -12.3100    0.3650   -1.2380 H   0  0  0  0  0  0  0  0  0  0  0  0
  -13.1740    3.6000    0.1410 H   0  0  0  0  0  0  0  0  0  0  0  0
  -13.1460    2.6850    1.6460 H   0  0  0  0  0  0  0  0  0  0  0  0
  -11.8590    3.8180    1.2860 H   0  0  0  0  0  0  0  0  0  0  0  0
   -9.1790    2.4640   -3.5510 H   0  0  0  0  0  0  0  0  0  0  0  0
  2  1  1  6
  2 87  1  0
  2  3  1  0
  2 73  1  0
  3 88  1  0
  3 89  1  0
  3  4  1  0
  4  5  1  6
  4  6  1  0
  4 70  1  0
  6  8  1  0
  6  7  1  1
  6 66  1  0
  8 91  1  0
  8 90  1  0
  8  9  1  0
  9 92  1  0
  9 10  2  0
 10 11  1  0
 10 64  1  0
 11 93  1  0
 11 94  1  0
 11 12  1  0
 12 13  1  6
 12 14  1  0
 12 62  1  0
 14 15  1  0
 15 16  1  6
 15 17  1  0
 15 28  1  0
 17 18  1  0
 18 19  1  6
 18 20  1  0
 18 22  1  0
 20 95  1  0
 20 21  1  0
 20 96  1  0
 21 97  1  0
 22 24  1  0
 22 25  1  0
 22 23  1  1
 24 98  1  0
 25 26  1  6
 25 27  1  0
 25 28  1  0
 27 99  1  0
 28 30  1  0
 28 29  1  1
 30 31  1  0
 31 44  1  0
 31 32  1  1
 31 33  1  0
 33 34  1  0
 34 38  1  0
 34 35  1  1
 34 36  1  0
 36101  1  0
 36 37  1  0
 36100  1  0
 37102  1  0
 38 41  1  0
 38 39  1  6
 38 40  1  0
 40103  1  0
 41 44  1  0
 41 43  1  0
 41 42  1  1
 43104  1  0
 44 46  1  0
 44 45  1  6
 46 47  1  0
 47 49  1  0
 47 59  1  0
 47 48  1  1
 49 50  1  0
 50 52  1  0
 50 53  1  0
 50 51  1  1
 52105  1  0
 52106  1  0
 52107  1  0
 53 54  1  6
 53 55  1  0
 53 56  1  0
 55108  1  0
 56 58  1  0
 56 59  1  0
 56 57  1  1
 58109  1  0
 59 61  1  0
 59 60  1  1
 61110  1  0
 62 63  1  0
 62112  1  0
 62111  1  0
 63 64  1  0
 63113  1  0
 63114  1  0
 64 66  1  0
 64 65  1  1
 65116  1  0
 65115  1  0
 65117  1  0
 66 67  1  6
 66 68  1  0
 68 69  1  0
 68119  1  0
 68118  1  0
 69 70  1  0
 69120  1  0
 69121  1  0
 70 73  1  0
 70 71  1  1
 71122  1  0
 71 72  2  0
 73 74  1  6
 73 75  1  0
 75 78  1  0
 75 76  1  1
 75 77  1  0
 77125  1  0
 77124  1  0
 77123  1  0
 78 84  1  0
 78 79  1  6
 78 80  1  0
 80 81  2  0
 80126  1  0
 81 82  1  0
 81 83  1  0
 82129  1  0
 82128  1  0
 82127  1  0
 83130  1  0
 83132  1  0
 83131  1  0
 84 86  1  0
 84 87  1  0
 84 85  1  1
 86133  1  0
M  END
>  <id>  (295) 
397

>  <scaffolds>  (295) 
['C1=C2CCCCC2C2CCC3CCCC3C2C1', 'C1=CCCCC1', 'C1=CCC2CCCCC2C1', 'C1CCOCC1', 'C1=C2CC(OC3CCCCO3)CCC2C2CCC3CCCC3C2C1', 'C1CCCCC1', 'C1=C2CC(OC3OCCCC3OC3CCCCO3)CCC2C2CCC3C4CCCOC4CC3C2C1', 'C1=C2CC(OC3OCCCC3OC3OCCCC3OC3CCCCO3)CCC2C2CCC3C4CCCOC4CC3C2C1', 'C1=C2CCCCC2CCC1', 'C1CCC(OC2CCCOC2)OC1']

>  <name>  (295) 
Saundersioside C

>  <formula>  (295) 
C45H70O18

>  <SMILES>  (295) 
[H][C@]78C[C@@]6([H])[C@]5([H])CC=C4C[C@@H](O[C@]1([H])O[C@H](CO)[C@@H](O)[C@H](O)[C@H]1O[C@]2([H])O[C@H](CO)[C@@H](O)[C@H](O)[C@H]2O[C@]3([H])O[C@@H](C)[C@H](O)[C@@H](O)[C@H]3O)CC[C@]4(C)[C@@]5([H])CC[C@]6(C=O)[C@@]7([H])[C@H](C)[C@@H](/C=C(C)/C)[C@H](O)O8

>  <ChEMBL_id>  (295) 


>  <ZINC_id>  (295) 


>  <PubChem_id>  (295) 


>  <DrugBank_id>  (295) 


>  <CAS_no>  (295) 
153005-20-0

>  <references>  (295) 
[{'journal': {'name': 'Tetrahedron Letters', 'id': 3}, 'title': 'Three novel rearranged cholestane glycosides from Ornithogalum saundersiae bulbs and their cytostatic activities on leukemia HL-60 and MOLT-4 cells', 'year': 1996, 'start_page': 1445, 'volume': 37, 'issue': 8, 'doi': '10.1016/0040-4039(95)02407-7', 'isbn': '', 'despositor': {'code': 'NFA', 'first_name': 'Ngonidzashe', 'last_name': 'Faya', 'id': 21}, 'refauthors_set': [{'author': {'first_name': 'Yoshihiro ', 'initials': 'Y', 'last_name': 'Mimaki', 'id': 643}, 'first_author': True, 'id': 891}, {'author': {'first_name': 'Minpei', 'initials': 'M', 'last_name': 'Kuroda', 'id': 644}, 'first_author': None, 'id': 1212}, {'author': {'first_name': 'Yutaka', 'initials': 'Y', 'last_name': 'Sashida', 'id': 645}, 'first_author': None, 'id': 1213}, {'author': {'first_name': 'Toshihiko', 'initials': 'T', 'last_name': 'Hirano', 'id': 641}, 'first_author': None, 'id': 1214}, {'author': {'first_name': 'Kitaro ', 'initials': 'K', 'last_name': 'Oka', 'id': 642}, 'first_author': None, 'id': 1215}, {'author': {'first_name': 'Akira', 'initials': 'A', 'last_name': 'Dobashi', 'id': 651}, 'first_author': None, 'id': 1216}], 'id': 306}, {'journal': {'name': 'Phytochemistry', 'id': 10}, 'title': 'Saundersiosides C-H, rearranged cholestane glycosides from the bulbs of Ornithogalum saundersiae and their cytostatic activity on HL-60 cells', 'year': 1999, 'start_page': 435, 'volume': 52, 'issue': 3, 'doi': '10.1016/S0031-9422(99)00239-3', 'isbn': '', 'despositor': {'code': 'rah', 'first_name': 'Rowan', 'last_name': 'Hatherley', 'id': 20}, 'refauthors_set': [{'author': {'first_name': 'Minpei', 'initials': 'M', 'last_name': 'Kuroda', 'id': 644}, 'first_author': True, 'id': 1029}, {'author': {'first_name': 'Yoshihiro ', 'initials': 'Y', 'last_name': 'Mimaki', 'id': 643}, 'first_author': None, 'id': 1189}, {'author': {'first_name': 'Yutaka', 'initials': 'Y', 'last_name': 'Sashida', 'id': 645}, 'first_author': None, 'id': 1190}], 'id': 338}]

>  <classifications>  (295) 
[{'classification': 'Cholestane', 'id': 761}, {'classification': 'Glycoside', 'id': 781}, {'classification': 'Steroids and steroid derivatives (Classyfire)', 'id': 942}]

>  <molecular_mass>  (295) 
899.02

$$$$
SANC00398_minRM1.pdb
     RDKit          3D

112118  0  0  1  0  0  0  0  0999 V2000
   -6.8830   -1.5360   -1.8770 H   0  0  0  0  0  0  0  0  0  0  0  0
   -6.1340   -0.8130   -1.4460 C   0  0  1  0  0  0  0  0  0  0  0  0
   -4.6870   -1.1110   -1.9130 C   0  0  0  0  0  0  0  0  0  0  0  0
   -3.8710   -1.2340   -0.6240 C   0  0  1  0  0  0  0  0  0  0  0  0
   -3.8860   -2.3130   -0.3120 H   0  0  0  0  0  0  0  0  0  0  0  0
   -2.4170   -0.7770   -0.6600 C   0  0  2  0  0  0  0  0  0  0  0  0
   -2.3480    0.3040   -0.9350 H   0  0  0  0  0  0  0  0  0  0  0  0
   -1.6430   -1.5950   -1.6940 C   0  0  0  0  0  0  0  0  0  0  0  0
   -0.1760   -1.4080   -1.5550 C   0  0  0  0  0  0  0  0  0  0  0  0
    0.4100   -0.9130   -0.4640 C   0  0  0  0  0  0  0  0  0  0  0  0
    1.8860   -0.6900   -0.4440 C   0  0  0  0  0  0  0  0  0  0  0  0
    2.5000   -1.3010    0.8210 C   0  0  1  0  0  0  0  0  0  0  0  0
    2.3890   -2.4170    0.8090 H   0  0  0  0  0  0  0  0  0  0  0  0
    3.8570   -0.9240    0.9480 O   0  0  0  0  0  0  0  0  0  0  0  0
    4.7180   -1.4280   -0.0240 C   0  0  2  0  0  0  0  0  0  0  0  0
    4.3000   -1.4070   -1.0720 H   0  0  0  0  0  0  0  0  0  0  0  0
    4.9580   -2.7500    0.4130 O   0  0  0  0  0  0  0  0  0  0  0  0
    5.8980   -3.4280   -0.3770 C   0  0  2  0  0  0  0  0  0  0  0  0
    5.5930   -3.4600   -1.4580 H   0  0  0  0  0  0  0  0  0  0  0  0
    5.9330   -4.8650    0.1910 C   0  0  0  0  0  0  0  0  0  0  0  0
    4.6970   -5.4750   -0.0000 O   0  0  0  0  0  0  0  0  0  0  0  0
    7.2690   -2.7310   -0.2180 C   0  0  1  0  0  0  0  0  0  0  0  0
    7.5950   -2.7400    0.8570 H   0  0  0  0  0  0  0  0  0  0  0  0
    8.2080   -3.3160   -1.0690 O   0  0  0  0  0  0  0  0  0  0  0  0
    7.1340   -1.2710   -0.7200 C   0  0  2  0  0  0  0  0  0  0  0  0
    6.8890   -1.2520   -1.8180 H   0  0  0  0  0  0  0  0  0  0  0  0
    8.3050   -0.5640   -0.4430 O   0  0  0  0  0  0  0  0  0  0  0  0
    6.0190   -0.5770    0.1010 C   0  0  1  0  0  0  0  0  0  0  0  0
    6.3200   -0.4670    1.1780 H   0  0  0  0  0  0  0  0  0  0  0  0
    5.7090    0.6390   -0.5240 O   0  0  0  0  0  0  0  0  0  0  0  0
    6.3840    1.7670   -0.0310 C   0  0  2  0  0  0  0  0  0  0  0  0
    7.4670    1.5930    0.2240 H   0  0  0  0  0  0  0  0  0  0  0  0
    5.8310    2.1070    1.1970 O   0  0  0  0  0  0  0  0  0  0  0  0
    4.4760    2.4970    1.1920 C   0  0  1  0  0  0  0  0  0  0  0  0
    3.8140    1.6570    0.8500 H   0  0  0  0  0  0  0  0  0  0  0  0
    4.1670    2.8530    2.6440 C   0  0  0  0  0  0  0  0  0  0  0  0
    4.3000    3.7300    0.2750 C   0  0  2  0  0  0  0  0  0  0  0  0
    4.9120    4.5930    0.6530 H   0  0  0  0  0  0  0  0  0  0  0  0
    2.9300    3.9960    0.2510 O   0  0  0  0  0  0  0  0  0  0  0  0
    4.7450    3.3490   -1.1580 C   0  0  1  0  0  0  0  0  0  0  0  0
    4.0920    2.5320   -1.5730 H   0  0  0  0  0  0  0  0  0  0  0  0
    4.5940    4.5200   -1.8970 O   0  0  0  0  0  0  0  0  0  0  0  0
    6.2090    2.8550   -1.1280 C   0  0  1  0  0  0  0  0  0  0  0  0
    6.5000    2.4220   -2.1250 H   0  0  0  0  0  0  0  0  0  0  0  0
    6.9720    3.9810   -0.8250 O   0  0  0  0  0  0  0  0  0  0  0  0
    1.8300   -0.7010    2.0590 C   0  0  0  0  0  0  0  0  0  0  0  0
    0.3390   -0.9970    2.0220 C   0  0  0  0  0  0  0  0  0  0  0  0
   -0.3460   -0.4640    0.7520 C   0  0  1  0  0  0  0  0  0  0  0  0
   -0.3200    1.0670    0.7570 C   0  0  0  0  0  0  0  0  0  0  0  0
   -1.7970   -1.0110    0.7260 C   0  0  1  0  0  0  0  0  0  0  0  0
   -1.7560   -2.1210    0.8910 H   0  0  0  0  0  0  0  0  0  0  0  0
   -2.6370   -0.4050    1.8560 C   0  0  0  0  0  0  0  0  0  0  0  0
   -4.1240   -0.7520    1.7840 C   0  0  0  0  0  0  0  0  0  0  0  0
   -4.6590   -0.4100    0.4060 C   0  0  1  0  0  0  0  0  0  0  0  0
   -4.5250    1.0790    0.1310 C   0  0  0  0  0  0  0  0  0  0  0  0
   -4.5090    1.9030    1.0270 O   0  0  0  0  0  0  0  0  0  0  0  0
   -6.1030   -0.8500    0.1050 C   0  0  1  0  0  0  0  0  0  0  0  0
   -6.2230   -1.9180    0.4260 H   0  0  0  0  0  0  0  0  0  0  0  0
   -7.1970   -0.0020    0.7580 C   0  0  2  0  0  0  0  0  0  0  0  0
   -6.7760    0.9700    1.1210 H   0  0  0  0  0  0  0  0  0  0  0  0
   -7.7850   -0.7290    1.9660 C   0  0  0  0  0  0  0  0  0  0  0  0
   -8.3160    0.2890   -0.2550 C   0  0  1  0  0  0  0  0  0  0  0  0
   -8.8030   -0.6730   -0.5520 H   0  0  0  0  0  0  0  0  0  0  0  0
   -9.2960    1.2470    0.3380 C   0  0  0  0  0  0  0  0  0  0  0  0
  -10.5890    1.0030    0.5570 C   0  0  0  0  0  0  0  0  0  0  0  0
  -11.2620   -0.2900    0.2640 C   0  0  0  0  0  0  0  0  0  0  0  0
  -11.4770    2.0600    1.1220 C   0  0  0  0  0  0  0  0  0  0  0  0
   -7.7030    0.9660   -1.5040 C   0  0  2  0  0  0  0  0  0  0  0  0
   -7.5260    2.0730   -1.3680 H   0  0  0  0  0  0  0  0  0  0  0  0
   -8.5750    0.6520   -2.5580 O   0  0  0  0  0  0  0  0  0  0  0  0
   -6.4290    0.4840   -1.8710 O   0  0  0  0  0  0  0  0  0  0  0  0
   -4.6540   -2.0520   -2.5010 H   0  0  0  0  0  0  0  0  0  0  0  0
   -4.2900   -0.3440   -2.6010 H   0  0  0  0  0  0  0  0  0  0  0  0
   -1.8720   -2.6810   -1.6150 H   0  0  0  0  0  0  0  0  0  0  0  0
   -1.9650   -1.3190   -2.7220 H   0  0  0  0  0  0  0  0  0  0  0  0
    0.4100   -1.7100   -2.4280 H   0  0  0  0  0  0  0  0  0  0  0  0
    2.3820   -1.1090   -1.3480 H   0  0  0  0  0  0  0  0  0  0  0  0
    2.1020    0.3990   -0.5050 H   0  0  0  0  0  0  0  0  0  0  0  0
    6.6480   -5.4960   -0.3810 H   0  0  0  0  0  0  0  0  0  0  0  0
    6.2690   -4.8710    1.2540 H   0  0  0  0  0  0  0  0  0  0  0  0
    4.0820   -5.1510    0.6900 H   0  0  0  0  0  0  0  0  0  0  0  0
    8.5230   -4.1210   -0.6490 H   0  0  0  0  0  0  0  0  0  0  0  0
    9.0080   -0.9390   -0.9830 H   0  0  0  0  0  0  0  0  0  0  0  0
    4.8150    3.6530    3.0300 H   0  0  0  0  0  0  0  0  0  0  0  0
    3.1260    3.1900    2.7530 H   0  0  0  0  0  0  0  0  0  0  0  0
    4.3010    1.9890    3.3110 H   0  0  0  0  0  0  0  0  0  0  0  0
    2.8280    4.9380    0.0780 H   0  0  0  0  0  0  0  0  0  0  0  0
    5.0870    4.4210   -2.7250 H   0  0  0  0  0  0  0  0  0  0  0  0
    7.8960    3.7100   -0.7860 H   0  0  0  0  0  0  0  0  0  0  0  0
    2.2870   -1.1120    2.9850 H   0  0  0  0  0  0  0  0  0  0  0  0
    2.0230    0.3920    2.1230 H   0  0  0  0  0  0  0  0  0  0  0  0
    0.1770   -2.0900    2.1210 H   0  0  0  0  0  0  0  0  0  0  0  0
   -0.1370   -0.5580    2.9240 H   0  0  0  0  0  0  0  0  0  0  0  0
    0.6640    1.4780    1.0280 H   0  0  0  0  0  0  0  0  0  0  0  0
   -0.5630    1.4970   -0.2250 H   0  0  0  0  0  0  0  0  0  0  0  0
   -1.0340    1.5020    1.4750 H   0  0  0  0  0  0  0  0  0  0  0  0
   -2.2440   -0.7470    2.8390 H   0  0  0  0  0  0  0  0  0  0  0  0
   -2.5060    0.7000    1.8930 H   0  0  0  0  0  0  0  0  0  0  0  0
   -4.2920   -1.8230    2.0200 H   0  0  0  0  0  0  0  0  0  0  0  0
   -4.6850   -0.2040    2.5700 H   0  0  0  0  0  0  0  0  0  0  0  0
   -4.4430    1.4000   -0.9250 H   0  0  0  0  0  0  0  0  0  0  0  0
   -7.0120   -0.9850    2.7060 H   0  0  0  0  0  0  0  0  0  0  0  0
   -8.5280   -0.1120    2.4910 H   0  0  0  0  0  0  0  0  0  0  0  0
   -8.2890   -1.6690    1.6990 H   0  0  0  0  0  0  0  0  0  0  0  0
   -8.8740    2.2250    0.5990 H   0  0  0  0  0  0  0  0  0  0  0  0
  -10.6890   -1.1630    0.6410 H   0  0  0  0  0  0  0  0  0  0  0  0
  -12.2640   -0.3640    0.7050 H   0  0  0  0  0  0  0  0  0  0  0  0
  -11.3900   -0.4360   -0.8180 H   0  0  0  0  0  0  0  0  0  0  0  0
  -10.9760    3.0290    1.2710 H   0  0  0  0  0  0  0  0  0  0  0  0
  -12.3410    2.2510    0.4670 H   0  0  0  0  0  0  0  0  0  0  0  0
  -11.8780    1.7650    2.1050 H   0  0  0  0  0  0  0  0  0  0  0  0
   -8.2170    1.0110   -3.3720 H   0  0  0  0  0  0  0  0  0  0  0  0
  2  1  1  6
  2  3  1  0
  2 71  1  0
  2 57  1  0
  3 73  1  0
  3 72  1  0
  3  4  1  0
  4  6  1  0
  4  5  1  1
  4 54  1  0
  6  8  1  0
  6  7  1  6
  6 50  1  0
  8 75  1  0
  8 74  1  0
  8  9  1  0
  9 76  1  0
  9 10  2  0
 10 11  1  0
 10 48  1  0
 11 77  1  0
 11 78  1  0
 11 12  1  0
 12 13  1  6
 12 14  1  0
 12 46  1  0
 14 15  1  0
 15 16  1  6
 15 28  1  0
 15 17  1  0
 17 18  1  0
 18 19  1  6
 18 22  1  0
 18 20  1  0
 20 79  1  0
 20 21  1  0
 20 80  1  0
 21 81  1  0
 22 24  1  0
 22 25  1  0
 22 23  1  1
 24 82  1  0
 25 26  1  6
 25 27  1  0
 25 28  1  0
 27 83  1  0
 28 30  1  0
 28 29  1  1
 30 31  1  0
 31 43  1  0
 31 32  1  1
 31 33  1  0
 33 34  1  0
 34 37  1  0
 34 35  1  6
 34 36  1  0
 36 85  1  0
 36 84  1  0
 36 86  1  0
 37 40  1  0
 37 39  1  0
 37 38  1  1
 39 87  1  0
 40 42  1  0
 40 41  1  6
 40 43  1  0
 42 88  1  0
 43 44  1  6
 43 45  1  0
 45 89  1  0
 46 47  1  0
 46 91  1  0
 46 90  1  0
 47 48  1  0
 47 92  1  0
 47 93  1  0
 48 50  1  0
 48 49  1  1
 49 95  1  0
 49 94  1  0
 49 96  1  0
 50 51  1  1
 50 52  1  0
 52 53  1  0
 52 98  1  0
 52 97  1  0
 53 54  1  0
 53 99  1  0
 53100  1  0
 54 57  1  0
 54 55  1  6
 55101  1  0
 55 56  2  0
 57 58  1  6
 57 59  1  0
 59 62  1  0
 59 60  1  1
 59 61  1  0
 61104  1  0
 61103  1  0
 61102  1  0
 62 68  1  0
 62 63  1  6
 62 64  1  0
 64 65  2  0
 64105  1  0
 65 66  1  0
 65 67  1  0
 66108  1  0
 66106  1  0
 66107  1  0
 67110  1  0
 67109  1  0
 67111  1  0
 68 70  1  0
 68 71  1  0
 68 69  1  1
 70112  1  0
M  END
>  <id>  (296) 
398

>  <scaffolds>  (296) 
['C1=C2CCCCC2C2CCC3CCCC3C2C1', 'C1=CCCCC1', 'C1=CCC2CCCCC2C1', 'C1CCOCC1', 'C1=C2CC(OC3CCCCO3)CCC2C2CCC3CCCC3C2C1', 'C1CCCCC1', 'C1=C2CC(OC3OCCCC3OC3CCCCO3)CCC2C2CCC3C4CCCOC4CC3C2C1', 'C1=C2CCCCC2CCC1', 'C1CCC(OC2CCCOC2)OC1']

>  <name>  (296) 
Saundersioside D

>  <formula>  (296) 
C39H60O13

>  <SMILES>  (296) 
[H][C@]67C[C@@]5([H])[C@]4([H])CC=C3C[C@@H](O[C@]1([H])O[C@H](CO)[C@@H](O)[C@H](O)[C@H]1O[C@]2([H])O[C@@H](C)[C@H](O)[C@@H](O)[C@H]2O)CC[C@]3(C)[C@@]4([H])CC[C@]5(C=O)[C@@]6([H])[C@H](C)[C@@H](/C=C(C)/C)[C@H](O)O7

>  <ChEMBL_id>  (296) 


>  <ZINC_id>  (296) 


>  <PubChem_id>  (296) 


>  <DrugBank_id>  (296) 


>  <CAS_no>  (296) 
173967-24-3

>  <references>  (296) 
[{'journal': {'name': 'Tetrahedron Letters', 'id': 3}, 'title': 'Three novel rearranged cholestane glycosides from Ornithogalum saundersiae bulbs and their cytostatic activities on leukemia HL-60 and MOLT-4 cells', 'year': 1996, 'start_page': 1445, 'volume': 37, 'issue': 8, 'doi': '10.1016/0040-4039(95)02407-7', 'isbn': '', 'despositor': {'code': 'NFA', 'first_name': 'Ngonidzashe', 'last_name': 'Faya', 'id': 21}, 'refauthors_set': [{'author': {'first_name': 'Yoshihiro ', 'initials': 'Y', 'last_name': 'Mimaki', 'id': 643}, 'first_author': True, 'id': 891}, {'author': {'first_name': 'Minpei', 'initials': 'M', 'last_name': 'Kuroda', 'id': 644}, 'first_author': None, 'id': 1212}, {'author': {'first_name': 'Yutaka', 'initials': 'Y', 'last_name': 'Sashida', 'id': 645}, 'first_author': None, 'id': 1213}, {'author': {'first_name': 'Toshihiko', 'initials': 'T', 'last_name': 'Hirano', 'id': 641}, 'first_author': None, 'id': 1214}, {'author': {'first_name': 'Kitaro ', 'initials': 'K', 'last_name': 'Oka', 'id': 642}, 'first_author': None, 'id': 1215}, {'author': {'first_name': 'Akira', 'initials': 'A', 'last_name': 'Dobashi', 'id': 651}, 'first_author': None, 'id': 1216}], 'id': 306}, {'journal': {'name': 'Phytochemistry', 'id': 10}, 'title': 'Saundersiosides C-H, rearranged cholestane glycosides from the bulbs of Ornithogalum saundersiae and their cytostatic activity on HL-60 cells', 'year': 1999, 'start_page': 435, 'volume': 52, 'issue': 3, 'doi': '10.1016/S0031-9422(99)00239-3', 'isbn': '', 'despositor': {'code': 'rah', 'first_name': 'Rowan', 'last_name': 'Hatherley', 'id': 20}, 'refauthors_set': [{'author': {'first_name': 'Minpei', 'initials': 'M', 'last_name': 'Kuroda', 'id': 644}, 'first_author': True, 'id': 1029}, {'author': {'first_name': 'Yoshihiro ', 'initials': 'Y', 'last_name': 'Mimaki', 'id': 643}, 'first_author': None, 'id': 1189}, {'author': {'first_name': 'Yutaka', 'initials': 'Y', 'last_name': 'Sashida', 'id': 645}, 'first_author': None, 'id': 1190}], 'id': 338}]

>  <classifications>  (296) 
[{'classification': 'Cholestane', 'id': 761}, {'classification': 'Glycoside', 'id': 781}, {'classification': 'Steroids and steroid derivatives (Classyfire)', 'id': 942}]

>  <molecular_mass>  (296) 
736.88

$$$$
SANC00399_minRM1.pdb
     RDKit          3D

132140  0  0  1  0  0  0  0  0999 V2000
   -6.1960    0.4350    2.4410 H   0  0  0  0  0  0  0  0  0  0  0  0
   -5.6840   -0.1410    1.6220 C   0  0  2  0  0  0  0  0  0  0  0  0
   -5.5930    0.5310    0.3920 O   0  0  0  0  0  0  0  0  0  0  0  0
   -5.1960    1.8750    0.4570 C   0  0  2  0  0  0  0  0  0  0  0  0
   -4.4410    2.0830    1.2600 H   0  0  0  0  0  0  0  0  0  0  0  0
   -6.4590    2.7610    0.6280 C   0  0  1  0  0  0  0  0  0  0  0  0
   -7.2520    2.4600   -0.1120 H   0  0  0  0  0  0  0  0  0  0  0  0
   -6.8890    2.5800    1.9390 O   0  0  0  0  0  0  0  0  0  0  0  0
   -6.0570    4.2450    0.4160 C   0  0  2  0  0  0  0  0  0  0  0  0
   -5.3340    4.5620    1.2150 H   0  0  0  0  0  0  0  0  0  0  0  0
   -7.2630    4.9470    0.4680 O   0  0  0  0  0  0  0  0  0  0  0  0
   -5.4200    4.3900   -0.9860 C   0  0  1  0  0  0  0  0  0  0  0  0
   -6.1740    4.1580   -1.7880 H   0  0  0  0  0  0  0  0  0  0  0  0
   -4.8490    5.8110   -1.1900 C   0  0  0  0  0  0  0  0  0  0  0  0
   -4.4900    5.8960   -2.5370 O   0  0  0  0  0  0  0  0  0  0  0  0
   -4.2990    3.5500   -1.0520 O   0  0  0  0  0  0  0  0  0  0  0  0
   -4.6100    2.1780   -0.9560 C   0  0  1  0  0  0  0  0  0  0  0  0
   -5.3160    1.8450   -1.7720 H   0  0  0  0  0  0  0  0  0  0  0  0
   -3.3610    1.5570   -1.0130 O   0  0  0  0  0  0  0  0  0  0  0  0
   -2.7360    1.5990   -2.2830 C   0  0  2  0  0  0  0  0  0  0  0  0
   -3.4650    1.8330   -3.1090 H   0  0  0  0  0  0  0  0  0  0  0  0
   -2.1420    0.2080   -2.5240 C   0  0  0  0  0  0  0  0  0  0  0  0
   -1.0000   -0.0980   -1.5680 C   0  0  0  0  0  0  0  0  0  0  0  0
    0.1130    0.9610   -1.5810 C   0  0  1  0  0  0  0  0  0  0  0  0
    0.8210    0.9810   -2.9370 C   0  0  0  0  0  0  0  0  0  0  0  0
   -0.5100    2.3090   -1.3640 C   0  0  0  0  0  0  0  0  0  0  0  0
   -0.0800    3.1920   -0.4630 C   0  0  0  0  0  0  0  0  0  0  0  0
    1.0840    2.9570    0.4280 C   0  0  0  0  0  0  0  0  0  0  0  0
    1.9800    1.8490   -0.1220 C   0  0  2  0  0  0  0  0  0  0  0  0
    2.4740    2.2240   -1.0500 H   0  0  0  0  0  0  0  0  0  0  0  0
    1.1110    0.6220   -0.4410 C   0  0  2  0  0  0  0  0  0  0  0  0
    0.5170    0.3790    0.4810 H   0  0  0  0  0  0  0  0  0  0  0  0
    1.9600   -0.6110   -0.7770 C   0  0  0  0  0  0  0  0  0  0  0  0
    3.0540   -0.8990    0.2530 C   0  0  0  0  0  0  0  0  0  0  0  0
    3.9250    0.3440    0.4100 C   0  0  1  0  0  0  0  0  0  0  0  0
    4.6960    0.5740   -0.9150 C   0  0  1  0  0  0  0  0  0  0  0  0
    4.2830   -0.0030   -1.7890 H   0  0  0  0  0  0  0  0  0  0  0  0
    4.8100    1.9420   -1.1870 O   0  0  0  0  0  0  0  0  0  0  0  0
    5.3050    2.2440   -2.4650 C   0  0  0  0  0  0  0  0  0  0  0  0
    6.0120    0.1230   -0.7300 O   0  0  0  0  0  0  0  0  0  0  0  0
    6.3310   -0.0610    0.6330 C   0  0  1  0  0  0  0  0  0  0  0  0
    6.7230   -1.5370    0.7780 C   0  0  0  0  0  0  0  0  0  0  0  0
    7.5520    0.7980    1.0110 C   0  0  1  0  0  0  0  0  0  0  0  0
    7.9190    0.4490    2.0110 H   0  0  0  0  0  0  0  0  0  0  0  0
    8.6120    0.6990   -0.0340 C   0  0  0  0  0  0  0  0  0  0  0  0
    9.8120    0.1470    0.1580 C   0  0  0  0  0  0  0  0  0  0  0  0
   10.2460   -0.4490    1.4510 C   0  0  0  0  0  0  0  0  0  0  0  0
   10.8200    0.0930   -0.9360 C   0  0  0  0  0  0  0  0  0  0  0  0
    7.0990    2.2630    1.1650 C   0  0  2  0  0  0  0  0  0  0  0  0
    6.6460    2.6820    0.2250 H   0  0  0  0  0  0  0  0  0  0  0  0
    8.2110    2.9920    1.5750 O   0  0  0  0  0  0  0  0  0  0  0  0
    6.2300    2.3450    2.2730 O   0  0  0  0  0  0  0  0  0  0  0  0
    5.0330    1.6440    2.1730 C   0  0  1  0  0  0  0  0  0  0  0  0
    4.7800    1.4850    3.2550 H   0  0  0  0  0  0  0  0  0  0  0  0
    3.9360    2.5020    1.4990 C   0  0  0  0  0  0  0  0  0  0  0  0
    3.0010    1.4460    0.9300 C   0  0  1  0  0  0  0  0  0  0  0  0
    2.4320    1.0330    1.8120 H   0  0  0  0  0  0  0  0  0  0  0  0
    5.0650    0.2730    1.4450 C   0  0  1  0  0  0  0  0  0  0  0  0
    4.8770   -0.5260    2.2000 H   0  0  0  0  0  0  0  0  0  0  0  0
   -1.6370    2.6650   -2.2750 C   0  0  0  0  0  0  0  0  0  0  0  0
   -4.4060   -0.3120    2.1340 O   0  0  0  0  0  0  0  0  0  0  0  0
   -3.5440   -1.1450    1.3930 C   0  0  1  0  0  0  0  0  0  0  0  0
   -3.3790   -0.7370    0.3590 H   0  0  0  0  0  0  0  0  0  0  0  0
   -2.2360   -1.1500    2.1790 C   0  0  0  0  0  0  0  0  0  0  0  0
   -4.1690   -2.5570    1.3280 C   0  0  2  0  0  0  0  0  0  0  0  0
   -4.3580   -2.9740    2.3550 H   0  0  0  0  0  0  0  0  0  0  0  0
   -3.3340   -3.3610    0.5230 O   0  0  0  0  0  0  0  0  0  0  0  0
   -2.4850   -4.2360    1.1240 C   0  0  0  0  0  0  0  0  0  0  0  0
   -2.3640   -4.2490    2.3390 O   0  0  0  0  0  0  0  0  0  0  0  0
   -1.7440   -5.0750    0.1740 C   0  0  0  0  0  0  0  0  0  0  0  0
   -2.0610   -5.1270   -1.1840 C   0  0  0  0  0  0  0  0  0  0  0  0
   -1.3250   -5.9300   -2.0370 C   0  0  0  0  0  0  0  0  0  0  0  0
   -0.2700   -6.6940   -1.5190 C   0  0  0  0  0  0  0  0  0  0  0  0
    0.3580   -7.4540   -2.4580 O   0  0  0  0  0  0  0  0  0  0  0  0
    1.4270   -8.2630   -2.0290 C   0  0  0  0  0  0  0  0  0  0  0  0
    0.0630   -6.6430   -0.1660 C   0  0  0  0  0  0  0  0  0  0  0  0
   -0.6860   -5.8320    0.6760 C   0  0  0  0  0  0  0  0  0  0  0  0
   -5.5020   -2.4550    0.5460 C   0  0  1  0  0  0  0  0  0  0  0  0
   -5.3330   -2.0800   -0.5000 H   0  0  0  0  0  0  0  0  0  0  0  0
   -6.0090   -3.7520    0.5060 O   0  0  0  0  0  0  0  0  0  0  0  0
   -6.4310   -1.4660    1.2920 C   0  0  1  0  0  0  0  0  0  0  0  0
   -7.3330   -1.2340    0.6600 H   0  0  0  0  0  0  0  0  0  0  0  0
   -6.7970   -2.1200    2.4660 O   0  0  0  0  0  0  0  0  0  0  0  0
   -7.7120    3.0680    2.0510 H   0  0  0  0  0  0  0  0  0  0  0  0
   -7.0630    5.8630    0.6730 H   0  0  0  0  0  0  0  0  0  0  0  0
   -5.6270    6.5810   -0.9820 H   0  0  0  0  0  0  0  0  0  0  0  0
   -4.0120    6.0130   -0.4830 H   0  0  0  0  0  0  0  0  0  0  0  0
   -3.6300    6.3350   -2.5860 H   0  0  0  0  0  0  0  0  0  0  0  0
   -2.9340   -0.5670   -2.4240 H   0  0  0  0  0  0  0  0  0  0  0  0
   -1.8150    0.1280   -3.5820 H   0  0  0  0  0  0  0  0  0  0  0  0
   -1.4070   -0.2020   -0.5380 H   0  0  0  0  0  0  0  0  0  0  0  0
   -0.5850   -1.0990   -1.8110 H   0  0  0  0  0  0  0  0  0  0  0  0
    0.1470    1.1820   -3.7800 H   0  0  0  0  0  0  0  0  0  0  0  0
    1.6030    1.7530   -2.9850 H   0  0  0  0  0  0  0  0  0  0  0  0
    1.3100    0.0210   -3.1690 H   0  0  0  0  0  0  0  0  0  0  0  0
   -0.5820    4.1560   -0.3240 H   0  0  0  0  0  0  0  0  0  0  0  0
    1.6670    3.8950    0.5540 H   0  0  0  0  0  0  0  0  0  0  0  0
    0.7140    2.7210    1.4510 H   0  0  0  0  0  0  0  0  0  0  0  0
    1.3100   -1.5070   -0.8700 H   0  0  0  0  0  0  0  0  0  0  0  0
    2.4290   -0.5090   -1.7830 H   0  0  0  0  0  0  0  0  0  0  0  0
    2.6150   -1.2060    1.2260 H   0  0  0  0  0  0  0  0  0  0  0  0
    3.6530   -1.7810   -0.0570 H   0  0  0  0  0  0  0  0  0  0  0  0
    6.2940    1.8030   -2.6760 H   0  0  0  0  0  0  0  0  0  0  0  0
    4.6130    1.9430   -3.2700 H   0  0  0  0  0  0  0  0  0  0  0  0
    5.4000    3.3400   -2.4700 H   0  0  0  0  0  0  0  0  0  0  0  0
    7.6010   -1.7780    0.1600 H   0  0  0  0  0  0  0  0  0  0  0  0
    6.9770   -1.7960    1.8140 H   0  0  0  0  0  0  0  0  0  0  0  0
    5.9230   -2.2190    0.4620 H   0  0  0  0  0  0  0  0  0  0  0  0
    8.3410    1.1300   -1.0050 H   0  0  0  0  0  0  0  0  0  0  0  0
    9.6490   -1.3400    1.7060 H   0  0  0  0  0  0  0  0  0  0  0  0
   11.2990   -0.7730    1.4460 H   0  0  0  0  0  0  0  0  0  0  0  0
   10.1490    0.2610    2.2880 H   0  0  0  0  0  0  0  0  0  0  0  0
   10.4520    0.4750   -1.8990 H   0  0  0  0  0  0  0  0  0  0  0  0
   11.7100    0.6890   -0.6830 H   0  0  0  0  0  0  0  0  0  0  0  0
   11.1640   -0.9360   -1.1200 H   0  0  0  0  0  0  0  0  0  0  0  0
    7.9220    3.8670    1.8510 H   0  0  0  0  0  0  0  0  0  0  0  0
    3.4310    3.1610    2.2330 H   0  0  0  0  0  0  0  0  0  0  0  0
    4.3310    3.2100    0.7490 H   0  0  0  0  0  0  0  0  0  0  0  0
   -1.2500    2.8040   -3.3090 H   0  0  0  0  0  0  0  0  0  0  0  0
   -2.0690    3.6570   -2.0250 H   0  0  0  0  0  0  0  0  0  0  0  0
   -2.3450   -1.5890    3.1800 H   0  0  0  0  0  0  0  0  0  0  0  0
   -1.4620   -1.7250    1.6510 H   0  0  0  0  0  0  0  0  0  0  0  0
   -1.8400   -0.1320    2.3130 H   0  0  0  0  0  0  0  0  0  0  0  0
   -2.8930   -4.5410   -1.5870 H   0  0  0  0  0  0  0  0  0  0  0  0
   -1.5610   -5.9710   -3.1050 H   0  0  0  0  0  0  0  0  0  0  0  0
    2.2770   -7.6870   -1.6240 H   0  0  0  0  0  0  0  0  0  0  0  0
    1.1230   -9.0290   -1.2950 H   0  0  0  0  0  0  0  0  0  0  0  0
    1.7540   -8.7620   -2.9560 H   0  0  0  0  0  0  0  0  0  0  0  0
    0.8940   -7.2120    0.2590 H   0  0  0  0  0  0  0  0  0  0  0  0
   -0.4380   -5.7940    1.7440 H   0  0  0  0  0  0  0  0  0  0  0  0
   -6.9690   -3.7110    0.4670 H   0  0  0  0  0  0  0  0  0  0  0  0
   -7.3900   -1.5430    2.9590 H   0  0  0  0  0  0  0  0  0  0  0  0
  2  1  1  1
  2  3  1  0
  2 81  1  0
  2 61  1  0
  3  4  1  0
  4 17  1  0
  4  6  1  0
  4  5  1  1
  6  7  1  6
  6  9  1  0
  6  8  1  0
  8 84  1  0
  9 12  1  0
  9 11  1  0
  9 10  1  1
 11 85  1  0
 12 13  1  6
 12 14  1  0
 12 16  1  0
 14 15  1  0
 14 86  1  0
 14 87  1  0
 15 88  1  0
 16 17  1  0
 17 18  1  6
 17 19  1  0
 19 20  1  0
 20 21  1  6
 20 22  1  0
 20 60  1  0
 22 90  1  0
 22 89  1  0
 22 23  1  0
 23 92  1  0
 23 24  1  0
 23 91  1  0
 24 25  1  6
 24 26  1  0
 24 31  1  0
 25 93  1  0
 25 95  1  0
 25 94  1  0
 26 60  1  0
 26 27  2  0
 27 96  1  0
 27 28  1  0
 28 29  1  0
 28 97  1  0
 28 98  1  0
 29 30  1  6
 29 31  1  0
 29 56  1  0
 31 33  1  0
 31 32  1  1
 33100  1  0
 33 99  1  0
 33 34  1  0
 34102  1  0
 34101  1  0
 35 34  1  6
 35 36  1  0
 35 56  1  0
 35 58  1  0
 36 37  1  6
 36 38  1  0
 36 40  1  0
 38 39  1  0
 39104  1  0
 39103  1  0
 39105  1  0
 40 41  1  0
 41 42  1  6
 41 43  1  0
 41 58  1  0
 42106  1  0
 42108  1  0
 42107  1  0
 43 45  1  0
 43 49  1  0
 43 44  1  1
 45109  1  0
 45 46  2  0
 46 48  1  0
 46 47  1  0
 47111  1  0
 47110  1  0
 47112  1  0
 48113  1  0
 48115  1  0
 48114  1  0
 49 50  1  6
 49 51  1  0
 49 52  1  0
 51116  1  0
 52 53  1  0
 53 58  1  0
 53 55  1  0
 53 54  1  1
 55118  1  0
 55 56  1  0
 55117  1  0
 56 57  1  1
 58 59  1  1
 60119  1  0
 60120  1  0
 61 62  1  0
 62 63  1  6
 62 65  1  0
 62 64  1  0
 64122  1  0
 64123  1  0
 64121  1  0
 65 67  1  0
 65 78  1  0
 65 66  1  1
 67 68  1  0
 68 70  1  0
 68 69  2  0
 70 71  2  0
 70 77  1  0
 71 72  1  0
 71124  1  0
 72125  1  0
 72 73  2  0
 73 74  1  0
 73 76  1  0
 74 75  1  0
 75128  1  0
 75126  1  0
 75127  1  0
 76129  1  0
 76 77  2  0
 77130  1  0
 78 79  1  6
 78 80  1  0
 78 81  1  0
 80131  1  0
 81 82  1  6
 81 83  1  0
 83132  1  0
M  END
>  <id>  (297) 
399

>  <scaffolds>  (297) 
['c1ccccc1', 'C1=C2CCCCC2C2CCC3CCCC3C2C1', 'C1=CCCCC1', 'C1=CCC2CCCCC2C1', 'O=C(OC1CCC(OC2CCCOC2OC2CCC3C(=CCC4C3CCC3C5CCCOC5CC34)C2)OC1)c1ccccc1', 'C1CCOCC1', 'C1=C2CC(OC3CCCCO3)CCC2C2CCC3CCCC3C2C1', 'C1CCCCC1', 'C1=C2CC(OC3OCCCC3OC3CCCCO3)CCC2C2CCC3C4CCCOC4CC3C2C1', 'C1=C2CCCCC2CCC1', 'C1CCC(OC2CCCOC2)OC1', 'O=C(OC1CCC(OC2CCCOC2OC2CCC3C(=CCC4C3CCC35COC6CCOC(CC43)C65)C2)OC1)c1ccccc1']

>  <name>  (297) 
Saundersioside B

>  <formula>  (297) 
C48H68O16

>  <SMILES>  (297) 
[H][C@@]9(O[C@@H]1[C@@H](O)[C@H](O)[C@@H](CO)O[C@@]1([H])O[C@@H]7CC[C@@]2(C)C(=CC[C@]3([H])[C@]2([H])CCC46[C@@H](OC)O[C@@]5(C)[C@@H](/C=C(C)/C)[C@H](O)O[C@@]([H])(C[C@@]34[H])[C@]56[H])C7)O[C@@H](C)[C@H](OC(=O)c8ccc(OC)cc8)[C@@H](O)[C@H]9O

>  <ChEMBL_id>  (297) 


>  <ZINC_id>  (297) 


>  <PubChem_id>  (297) 


>  <DrugBank_id>  (297) 


>  <CAS_no>  (297) 
174867-68-6

>  <references>  (297) 
[{'journal': {'name': 'Bioorganic & Medicinal Chemistry Letters', 'id': 28}, 'title': 'A new rearranged cholestane glycoside from ornithogalum saundersiae bulbs exhibiting potent cytostatic activities on leukemia HL-60 and molt-4 cells', 'year': 1996, 'start_page': 2635, 'volume': 6, 'issue': 22, 'doi': '10.1016/S0960-894X(96)00486-6', 'isbn': '', 'despositor': {'code': 'NFA', 'first_name': 'Ngonidzashe', 'last_name': 'Faya', 'id': 21}, 'refauthors_set': [{'author': {'first_name': 'Yoshihiro ', 'initials': 'Y', 'last_name': 'Mimaki', 'id': 643}, 'first_author': True, 'id': 892}, {'author': {'first_name': 'Minpei', 'initials': 'M', 'last_name': 'Kuroda', 'id': 644}, 'first_author': None, 'id': 1208}, {'author': {'first_name': 'Aiko', 'initials': 'A', 'last_name': 'Kameyama', 'id': 652}, 'first_author': None, 'id': 1209}, {'author': {'first_name': 'Yutaka', 'initials': 'Y', 'last_name': 'Sashida', 'id': 645}, 'first_author': None, 'id': 1210}, {'author': {'first_name': 'Toshihiko', 'initials': 'T', 'last_name': 'Hirano', 'id': 641}, 'first_author': None, 'id': 1211}], 'id': 307}, {'journal': {'name': 'Tetrahedron', 'id': 4}, 'title': 'Novel cholestane glycosides from the bulbs of Ornithogalum saundersiae and their cytostatic activity on leukemia HL60 and MOLT4 cells', 'year': 1997, 'start_page': 11549, 'volume': 53, 'issue': 34, 'doi': '10.1016/S0040-4020(97)00750-3', 'isbn': '', 'despositor': {'code': 'NFA', 'first_name': 'Ngonidzashe', 'last_name': 'Faya', 'id': 21}, 'refauthors_set': [{'author': {'first_name': 'Minpei', 'initials': 'M', 'last_name': 'Kuroda', 'id': 644}, 'first_author': True, 'id': 1180}, {'author': {'first_name': 'Yoshihiro ', 'initials': 'Y', 'last_name': 'Mimaki', 'id': 643}, 'first_author': None, 'id': 1181}, {'author': {'first_name': 'Yutaka', 'initials': 'Y', 'last_name': 'Sashida', 'id': 645}, 'first_author': None, 'id': 1182}, {'author': {'first_name': 'Toshihiko', 'initials': 'T', 'last_name': 'Hirano', 'id': 641}, 'first_author': None, 'id': 1183}, {'author': {'first_name': 'Kitaro ', 'initials': 'K', 'last_name': 'Oka', 'id': 642}, 'first_author': None, 'id': 1184}, {'author': {'first_name': 'Akira', 'initials': 'A', 'last_name': 'Dobashi', 'id': 651}, 'first_author': None, 'id': 1185}], 'id': 337}]

>  <classifications>  (297) 
[{'classification': 'Cholestane', 'id': 761}, {'classification': 'Glycoside', 'id': 781}, {'classification': 'Steroids and steroid derivatives (Classyfire)', 'id': 942}]

>  <molecular_mass>  (297) 
901.04

$$$$
SANC00400_minRM1.pdb
     RDKit          3D

127135  0  0  1  0  0  0  0  0999 V2000
    6.1890   -0.6770   -0.0730 H   0  0  0  0  0  0  0  0  0  0  0  0
    5.6690   -1.6230   -0.4030 C   0  0  2  0  0  0  0  0  0  0  0  0
    4.2790   -1.4990   -0.4730 O   0  0  0  0  0  0  0  0  0  0  0  0
    3.7840   -0.4900   -1.3160 C   0  0  1  0  0  0  0  0  0  0  0  0
    4.5630    0.2520   -1.6380 H   0  0  0  0  0  0  0  0  0  0  0  0
    3.1840   -1.1730   -2.5670 C   0  0  1  0  0  0  0  0  0  0  0  0
    3.9930   -1.6550   -3.1800 H   0  0  0  0  0  0  0  0  0  0  0  0
    2.2870   -2.1230   -2.0830 O   0  0  0  0  0  0  0  0  0  0  0  0
    2.4670   -0.0860   -3.3950 C   0  0  0  0  0  0  0  0  0  0  0  0
    1.4670    0.5190   -2.6310 O   0  0  0  0  0  0  0  0  0  0  0  0
    1.9590    1.2160   -1.5040 C   0  0  1  0  0  0  0  0  0  0  0  0
    2.6530    2.0540   -1.8100 H   0  0  0  0  0  0  0  0  0  0  0  0
    0.7990    1.6640   -0.8670 O   0  0  0  0  0  0  0  0  0  0  0  0
    0.1150    2.7010   -1.5460 C   0  0  2  0  0  0  0  0  0  0  0  0
    0.0530    2.5190   -2.6530 H   0  0  0  0  0  0  0  0  0  0  0  0
    0.8960    3.9970   -1.2840 C   0  0  0  0  0  0  0  0  0  0  0  0
    0.1760    5.1540   -1.9740 C   0  0  2  0  0  0  0  0  0  0  0  0
    0.1040    4.9720   -3.0830 H   0  0  0  0  0  0  0  0  0  0  0  0
    0.9490    6.2910   -1.7110 O   0  0  0  0  0  0  0  0  0  0  0  0
   -1.2270    5.2880   -1.3710 C   0  0  0  0  0  0  0  0  0  0  0  0
   -1.9820    4.0070   -1.5170 C   0  0  0  0  0  0  0  0  0  0  0  0
   -3.2160    4.0430   -2.0190 C   0  0  0  0  0  0  0  0  0  0  0  0
   -4.1060    2.8610   -2.1040 C   0  0  0  0  0  0  0  0  0  0  0  0
   -3.6330    1.7480   -1.1690 C   0  0  2  0  0  0  0  0  0  0  0  0
   -3.8070    2.0670   -0.1110 H   0  0  0  0  0  0  0  0  0  0  0  0
   -2.1330    1.5010   -1.4220 C   0  0  2  0  0  0  0  0  0  0  0  0
   -1.9930    1.3770   -2.5290 H   0  0  0  0  0  0  0  0  0  0  0  0
   -1.6310    0.2120   -0.7590 C   0  0  0  0  0  0  0  0  0  0  0  0
   -2.5360   -1.0050   -0.9570 C   0  0  0  0  0  0  0  0  0  0  0  0
   -3.9730   -0.6860   -0.5720 C   0  0  1  0  0  0  0  0  0  0  0  0
   -4.0580   -0.3660    0.9150 C   0  0  0  0  0  0  0  0  0  0  0  0
   -4.4200    0.4830   -1.4660 C   0  0  1  0  0  0  0  0  0  0  0  0
   -4.2390    0.2080   -2.5420 H   0  0  0  0  0  0  0  0  0  0  0  0
   -5.9340    0.5360   -1.2540 C   0  0  0  0  0  0  0  0  0  0  0  0
   -6.3120   -0.9560   -1.2050 C   0  0  2  0  0  0  0  0  0  0  0  0
   -6.8330   -1.2780   -2.1390 H   0  0  0  0  0  0  0  0  0  0  0  0
   -7.1630   -1.1960   -0.1080 O   0  0  0  0  0  0  0  0  0  0  0  0
   -6.8830   -2.4660    0.4260 C   0  0  1  0  0  0  0  0  0  0  0  0
   -7.2170   -2.4460    1.9240 C   0  0  0  0  0  0  0  0  0  0  0  0
   -8.7150   -2.2750    2.1380 C   0  0  0  0  0  0  0  0  0  0  0  0
   -9.4570   -3.3560    1.3560 C   0  0  1  0  0  0  0  0  0  0  0  0
   -9.1540   -4.3650    1.7410 H   0  0  0  0  0  0  0  0  0  0  0  0
  -10.9630   -3.1970    1.5020 C   0  0  0  0  0  0  0  0  0  0  0  0
   -9.0580   -3.2410   -0.1210 C   0  0  0  0  0  0  0  0  0  0  0  0
   -7.6710   -3.3800   -0.2840 O   0  0  0  0  0  0  0  0  0  0  0  0
   -5.3890   -2.7910    0.1240 C   0  0  1  0  0  0  0  0  0  0  0  0
   -4.7890   -2.6390    1.0600 H   0  0  0  0  0  0  0  0  0  0  0  0
   -5.1550   -4.2250   -0.3260 C   0  0  0  0  0  0  0  0  0  0  0  0
   -5.0090   -1.7670   -0.9530 C   0  0  2  0  0  0  0  0  0  0  0  0
   -4.6790   -2.2810   -1.8870 H   0  0  0  0  0  0  0  0  0  0  0  0
   -1.3320    2.7580   -0.9750 C   0  0  1  0  0  0  0  0  0  0  0  0
   -1.3080    2.9050    0.5450 C   0  0  0  0  0  0  0  0  0  0  0  0
    2.6540    0.2230   -0.5230 C   0  0  2  0  0  0  0  0  0  0  0  0
    1.9130   -0.5100   -0.1070 H   0  0  0  0  0  0  0  0  0  0  0  0
    3.2620    1.0360    0.4470 O   0  0  0  0  0  0  0  0  0  0  0  0
    3.4300    0.4430    1.7100 C   0  0  2  0  0  0  0  0  0  0  0  0
    3.6660   -0.6570    1.6970 H   0  0  0  0  0  0  0  0  0  0  0  0
    2.2160    0.4760    2.3810 O   0  0  0  0  0  0  0  0  0  0  0  0
    1.6850    1.7480    2.6690 C   0  0  1  0  0  0  0  0  0  0  0  0
    1.4230    2.2920    1.7210 H   0  0  0  0  0  0  0  0  0  0  0  0
    0.4290    1.4660    3.4920 C   0  0  0  0  0  0  0  0  0  0  0  0
    2.6920    2.5710    3.5070 C   0  0  2  0  0  0  0  0  0  0  0  0
    2.8780    2.0790    4.4990 H   0  0  0  0  0  0  0  0  0  0  0  0
    2.1450    3.8500    3.6150 O   0  0  0  0  0  0  0  0  0  0  0  0
    4.0210    2.6920    2.7260 C   0  0  1  0  0  0  0  0  0  0  0  0
    3.8690    3.2600    1.7670 H   0  0  0  0  0  0  0  0  0  0  0  0
    4.8760    3.3790    3.5870 O   0  0  0  0  0  0  0  0  0  0  0  0
    4.5480    1.2770    2.3980 C   0  0  1  0  0  0  0  0  0  0  0  0
    5.4430    1.3380    1.7160 H   0  0  0  0  0  0  0  0  0  0  0  0
    4.8920    0.7060    3.6210 O   0  0  0  0  0  0  0  0  0  0  0  0
    6.0510   -1.9870   -1.7110 O   0  0  0  0  0  0  0  0  0  0  0  0
    7.4030   -2.3310   -1.8270 C   0  0  0  0  0  0  0  0  0  0  0  0
    7.6940   -3.5870   -0.9780 C   0  0  1  0  0  0  0  0  0  0  0  0
    7.0670   -4.4520   -1.3270 H   0  0  0  0  0  0  0  0  0  0  0  0
    9.0590   -3.8760   -1.0020 O   0  0  0  0  0  0  0  0  0  0  0  0
    7.3790   -3.2530    0.4990 C   0  0  2  0  0  0  0  0  0  0  0  0
    8.0670   -2.4460    0.8780 H   0  0  0  0  0  0  0  0  0  0  0  0
    7.4440   -4.3990    1.2880 O   0  0  0  0  0  0  0  0  0  0  0  0
    5.9010   -2.7970    0.5900 C   0  0  1  0  0  0  0  0  0  0  0  0
    5.2080   -3.6520    0.3500 H   0  0  0  0  0  0  0  0  0  0  0  0
    5.6710   -2.2560    1.8540 O   0  0  0  0  0  0  0  0  0  0  0  0
    1.8030   -2.4760   -2.8380 H   0  0  0  0  0  0  0  0  0  0  0  0
    3.1980    0.6490   -3.8060 H   0  0  0  0  0  0  0  0  0  0  0  0
    1.9230   -0.5040   -4.2680 H   0  0  0  0  0  0  0  0  0  0  0  0
    1.0070    4.1850   -0.1920 H   0  0  0  0  0  0  0  0  0  0  0  0
    1.9410    3.9170   -1.6540 H   0  0  0  0  0  0  0  0  0  0  0  0
    0.5090    7.0430   -2.1140 H   0  0  0  0  0  0  0  0  0  0  0  0
   -1.1730    5.5710   -0.2970 H   0  0  0  0  0  0  0  0  0  0  0  0
   -1.7630    6.1420   -1.8420 H   0  0  0  0  0  0  0  0  0  0  0  0
   -3.6510    4.9750   -2.3970 H   0  0  0  0  0  0  0  0  0  0  0  0
   -5.1500    3.1550   -1.8610 H   0  0  0  0  0  0  0  0  0  0  0  0
   -4.1550    2.5200   -3.1630 H   0  0  0  0  0  0  0  0  0  0  0  0
   -0.6390   -0.0660   -1.1760 H   0  0  0  0  0  0  0  0  0  0  0  0
   -1.4290    0.3750    0.3240 H   0  0  0  0  0  0  0  0  0  0  0  0
   -2.4760   -1.3530   -2.0110 H   0  0  0  0  0  0  0  0  0  0  0  0
   -2.1500   -1.8650   -0.3690 H   0  0  0  0  0  0  0  0  0  0  0  0
   -3.4430    0.4900    1.2240 H   0  0  0  0  0  0  0  0  0  0  0  0
   -5.0830   -0.1370    1.2470 H   0  0  0  0  0  0  0  0  0  0  0  0
   -3.7210   -1.2230    1.5230 H   0  0  0  0  0  0  0  0  0  0  0  0
   -6.2170    1.0830   -0.3330 H   0  0  0  0  0  0  0  0  0  0  0  0
   -6.4650    1.0690   -2.0650 H   0  0  0  0  0  0  0  0  0  0  0  0
   -6.8570   -3.3890    2.3880 H   0  0  0  0  0  0  0  0  0  0  0  0
   -6.6550   -1.6360    2.4330 H   0  0  0  0  0  0  0  0  0  0  0  0
   -8.9630   -2.3250    3.2190 H   0  0  0  0  0  0  0  0  0  0  0  0
   -9.0430   -1.2610    1.8210 H   0  0  0  0  0  0  0  0  0  0  0  0
  -11.3220   -2.2220    1.1430 H   0  0  0  0  0  0  0  0  0  0  0  0
  -11.5120   -3.9640    0.9370 H   0  0  0  0  0  0  0  0  0  0  0  0
  -11.2830   -3.2860    2.5500 H   0  0  0  0  0  0  0  0  0  0  0  0
   -9.4690   -4.0700   -0.7340 H   0  0  0  0  0  0  0  0  0  0  0  0
   -9.4340   -2.2950   -0.5740 H   0  0  0  0  0  0  0  0  0  0  0  0
   -5.6150   -4.4590   -1.2970 H   0  0  0  0  0  0  0  0  0  0  0  0
   -4.0820   -4.4470   -0.4220 H   0  0  0  0  0  0  0  0  0  0  0  0
   -5.5700   -4.9460    0.3940 H   0  0  0  0  0  0  0  0  0  0  0  0
   -1.1690    1.9400    1.0570 H   0  0  0  0  0  0  0  0  0  0  0  0
   -0.4940    3.5610    0.8930 H   0  0  0  0  0  0  0  0  0  0  0  0
   -2.2350    3.3460    0.9410 H   0  0  0  0  0  0  0  0  0  0  0  0
    0.6520    0.9730    4.4490 H   0  0  0  0  0  0  0  0  0  0  0  0
   -0.1080    2.3990    3.7160 H   0  0  0  0  0  0  0  0  0  0  0  0
   -0.2690    0.8030    2.9610 H   0  0  0  0  0  0  0  0  0  0  0  0
    2.2660    4.1370    4.5310 H   0  0  0  0  0  0  0  0  0  0  0  0
    5.7640    3.3260    3.2280 H   0  0  0  0  0  0  0  0  0  0  0  0
    5.2150   -0.1890    3.4560 H   0  0  0  0  0  0  0  0  0  0  0  0
    7.5420   -2.5160   -2.9130 H   0  0  0  0  0  0  0  0  0  0  0  0
    8.0850   -1.4920   -1.5560 H   0  0  0  0  0  0  0  0  0  0  0  0
    9.2650   -4.2350   -1.8700 H   0  0  0  0  0  0  0  0  0  0  0  0
    8.3630   -4.6870    1.3120 H   0  0  0  0  0  0  0  0  0  0  0  0
    5.5700   -2.9990    2.4620 H   0  0  0  0  0  0  0  0  0  0  0  0
  2  1  1  1
  2 71  1  0
  2  3  1  0
  2 79  1  0
  3  4  1  0
  4  6  1  0
  4  5  1  6
  4 53  1  0
  6  9  1  0
  6  7  1  6
  6  8  1  0
  8 82  1  0
  9 84  1  0
  9 83  1  0
  9 10  1  0
 10 11  1  0
 11 12  1  6
 11 13  1  0
 11 53  1  0
 13 14  1  0
 14 15  1  6
 14 16  1  0
 14 51  1  0
 16 17  1  0
 16 86  1  0
 16 85  1  0
 17 18  1  6
 17 19  1  0
 17 20  1  0
 19 87  1  0
 20 89  1  0
 20 21  1  0
 20 88  1  0
 21 22  2  0
 21 51  1  0
 22 90  1  0
 22 23  1  0
 23 92  1  0
 23 91  1  0
 23 24  1  0
 24 32  1  0
 24 26  1  0
 24 25  1  1
 26 27  1  6
 26 51  1  0
 26 28  1  0
 28 93  1  0
 28 29  1  0
 28 94  1  0
 29 95  1  0
 29 30  1  0
 29 96  1  0
 30 32  1  0
 30 49  1  0
 30 31  1  1
 31 97  1  0
 31 98  1  0
 31 99  1  0
 32 33  1  6
 32 34  1  0
 34101  1  0
 34 35  1  0
 34100  1  0
 35 36  1  6
 35 49  1  0
 35 37  1  0
 38 37  1  6
 38 45  1  0
 38 46  1  0
 38 39  1  0
 39 40  1  0
 39102  1  0
 39103  1  0
 40 41  1  0
 40105  1  0
 40104  1  0
 41 44  1  0
 41 43  1  0
 41 42  1  1
 43107  1  0
 43106  1  0
 43108  1  0
 44109  1  0
 44110  1  0
 44 45  1  0
 46 49  1  0
 46 48  1  0
 46 47  1  1
 48111  1  0
 48112  1  0
 48113  1  0
 49 50  1  6
 51 52  1  1
 52115  1  0
 52116  1  0
 52114  1  0
 53 54  1  1
 53 55  1  0
 55 56  1  0
 56 57  1  6
 56 58  1  0
 56 68  1  0
 58 59  1  0
 59 60  1  6
 59 61  1  0
 59 62  1  0
 61119  1  0
 61118  1  0
 61117  1  0
 62 65  1  0
 62 64  1  0
 62 63  1  1
 64120  1  0
 65 66  1  6
 65 68  1  0
 65 67  1  0
 67121  1  0
 68 69  1  6
 68 70  1  0
 70122  1  0
 71 72  1  0
 72123  1  0
 72124  1  0
 72 73  1  0
 73 74  1  6
 73 75  1  0
 73 76  1  0
 75125  1  0
 76 79  1  0
 76 77  1  1
 76 78  1  0
 78126  1  0
 79 80  1  6
 79 81  1  0
 81127  1  0
M  END
>  <id>  (298) 
400

>  <scaffolds>  (298) 
['C1=C2CCCCC2C2CCC3CCCC3C2C1', 'C1=CCCCC1', 'C1=CCC2CCCCC2C1', 'C1=C2CCCC(OC3CCCCO3)C2C2CCC3CC(OC4CCCCO4)CC3C2C1', 'C1=C2CCCCC2C2CCC3CC(OC4CCCCO4)CC3C2C1', 'C1CCOCC1', 'C1CCCCC1', 'C1=C2CCCC(OC3OCCCC3OC3CCCCO3)C2C2CCC3C4CC5(CCCCO5)OC4CC3C2C1', 'C1=C2CCCCC2C2CCC3C4CC5(CCCCO5)OC4CC3C2C1', 'C1=C2CCCC(OC3OCCC(OC4CCCCO4)C3OC3CCCCO3)C2C2CCC3C4CC5(CCCCO5)OC4CC3C2C1', 'C1=C2CCCCC2CCC1', 'C1CCC(OC2CCCOC2)OC1']

>  <name>  (298) 
(25R)-3[beta]-Hydroxyspirost-5-en-1[beta]-yl O-[alpha]-l-rhamnopyranosyl-(1[to]2)-O-[[beta]-D-xylopyranosyl-(1[to]3)]-[alpha]-L-arabinopyranoside

>  <formula>  (298) 
C43H68O16

>  <SMILES>  (298) 
[H][C@@]9(O[C@H]7[C@@H](O)CO[C@@]([H])(O[C@@H]6C[C@H](O)CC5=CC[C@]1([H])[C@]([H])(CC[C@@]4(C)[C@@]1([H])C[C@]3([H])O[C@]2(CC[C@@H](C)CO2)[C@@H](C)[C@@]34[H])[C@]56C)[C@@H]7O[C@]8([H])O[C@@H](C)[C@H](O)[C@@H](O)[C@H]8O)OC[C@@H](O)[C@H](O)[C@H]9O

>  <ChEMBL_id>  (298) 


>  <ZINC_id>  (298) 


>  <PubChem_id>  (298) 


>  <DrugBank_id>  (298) 


>  <CAS_no>  (298) 
790300-60-6

>  <references>  (298) 
[{'journal': {'name': 'Journal of Natural Products', 'id': 5}, 'title': 'Steroidal Glycosides from the Bulbs of Ornithogalum thyrsoides', 'year': 2004, 'start_page': 1690, 'volume': 67, 'issue': 10, 'doi': '10.1021/np040108i', 'isbn': '', 'despositor': {'code': 'NFA', 'first_name': 'Ngonidzashe', 'last_name': 'Faya', 'id': 21}, 'refauthors_set': [{'author': {'first_name': 'Minpei', 'initials': 'M', 'last_name': 'Kuroda', 'id': 644}, 'first_author': True, 'id': 893}, {'author': {'first_name': 'Yoshihiro ', 'initials': 'Y', 'last_name': 'Mimaki', 'id': 643}, 'first_author': None, 'id': 1204}, {'author': {'first_name': 'Kazutomo', 'initials': 'K', 'last_name': 'Ori', 'id': 793}, 'first_author': None, 'id': 1205}, {'author': {'first_name': 'Hiroshi', 'initials': 'H', 'last_name': 'Sakagami', 'id': 653}, 'first_author': None, 'id': 1206}, {'author': {'first_name': 'Yutaka', 'initials': 'Y', 'last_name': 'Sashida', 'id': 645}, 'first_author': None, 'id': 1207}], 'id': 308}]

>  <classifications>  (298) 
[{'classification': 'Saponins', 'id': 827}, {'classification': 'Spirostanol', 'id': 833}, {'classification': 'Steroids and steroid derivatives (Classyfire)', 'id': 942}]

>  <molecular_mass>  (298) 
840.99

$$$$
SANC00401_minRM1.pdb
     RDKit          3D

128136  0  0  1  0  0  0  0  0999 V2000
    6.3600   -0.7240   -0.0210 H   0  0  0  0  0  0  0  0  0  0  0  0
    5.8380   -1.6530   -0.3920 C   0  0  2  0  0  0  0  0  0  0  0  0
    4.4500   -1.5100   -0.4880 O   0  0  0  0  0  0  0  0  0  0  0  0
    3.9820   -0.4660   -1.3040 C   0  0  1  0  0  0  0  0  0  0  0  0
    4.7740    0.2830   -1.5770 H   0  0  0  0  0  0  0  0  0  0  0  0
    3.4090   -1.0930   -2.5950 C   0  0  1  0  0  0  0  0  0  0  0  0
    4.2310   -1.5530   -3.2080 H   0  0  0  0  0  0  0  0  0  0  0  0
    2.4960   -2.0580   -2.1730 O   0  0  0  0  0  0  0  0  0  0  0  0
    2.7200    0.0300   -3.3980 C   0  0  0  0  0  0  0  0  0  0  0  0
    1.7090    0.6210   -2.6360 O   0  0  0  0  0  0  0  0  0  0  0  0
    2.1840    1.2700   -1.4740 C   0  0  1  0  0  0  0  0  0  0  0  0
    2.8980    2.1060   -1.7290 H   0  0  0  0  0  0  0  0  0  0  0  0
    1.0160    1.7110   -0.8460 O   0  0  0  0  0  0  0  0  0  0  0  0
    0.3680    2.7860   -1.5000 C   0  0  2  0  0  0  0  0  0  0  0  0
    0.3370    2.6540   -2.6150 H   0  0  0  0  0  0  0  0  0  0  0  0
    1.1560    4.0590   -1.1550 C   0  0  0  0  0  0  0  0  0  0  0  0
    0.4750    5.2540   -1.8200 C   0  0  2  0  0  0  0  0  0  0  0  0
    0.4380    5.1190   -2.9370 H   0  0  0  0  0  0  0  0  0  0  0  0
    1.2540    6.3680   -1.4860 O   0  0  0  0  0  0  0  0  0  0  0  0
   -0.9460    5.3820   -1.2580 C   0  0  0  0  0  0  0  0  0  0  0  0
   -1.7110    4.1190   -1.4800 C   0  0  0  0  0  0  0  0  0  0  0  0
   -2.9300    4.1920   -2.0150 C   0  0  0  0  0  0  0  0  0  0  0  0
   -3.8360    3.0290   -2.1690 C   0  0  0  0  0  0  0  0  0  0  0  0
   -3.4050    1.8730   -1.2650 C   0  0  2  0  0  0  0  0  0  0  0  0
   -3.6070    2.1530   -0.2010 H   0  0  0  0  0  0  0  0  0  0  0  0
   -1.9010    1.6160   -1.4840 C   0  0  2  0  0  0  0  0  0  0  0  0
   -1.7310    1.5290   -2.5910 H   0  0  0  0  0  0  0  0  0  0  0  0
   -1.4340    0.2980   -0.8530 C   0  0  0  0  0  0  0  0  0  0  0  0
   -2.3490   -0.8990   -1.1160 C   0  0  0  0  0  0  0  0  0  0  0  0
   -3.7940   -0.5740   -0.7620 C   0  0  1  0  0  0  0  0  0  0  0  0
   -3.9160   -0.2990    0.7310 C   0  0  0  0  0  0  0  0  0  0  0  0
   -4.2010    0.6290   -1.6300 C   0  0  1  0  0  0  0  0  0  0  0  0
   -3.9930    0.3880   -2.7090 H   0  0  0  0  0  0  0  0  0  0  0  0
   -5.7190    0.6950   -1.4560 C   0  0  0  0  0  0  0  0  0  0  0  0
   -6.1190   -0.7930   -1.4600 C   0  0  2  0  0  0  0  0  0  0  0  0
   -6.6270   -1.0780   -2.4130 H   0  0  0  0  0  0  0  0  0  0  0  0
   -6.9980   -1.0480   -0.3890 O   0  0  0  0  0  0  0  0  0  0  0  0
   -6.7510   -2.3380    0.1140 C   0  0  1  0  0  0  0  0  0  0  0  0
   -7.1170   -2.3540    1.6030 C   0  0  0  0  0  0  0  0  0  0  0  0
   -8.6250   -2.1280    1.7790 C   0  0  2  0  0  0  0  0  0  0  0  0
   -8.9000   -1.0910    1.4400 H   0  0  0  0  0  0  0  0  0  0  0  0
   -8.8680   -2.3050    3.1440 O   0  0  0  0  0  0  0  0  0  0  0  0
   -9.3820   -3.1810    0.9480 C   0  0  1  0  0  0  0  0  0  0  0  0
   -9.1200   -4.2020    1.3290 H   0  0  0  0  0  0  0  0  0  0  0  0
  -10.8880   -2.9870    1.0310 C   0  0  0  0  0  0  0  0  0  0  0  0
   -8.9280   -3.0430   -0.5110 C   0  0  0  0  0  0  0  0  0  0  0  0
   -7.5420   -3.2170   -0.6360 O   0  0  0  0  0  0  0  0  0  0  0  0
   -5.2560   -2.6800   -0.1670 C   0  0  1  0  0  0  0  0  0  0  0  0
   -4.6740   -2.5690    0.7840 H   0  0  0  0  0  0  0  0  0  0  0  0
   -5.0410   -4.1050   -0.6550 C   0  0  0  0  0  0  0  0  0  0  0  0
   -4.8350   -1.6300   -1.2020 C   0  0  2  0  0  0  0  0  0  0  0  0
   -4.4920   -2.1200   -2.1430 H   0  0  0  0  0  0  0  0  0  0  0  0
   -1.0950    2.8410   -0.9700 C   0  0  1  0  0  0  0  0  0  0  0  0
   -1.1100    2.9350    0.5550 C   0  0  0  0  0  0  0  0  0  0  0  0
    2.8380    0.2290   -0.5150 C   0  0  2  0  0  0  0  0  0  0  0  0
    2.0770   -0.5140   -0.1550 H   0  0  0  0  0  0  0  0  0  0  0  0
    3.4210    0.9900    0.5100 O   0  0  0  0  0  0  0  0  0  0  0  0
    3.5460    0.3430    1.7500 C   0  0  2  0  0  0  0  0  0  0  0  0
    3.7720   -0.7580    1.6920 H   0  0  0  0  0  0  0  0  0  0  0  0
    2.3140    0.3600    2.3880 O   0  0  0  0  0  0  0  0  0  0  0  0
    1.7870    1.6260    2.7080 C   0  0  1  0  0  0  0  0  0  0  0  0
    1.5630    2.2090    1.7730 H   0  0  0  0  0  0  0  0  0  0  0  0
    0.5050    1.3310    3.4810 C   0  0  0  0  0  0  0  0  0  0  0  0
    2.7750    2.4020    3.6130 C   0  0  2  0  0  0  0  0  0  0  0  0
    2.9210    1.8670    4.5900 H   0  0  0  0  0  0  0  0  0  0  0  0
    2.2330    3.6800    3.7570 O   0  0  0  0  0  0  0  0  0  0  0  0
    4.1300    2.5390    2.8840 C   0  0  1  0  0  0  0  0  0  0  0  0
    4.0170    3.1500    1.9480 H   0  0  0  0  0  0  0  0  0  0  0  0
    4.9620    3.1760    3.8030 O   0  0  0  0  0  0  0  0  0  0  0  0
    4.6480    1.1280    2.5140 C   0  0  1  0  0  0  0  0  0  0  0  0
    5.5690    1.2050    1.8720 H   0  0  0  0  0  0  0  0  0  0  0  0
    4.9330    0.5040    3.7250 O   0  0  0  0  0  0  0  0  0  0  0  0
    6.2410   -1.9850   -1.7030 O   0  0  0  0  0  0  0  0  0  0  0  0
    7.5910   -2.3360   -1.8030 C   0  0  0  0  0  0  0  0  0  0  0  0
    7.8560   -3.6150   -0.9850 C   0  0  1  0  0  0  0  0  0  0  0  0
    7.2370   -4.4670   -1.3750 H   0  0  0  0  0  0  0  0  0  0  0  0
    9.2200   -3.9060   -0.9860 O   0  0  0  0  0  0  0  0  0  0  0  0
    7.5080   -3.3220    0.4950 C   0  0  2  0  0  0  0  0  0  0  0  0
    8.1900   -2.5290    0.9080 H   0  0  0  0  0  0  0  0  0  0  0  0
    7.5520   -4.4890    1.2520 O   0  0  0  0  0  0  0  0  0  0  0  0
    6.0320   -2.8630    0.5660 C   0  0  1  0  0  0  0  0  0  0  0  0
    5.3400   -3.7020    0.2800 H   0  0  0  0  0  0  0  0  0  0  0  0
    5.7730   -2.3610    1.8410 O   0  0  0  0  0  0  0  0  0  0  0  0
    2.0430   -2.3890   -2.9560 H   0  0  0  0  0  0  0  0  0  0  0  0
    3.4660    0.7680   -3.7720 H   0  0  0  0  0  0  0  0  0  0  0  0
    2.1840   -0.3520   -4.2920 H   0  0  0  0  0  0  0  0  0  0  0  0
    1.2270    4.1990   -0.0530 H   0  0  0  0  0  0  0  0  0  0  0  0
    2.2130    3.9800   -1.4870 H   0  0  0  0  0  0  0  0  0  0  0  0
    0.8360    7.1430   -1.8720 H   0  0  0  0  0  0  0  0  0  0  0  0
   -0.9230    5.6200   -0.1720 H   0  0  0  0  0  0  0  0  0  0  0  0
   -1.4560    6.2610   -1.7110 H   0  0  0  0  0  0  0  0  0  0  0  0
   -3.3380    5.1440   -2.3730 H   0  0  0  0  0  0  0  0  0  0  0  0
   -4.8820    3.3320   -1.9430 H   0  0  0  0  0  0  0  0  0  0  0  0
   -3.8610    2.7300   -3.2410 H   0  0  0  0  0  0  0  0  0  0  0  0
   -0.4340    0.0220   -1.2510 H   0  0  0  0  0  0  0  0  0  0  0  0
   -1.2600    0.4220    0.2380 H   0  0  0  0  0  0  0  0  0  0  0  0
   -2.2620   -1.2120   -2.1800 H   0  0  0  0  0  0  0  0  0  0  0  0
   -1.9900   -1.7810   -0.5460 H   0  0  0  0  0  0  0  0  0  0  0  0
   -3.2970    0.5360    1.0830 H   0  0  0  0  0  0  0  0  0  0  0  0
   -4.9450   -0.0630    1.0420 H   0  0  0  0  0  0  0  0  0  0  0  0
   -3.6080   -1.1780    1.3220 H   0  0  0  0  0  0  0  0  0  0  0  0
   -6.0210    1.2210   -0.5300 H   0  0  0  0  0  0  0  0  0  0  0  0
   -6.2200    1.2530   -2.2660 H   0  0  0  0  0  0  0  0  0  0  0  0
   -6.8080   -3.3240    2.0490 H   0  0  0  0  0  0  0  0  0  0  0  0
   -6.5450   -1.5830    2.1590 H   0  0  0  0  0  0  0  0  0  0  0  0
   -9.7320   -1.9270    3.3360 H   0  0  0  0  0  0  0  0  0  0  0  0
  -11.1970   -1.9540    0.8110 H   0  0  0  0  0  0  0  0  0  0  0  0
  -11.4230   -3.6320    0.3190 H   0  0  0  0  0  0  0  0  0  0  0  0
  -11.2860   -3.2370    2.0240 H   0  0  0  0  0  0  0  0  0  0  0  0
   -9.3390   -3.8510   -1.1530 H   0  0  0  0  0  0  0  0  0  0  0  0
   -9.2670   -2.0800   -0.9550 H   0  0  0  0  0  0  0  0  0  0  0  0
   -5.4970   -4.3060   -1.6340 H   0  0  0  0  0  0  0  0  0  0  0  0
   -3.9690   -4.3390   -0.7520 H   0  0  0  0  0  0  0  0  0  0  0  0
   -5.4670   -4.8350    0.0470 H   0  0  0  0  0  0  0  0  0  0  0  0
   -1.0080    1.9490    1.0370 H   0  0  0  0  0  0  0  0  0  0  0  0
   -0.2870    3.5590    0.9470 H   0  0  0  0  0  0  0  0  0  0  0  0
   -2.0360    3.3830    0.9380 H   0  0  0  0  0  0  0  0  0  0  0  0
    0.6910    0.7910    4.4200 H   0  0  0  0  0  0  0  0  0  0  0  0
   -0.0170    2.2640    3.7360 H   0  0  0  0  0  0  0  0  0  0  0  0
   -0.1910    0.7110    2.9020 H   0  0  0  0  0  0  0  0  0  0  0  0
    2.3600    3.9360    4.6750 H   0  0  0  0  0  0  0  0  0  0  0  0
    5.8640    3.1180    3.4760 H   0  0  0  0  0  0  0  0  0  0  0  0
    5.2150   -0.3990    3.5340 H   0  0  0  0  0  0  0  0  0  0  0  0
    7.7500   -2.4920   -2.8920 H   0  0  0  0  0  0  0  0  0  0  0  0
    8.2750   -1.5120   -1.4970 H   0  0  0  0  0  0  0  0  0  0  0  0
    9.4450   -4.2400   -1.8600 H   0  0  0  0  0  0  0  0  0  0  0  0
    8.4680   -4.7810    1.2870 H   0  0  0  0  0  0  0  0  0  0  0  0
    5.6680   -3.1230    2.4240 H   0  0  0  0  0  0  0  0  0  0  0  0
  2  1  1  1
  2 73  1  0
  2  3  1  0
  2 81  1  0
  3  4  1  0
  4  6  1  0
  4  5  1  6
  4 55  1  0
  6  9  1  0
  6  7  1  6
  6  8  1  0
  8 84  1  0
  9 86  1  0
  9 85  1  0
  9 10  1  0
 10 11  1  0
 11 12  1  6
 11 13  1  0
 11 55  1  0
 13 14  1  0
 14 15  1  6
 14 16  1  0
 14 53  1  0
 16 17  1  0
 16 88  1  0
 16 87  1  0
 17 18  1  6
 17 19  1  0
 17 20  1  0
 19 89  1  0
 20 91  1  0
 20 21  1  0
 20 90  1  0
 21 22  2  0
 21 53  1  0
 22 92  1  0
 22 23  1  0
 23 94  1  0
 23 93  1  0
 23 24  1  0
 24 32  1  0
 24 26  1  0
 24 25  1  1
 26 27  1  6
 26 53  1  0
 26 28  1  0
 28 95  1  0
 28 29  1  0
 28 96  1  0
 29 97  1  0
 29 30  1  0
 29 98  1  0
 30 32  1  0
 30 51  1  0
 30 31  1  1
 31100  1  0
 31 99  1  0
 31101  1  0
 32 33  1  6
 32 34  1  0
 34103  1  0
 34 35  1  0
 34102  1  0
 35 36  1  6
 35 51  1  0
 35 37  1  0
 38 37  1  6
 38 47  1  0
 38 48  1  0
 38 39  1  0
 39 40  1  0
 39104  1  0
 39105  1  0
 40 43  1  0
 40 41  1  6
 40 42  1  0
 42106  1  0
 43 46  1  0
 43 45  1  0
 43 44  1  1
 45108  1  0
 45107  1  0
 45109  1  0
 46110  1  0
 46111  1  0
 46 47  1  0
 48 51  1  0
 48 50  1  0
 48 49  1  1
 50112  1  0
 50113  1  0
 50114  1  0
 51 52  1  6
 53 54  1  1
 54117  1  0
 54116  1  0
 54115  1  0
 55 56  1  1
 55 57  1  0
 57 58  1  0
 58 59  1  6
 58 60  1  0
 58 70  1  0
 60 61  1  0
 61 62  1  6
 61 63  1  0
 61 64  1  0
 63120  1  0
 63119  1  0
 63118  1  0
 64 67  1  0
 64 66  1  0
 64 65  1  1
 66121  1  0
 67 68  1  6
 67 70  1  0
 67 69  1  0
 69122  1  0
 70 71  1  6
 70 72  1  0
 72123  1  0
 73 74  1  0
 74124  1  0
 74125  1  0
 74 75  1  0
 75 76  1  6
 75 77  1  0
 75 78  1  0
 77126  1  0
 78 81  1  0
 78 79  1  1
 78 80  1  0
 80127  1  0
 81 82  1  6
 81 83  1  0
 83128  1  0
M  END
>  <id>  (299) 
401

>  <scaffolds>  (299) 
['C1=C2CCCCC2C2CCC3CCCC3C2C1', 'C1=CCCCC1', 'C1=CCC2CCCCC2C1', 'C1=C2CCCC(OC3CCCCO3)C2C2CCC3CC(OC4CCCCO4)CC3C2C1', 'C1=C2CCCCC2C2CCC3CC(OC4CCCCO4)CC3C2C1', 'C1CCOCC1', 'C1CCCCC1', 'C1=C2CCCC(OC3OCCCC3OC3CCCCO3)C2C2CCC3C4CC5(CCCCO5)OC4CC3C2C1', 'C1=C2CCCCC2C2CCC3C4CC5(CCCCO5)OC4CC3C2C1', 'C1=C2CCCC(OC3OCCC(OC4CCCCO4)C3OC3CCCCO3)C2C2CCC3C4CC5(CCCCO5)OC4CC3C2C1', 'C1=C2CCCCC2CCC1', 'C1CCC(OC2CCCOC2)OC1']

>  <name>  (299) 
(24S,25S)-3[beta],24-dihydroxyspirost-5-en-1[beta]-yl O-[alpha]-L-rhamnopyranosyl-(1[to]2)-O-[[beta]-D-xylopyranosyl-(1[to]3)]-[alpha]-L-arabinopyranoside

>  <formula>  (299) 
C43H68O17

>  <SMILES>  (299) 
[H][C@@]9(O[C@H]7[C@@H](O)CO[C@@]([H])(O[C@@H]6C[C@H](O)CC5=CC[C@]1([H])[C@]([H])(CC[C@@]4(C)[C@@]1([H])C[C@]3([H])O[C@]2(C[C@H](O)[C@@H](C)CO2)[C@@H](C)[C@@]34[H])[C@]56C)[C@@H]7O[C@]8([H])O[C@@H](C)[C@H](O)[C@@H](O)[C@H]8O)OC[C@@H](O)[C@H](O)[C@H]9O

>  <ChEMBL_id>  (299) 


>  <ZINC_id>  (299) 


>  <PubChem_id>  (299) 


>  <DrugBank_id>  (299) 


>  <CAS_no>  (299) 
790300-61-7

>  <references>  (299) 
[{'journal': {'name': 'Journal of Natural Products', 'id': 5}, 'title': 'Steroidal Glycosides from the Bulbs of Ornithogalum thyrsoides', 'year': 2004, 'start_page': 1690, 'volume': 67, 'issue': 10, 'doi': '10.1021/np040108i', 'isbn': '', 'despositor': {'code': 'NFA', 'first_name': 'Ngonidzashe', 'last_name': 'Faya', 'id': 21}, 'refauthors_set': [{'author': {'first_name': 'Minpei', 'initials': 'M', 'last_name': 'Kuroda', 'id': 644}, 'first_author': True, 'id': 893}, {'author': {'first_name': 'Yoshihiro ', 'initials': 'Y', 'last_name': 'Mimaki', 'id': 643}, 'first_author': None, 'id': 1204}, {'author': {'first_name': 'Kazutomo', 'initials': 'K', 'last_name': 'Ori', 'id': 793}, 'first_author': None, 'id': 1205}, {'author': {'first_name': 'Hiroshi', 'initials': 'H', 'last_name': 'Sakagami', 'id': 653}, 'first_author': None, 'id': 1206}, {'author': {'first_name': 'Yutaka', 'initials': 'Y', 'last_name': 'Sashida', 'id': 645}, 'first_author': None, 'id': 1207}], 'id': 308}]

>  <classifications>  (299) 
[{'classification': 'Saponins', 'id': 827}, {'classification': 'Spirostanol', 'id': 833}, {'classification': 'Steroids and steroid derivatives (Classyfire)', 'id': 942}]

>  <molecular_mass>  (299) 
856.99

$$$$
SANC00402_minRM1.pdb
     RDKit          3D

142148  0  0  1  0  0  0  0  0999 V2000
    4.4460   -3.5100    1.4000 H   0  0  0  0  0  0  0  0  0  0  0  0
    4.3710   -3.5130    0.2780 C   0  0  2  0  0  0  0  0  0  0  0  0
    2.9330   -3.8740   -0.0830 C   0  0  0  0  0  0  0  0  0  0  0  0
    1.9790   -2.8830    0.5610 C   0  0  0  0  0  0  0  0  0  0  0  0
    2.3160   -1.4680    0.1080 C   0  0  2  0  0  0  0  0  0  0  0  0
    2.1570   -1.3990   -1.0020 H   0  0  0  0  0  0  0  0  0  0  0  0
    3.7760   -1.1010    0.4460 C   0  0  2  0  0  0  0  0  0  0  0  0
    3.9170   -1.1750    1.5560 H   0  0  0  0  0  0  0  0  0  0  0  0
    4.0400    0.3550    0.0470 C   0  0  0  0  0  0  0  0  0  0  0  0
    3.0190    1.3550    0.5940 C   0  0  0  0  0  0  0  0  0  0  0  0
    1.5940    0.9470    0.2500 C   0  0  1  0  0  0  0  0  0  0  0  0
    1.3860    1.0060   -1.2600 C   0  0  0  0  0  0  0  0  0  0  0  0
    1.3990   -0.4750    0.8130 C   0  0  1  0  0  0  0  0  0  0  0  0
    1.6530   -0.4840    1.9070 H   0  0  0  0  0  0  0  0  0  0  0  0
   -0.1020   -0.6970    0.6830 C   0  0  0  0  0  0  0  0  0  0  0  0
   -0.7130    0.6970    0.9690 C   0  0  2  0  0  0  0  0  0  0  0  0
   -1.2270    0.7100    1.9660 H   0  0  0  0  0  0  0  0  0  0  0  0
   -1.5980    1.0330   -0.0770 O   0  0  0  0  0  0  0  0  0  0  0  0
   -2.9300    0.6650    0.1270 C   0  0  2  0  0  0  0  0  0  0  0  0
   -3.3650    1.0870    1.0790 H   0  0  0  0  0  0  0  0  0  0  0  0
   -2.9240   -0.7430    0.1160 O   0  0  0  0  0  0  0  0  0  0  0  0
   -4.1970   -1.2820    0.3520 C   0  0  2  0  0  0  0  0  0  0  0  0
   -4.6040   -0.9480    1.3470 H   0  0  0  0  0  0  0  0  0  0  0  0
   -3.9870   -2.8110    0.3350 C   0  0  0  0  0  0  0  0  0  0  0  0
   -3.2880   -3.0870    1.5350 O   0  0  0  0  0  0  0  0  0  0  0  0
   -2.8790   -4.3690    1.7320 C   0  0  0  0  0  0  0  0  0  0  0  0
   -2.1030   -4.5090    3.0040 C   0  0  0  0  0  0  0  0  0  0  0  0
   -3.1620   -5.2340    0.9280 O   0  0  0  0  0  0  0  0  0  0  0  0
   -5.1660   -0.8920   -0.7990 C   0  0  1  0  0  0  0  0  0  0  0  0
   -4.9030   -1.4530   -1.7380 H   0  0  0  0  0  0  0  0  0  0  0  0
   -6.4230   -1.2610   -0.2850 O   0  0  0  0  0  0  0  0  0  0  0  0
   -7.4750   -1.3280   -1.2020 C   0  0  2  0  0  0  0  0  0  0  0  0
   -7.2020   -1.8010   -2.1890 H   0  0  0  0  0  0  0  0  0  0  0  0
   -7.9060    0.0040   -1.3790 O   0  0  0  0  0  0  0  0  0  0  0  0
   -9.3040    0.0290   -1.5500 C   0  0  0  0  0  0  0  0  0  0  0  0
   -9.8890   -1.3010   -0.9880 C   0  0  2  0  0  0  0  0  0  0  0  0
  -10.4400   -2.0860   -1.9900 O   0  0  0  0  0  0  0  0  0  0  0  0
  -10.9090   -1.0450    0.1500 C   0  0  0  0  0  0  0  0  0  0  0  0
  -11.9360   -0.3000   -0.4400 O   0  0  0  0  0  0  0  0  0  0  0  0
   -8.6430   -2.0630   -0.4620 C   0  0  1  0  0  0  0  0  0  0  0  0
   -8.5530   -1.9590    0.6540 H   0  0  0  0  0  0  0  0  0  0  0  0
   -8.7380   -3.3920   -0.8530 O   0  0  0  0  0  0  0  0  0  0  0  0
   -5.1500    0.6330   -1.0690 C   0  0  2  0  0  0  0  0  0  0  0  0
   -5.7270    1.1680   -0.2670 H   0  0  0  0  0  0  0  0  0  0  0  0
   -5.6870    0.7920   -2.3460 O   0  0  0  0  0  0  0  0  0  0  0  0
   -3.6940    1.1610   -1.1310 C   0  0  1  0  0  0  0  0  0  0  0  0
   -3.1840    0.8010   -2.0650 H   0  0  0  0  0  0  0  0  0  0  0  0
   -3.8100    2.5500   -1.0800 O   0  0  0  0  0  0  0  0  0  0  0  0
    0.4730    1.7110    0.9900 C   0  0  2  0  0  0  0  0  0  0  0  0
    0.7730    1.8240    2.0660 H   0  0  0  0  0  0  0  0  0  0  0  0
    0.1550    3.1100    0.4660 C   0  0  2  0  0  0  0  0  0  0  0  0
   -0.1370    3.0600   -0.6130 H   0  0  0  0  0  0  0  0  0  0  0  0
    1.3740    4.0150    0.6080 C   0  0  0  0  0  0  0  0  0  0  0  0
   -1.0370    3.7260    1.2440 C   0  0  1  0  0  0  0  0  0  0  0  0
   -1.9200    3.0390    1.2400 H   0  0  0  0  0  0  0  0  0  0  0  0
   -0.7640    3.8380    2.6050 O   0  0  0  0  0  0  0  0  0  0  0  0
   -1.4410    5.0770    0.6240 C   0  0  0  0  0  0  0  0  0  0  0  0
   -2.6610    5.6550    1.3340 C   0  0  0  0  0  0  0  0  0  0  0  0
   -3.2490    6.8520    0.5780 C   0  0  1  0  0  0  0  0  0  0  0  0
   -4.5200    7.3220    1.2840 C   0  0  0  0  0  0  0  0  0  0  0  0
   -2.2550    8.0050    0.4980 C   0  0  0  0  0  0  0  0  0  0  0  0
    4.7580   -2.1050   -0.2290 C   0  0  2  0  0  0  0  0  0  0  0  0
    4.6580   -1.9880   -1.7410 C   0  0  0  0  0  0  0  0  0  0  0  0
    6.2290   -1.8680    0.2300 C   0  0  2  0  0  0  0  0  0  0  0  0
    6.2430   -1.7900    1.3530 H   0  0  0  0  0  0  0  0  0  0  0  0
    6.6920   -0.5880   -0.1220 O   0  0  0  0  0  0  0  0  0  0  0  0
    7.4760   -0.3880   -1.2610 C   0  0  2  0  0  0  0  0  0  0  0  0
    7.2390   -1.0450   -2.1400 H   0  0  0  0  0  0  0  0  0  0  0  0
    8.7920   -0.7280   -0.9600 O   0  0  0  0  0  0  0  0  0  0  0  0
    9.3990   -0.0150    0.0940 C   0  0  1  0  0  0  0  0  0  0  0  0
    8.8530   -0.1740    1.0630 H   0  0  0  0  0  0  0  0  0  0  0  0
   10.8100   -0.5920    0.1870 C   0  0  0  0  0  0  0  0  0  0  0  0
    9.4400    1.4900   -0.2640 C   0  0  2  0  0  0  0  0  0  0  0  0
   10.0690    1.6580   -1.1790 H   0  0  0  0  0  0  0  0  0  0  0  0
    9.9260    2.1400    0.8700 O   0  0  0  0  0  0  0  0  0  0  0  0
    7.9950    1.9880   -0.5110 C   0  0  1  0  0  0  0  0  0  0  0  0
    7.3830    1.9200    0.4310 H   0  0  0  0  0  0  0  0  0  0  0  0
    8.1490    3.3130   -0.9170 O   0  0  0  0  0  0  0  0  0  0  0  0
    7.3280    1.1230   -1.6080 C   0  0  1  0  0  0  0  0  0  0  0  0
    6.2370    1.3810   -1.7020 H   0  0  0  0  0  0  0  0  0  0  0  0
    8.0180    1.4210   -2.7810 O   0  0  0  0  0  0  0  0  0  0  0  0
    7.1920   -2.9790   -0.2030 C   0  0  0  0  0  0  0  0  0  0  0  0
    6.7100   -4.3470    0.2850 C   0  0  2  0  0  0  0  0  0  0  0  0
    6.7220   -4.3860    1.4110 H   0  0  0  0  0  0  0  0  0  0  0  0
    7.5040   -5.3710   -0.2470 O   0  0  0  0  0  0  0  0  0  0  0  0
    5.2990   -4.6040   -0.2470 C   0  0  0  0  0  0  0  0  0  0  0  0
    2.7850   -3.9190   -1.1820 H   0  0  0  0  0  0  0  0  0  0  0  0
    2.6920   -4.9040    0.2580 H   0  0  0  0  0  0  0  0  0  0  0  0
    0.9320   -3.1440    0.2950 H   0  0  0  0  0  0  0  0  0  0  0  0
    2.0120   -2.9680    1.6680 H   0  0  0  0  0  0  0  0  0  0  0  0
    5.0320    0.6860    0.4220 H   0  0  0  0  0  0  0  0  0  0  0  0
    4.1110    0.4420   -1.0600 H   0  0  0  0  0  0  0  0  0  0  0  0
    3.1440    1.4680    1.6920 H   0  0  0  0  0  0  0  0  0  0  0  0
    3.2480    2.3660    0.1890 H   0  0  0  0  0  0  0  0  0  0  0  0
    1.8880    0.1780   -1.7870 H   0  0  0  0  0  0  0  0  0  0  0  0
    0.3340    0.9390   -1.5670 H   0  0  0  0  0  0  0  0  0  0  0  0
    1.7760    1.9330   -1.7040 H   0  0  0  0  0  0  0  0  0  0  0  0
   -0.3790   -1.0830   -0.3190 H   0  0  0  0  0  0  0  0  0  0  0  0
   -0.4890   -1.4600    1.3870 H   0  0  0  0  0  0  0  0  0  0  0  0
   -4.9610   -3.3480    0.3140 H   0  0  0  0  0  0  0  0  0  0  0  0
   -3.4110   -3.1430   -0.5610 H   0  0  0  0  0  0  0  0  0  0  0  0
   -2.7330   -4.2880    3.8820 H   0  0  0  0  0  0  0  0  0  0  0  0
   -1.7170   -5.5340    3.1160 H   0  0  0  0  0  0  0  0  0  0  0  0
   -1.2470   -3.8180    3.0350 H   0  0  0  0  0  0  0  0  0  0  0  0
   -9.6670    0.9380   -1.0270 H   0  0  0  0  0  0  0  0  0  0  0  0
   -9.5320    0.1700   -2.6320 H   0  0  0  0  0  0  0  0  0  0  0  0
  -11.2160   -1.6370   -2.3380 H   0  0  0  0  0  0  0  0  0  0  0  0
  -11.2690   -2.0180    0.5690 H   0  0  0  0  0  0  0  0  0  0  0  0
  -10.4370   -0.4890    0.9960 H   0  0  0  0  0  0  0  0  0  0  0  0
  -12.6390   -0.2070    0.2060 H   0  0  0  0  0  0  0  0  0  0  0  0
   -7.9780   -3.8460   -0.4720 H   0  0  0  0  0  0  0  0  0  0  0  0
   -6.2410    1.5720   -2.3360 H   0  0  0  0  0  0  0  0  0  0  0  0
   -2.9500    2.9170   -1.3120 H   0  0  0  0  0  0  0  0  0  0  0  0
    1.8010    4.0110    1.6210 H   0  0  0  0  0  0  0  0  0  0  0  0
    2.1980    3.7190   -0.0620 H   0  0  0  0  0  0  0  0  0  0  0  0
    1.1440    5.0630    0.3630 H   0  0  0  0  0  0  0  0  0  0  0  0
   -0.1290    4.5480    2.7390 H   0  0  0  0  0  0  0  0  0  0  0  0
   -0.5850    5.7860    0.6560 H   0  0  0  0  0  0  0  0  0  0  0  0
   -1.6500    4.9400   -0.4580 H   0  0  0  0  0  0  0  0  0  0  0  0
   -3.4430    4.8710    1.4440 H   0  0  0  0  0  0  0  0  0  0  0  0
   -2.4030    5.9370    2.3770 H   0  0  0  0  0  0  0  0  0  0  0  0
   -3.5190    6.5330   -0.4640 H   0  0  0  0  0  0  0  0  0  0  0  0
   -4.3230    7.6740    2.3070 H   0  0  0  0  0  0  0  0  0  0  0  0
   -5.0050    8.1520    0.7510 H   0  0  0  0  0  0  0  0  0  0  0  0
   -5.2720    6.5230    1.3590 H   0  0  0  0  0  0  0  0  0  0  0  0
   -1.8070    8.2450    1.4750 H   0  0  0  0  0  0  0  0  0  0  0  0
   -1.4240    7.7980   -0.1920 H   0  0  0  0  0  0  0  0  0  0  0  0
   -2.7260    8.9290    0.1310 H   0  0  0  0  0  0  0  0  0  0  0  0
    4.8410   -0.9540   -2.0810 H   0  0  0  0  0  0  0  0  0  0  0  0
    5.3620   -2.6350   -2.2820 H   0  0  0  0  0  0  0  0  0  0  0  0
    3.6610   -2.2490   -2.1290 H   0  0  0  0  0  0  0  0  0  0  0  0
   11.3740   -0.4870   -0.7510 H   0  0  0  0  0  0  0  0  0  0  0  0
   11.3890   -0.0900    0.9760 H   0  0  0  0  0  0  0  0  0  0  0  0
   10.7950   -1.6660    0.4260 H   0  0  0  0  0  0  0  0  0  0  0  0
   10.4770    2.8750    0.5640 H   0  0  0  0  0  0  0  0  0  0  0  0
    7.3060    3.6220   -1.2530 H   0  0  0  0  0  0  0  0  0  0  0  0
    7.6260    0.9090   -3.4950 H   0  0  0  0  0  0  0  0  0  0  0  0
    7.3370   -3.0110   -1.3030 H   0  0  0  0  0  0  0  0  0  0  0  0
    8.2060   -2.7760    0.2050 H   0  0  0  0  0  0  0  0  0  0  0  0
    8.4030   -5.2370    0.0660 H   0  0  0  0  0  0  0  0  0  0  0  0
    4.9540   -5.6100    0.0770 H   0  0  0  0  0  0  0  0  0  0  0  0
    5.2900   -4.6650   -1.3550 H   0  0  0  0  0  0  0  0  0  0  0  0
  2  1  1  1
  2 86  1  0
  2 62  1  0
  2  3  1  0
  3 87  1  0
  3 88  1  0
  3  4  1  0
  4  5  1  0
  4 89  1  0
  4 90  1  0
  5  6  1  6
  5  7  1  0
  5 13  1  0
  7 62  1  0
  7  9  1  0
  7  8  1  1
  9 92  1  0
  9 91  1  0
  9 10  1  0
 10 94  1  0
 10 11  1  0
 10 93  1  0
 11 12  1  6
 11 13  1  0
 11 49  1  0
 12 95  1  0
 12 97  1  0
 12 96  1  0
 13 15  1  0
 13 14  1  1
 15 98  1  0
 15 16  1  0
 15 99  1  0
 16 18  1  0
 16 49  1  0
 16 17  1  1
 18 19  1  0
 19 46  1  0
 19 21  1  0
 19 20  1  1
 21 22  1  0
 22 29  1  0
 22 24  1  0
 22 23  1  1
 24101  1  0
 24100  1  0
 24 25  1  0
 25 26  1  0
 26 28  2  0
 26 27  1  0
 27104  1  0
 27103  1  0
 27102  1  0
 29 30  1  6
 29 43  1  0
 29 31  1  0
 31 32  1  0
 32 33  1  6
 32 34  1  0
 32 40  1  0
 34 35  1  0
 35106  1  0
 35105  1  0
 35 36  1  0
 36 37  1  6
 36 40  1  0
 36 38  1  0
 37107  1  0
 38 39  1  0
 38108  1  0
 38109  1  0
 39110  1  0
 40 42  1  0
 40 41  1  1
 42111  1  0
 43 45  1  0
 43 46  1  0
 43 44  1  1
 45112  1  0
 46 47  1  6
 46 48  1  0
 48113  1  0
 49 51  1  0
 49 50  1  1
 51 52  1  6
 51 53  1  0
 51 54  1  0
 53115  1  0
 53116  1  0
 53114  1  0
 54 57  1  0
 54 55  1  1
 54 56  1  0
 56117  1  0
 57119  1  0
 57118  1  0
 57 58  1  0
 58 59  1  0
 58120  1  0
 58121  1  0
 59122  1  6
 59 61  1  0
 59 60  1  0
 60124  1  0
 60125  1  0
 60123  1  0
 61127  1  0
 61128  1  0
 61126  1  0
 62 63  1  6
 62 64  1  0
 63130  1  0
 63131  1  0
 63129  1  0
 64 82  1  0
 64 66  1  0
 64 65  1  1
 66 67  1  0
 67 68  1  6
 67 79  1  0
 67 69  1  0
 69 70  1  0
 70 73  1  0
 70 72  1  0
 70 71  1  1
 72132  1  0
 72134  1  0
 72133  1  0
 73 74  1  6
 73 76  1  0
 73 75  1  0
 75135  1  0
 76 79  1  0
 76 78  1  0
 76 77  1  1
 78136  1  0
 79 81  1  0
 79 80  1  6
 81137  1  0
 82138  1  0
 82139  1  0
 82 83  1  0
 83 86  1  0
 83 85  1  0
 83 84  1  1
 85140  1  0
 86142  1  0
 86141  1  0
M  END
>  <id>  (300) 
402

>  <scaffolds>  (300) 
['C1CCC(OC2CC3CCC4C(CCC5CCCC(OC6CCCCO6)C54)C3C2)OC1', 'C1CCOCC1', 'C1CCC(C2CCCC2)CC1', 'C1CCCCC1', 'C1CCC2C(C1)CCC1C3CCCC3CCC21', 'C1CCC(OC2CCCC3CCC4C5CC(OC6CCC(OC7CCCO7)CO6)CC5CCC4C32)OC1', 'C1CCC2CCCCC2C1']

>  <name>  (300) 
(22S)-16[beta]-[(O-[beta]-D-apiofuranosyl-(1[to]4)-6-O-acetyl-[beta]-D-glucopyranosyl)oxy]-3[beta],22-dihydroxy-5[alpha]-cholestan-16[beta]-yl [alpha]-L-rhamnopyranoside

>  <formula>  (300) 
C46H78O18

>  <SMILES>  (300) 
[H][C@@]57CC[C@]1([H])[C@]([H])(CC[C@@]4(C)[C@@]1([H])C[C@H](O[C@]3([H])O[C@H](COC(C)=O)[C@@H](O[C@]2([H])OC[C@](O)(CO)[C@H]2O)[C@H](O)[C@H]3O)[C@]4([H])[C@H](C)[C@@H](O)CCC(C)C)[C@@]5(C)[C@H](O[C@]6([H])O[C@@H](C)[C@H](O)[C@@H](O)[C@H]6O)C[C@H](O)C7

>  <ChEMBL_id>  (300) 


>  <ZINC_id>  (300) 


>  <PubChem_id>  (300) 


>  <DrugBank_id>  (300) 


>  <CAS_no>  (300) 
790300-62-8

>  <references>  (300) 
[{'journal': {'name': 'Journal of Natural Products', 'id': 5}, 'title': 'Steroidal Glycosides from the Bulbs of Ornithogalum thyrsoides', 'year': 2004, 'start_page': 1690, 'volume': 67, 'issue': 10, 'doi': '10.1021/np040108i', 'isbn': '', 'despositor': {'code': 'NFA', 'first_name': 'Ngonidzashe', 'last_name': 'Faya', 'id': 21}, 'refauthors_set': [{'author': {'first_name': 'Minpei', 'initials': 'M', 'last_name': 'Kuroda', 'id': 644}, 'first_author': True, 'id': 893}, {'author': {'first_name': 'Yoshihiro ', 'initials': 'Y', 'last_name': 'Mimaki', 'id': 643}, 'first_author': None, 'id': 1204}, {'author': {'first_name': 'Kazutomo', 'initials': 'K', 'last_name': 'Ori', 'id': 793}, 'first_author': None, 'id': 1205}, {'author': {'first_name': 'Hiroshi', 'initials': 'H', 'last_name': 'Sakagami', 'id': 653}, 'first_author': None, 'id': 1206}, {'author': {'first_name': 'Yutaka', 'initials': 'Y', 'last_name': 'Sashida', 'id': 645}, 'first_author': None, 'id': 1207}], 'id': 308}]

>  <classifications>  (300) 
[{'classification': 'Saponins', 'id': 827}, {'classification': 'Spirostanol', 'id': 833}, {'classification': 'Steroids and steroid derivatives (Classyfire)', 'id': 942}]

>  <molecular_mass>  (300) 
919.1

$$$$
SANC00403_minRM1.pdb
     RDKit          3D

121126  0  0  1  0  0  0  0  0999 V2000
   -3.3100   -3.3830   -1.2230 H   0  0  0  0  0  0  0  0  0  0  0  0
   -3.1760   -3.4990   -0.1150 C   0  0  2  0  0  0  0  0  0  0  0  0
   -1.8130   -4.1430    0.1310 C   0  0  0  0  0  0  0  0  0  0  0  0
   -0.7230   -3.2820   -0.4870 C   0  0  0  0  0  0  0  0  0  0  0  0
   -0.7560   -1.8930    0.1380 C   0  0  2  0  0  0  0  0  0  0  0  0
   -0.5520   -1.9850    1.2390 H   0  0  0  0  0  0  0  0  0  0  0  0
   -2.1280   -1.2240   -0.0750 C   0  0  2  0  0  0  0  0  0  0  0  0
   -2.3230   -1.1440   -1.1760 H   0  0  0  0  0  0  0  0  0  0  0  0
   -2.0950    0.1970    0.4990 C   0  0  0  0  0  0  0  0  0  0  0  0
   -0.9120    1.0470    0.0300 C   0  0  0  0  0  0  0  0  0  0  0  0
    0.4160    0.3360    0.2490 C   0  0  1  0  0  0  0  0  0  0  0  0
    0.6810    0.1350    1.7370 C   0  0  0  0  0  0  0  0  0  0  0  0
    0.3110   -1.0090   -0.5000 C   0  0  1  0  0  0  0  0  0  0  0  0
    0.0240   -0.8290   -1.5710 H   0  0  0  0  0  0  0  0  0  0  0  0
    1.7440   -1.5240   -0.4810 C   0  0  0  0  0  0  0  0  0  0  0  0
    2.5980   -0.2430   -0.6490 C   0  0  2  0  0  0  0  0  0  0  0  0
    3.0410   -0.1960   -1.6790 H   0  0  0  0  0  0  0  0  0  0  0  0
    3.6010   -0.2300    0.3390 O   0  0  0  0  0  0  0  0  0  0  0  0
    4.8110   -0.8220   -0.0300 C   0  0  2  0  0  0  0  0  0  0  0  0
    5.2600   -0.3680   -0.9580 H   0  0  0  0  0  0  0  0  0  0  0  0
    4.5050   -2.1850   -0.2010 O   0  0  0  0  0  0  0  0  0  0  0  0
    5.6310   -2.9610   -0.5320 C   0  0  2  0  0  0  0  0  0  0  0  0
    6.1450   -2.5840   -1.4590 H   0  0  0  0  0  0  0  0  0  0  0  0
    5.0820   -4.3830   -0.7770 C   0  0  0  0  0  0  0  0  0  0  0  0
    4.3780   -4.3230   -1.9780 O   0  0  0  0  0  0  0  0  0  0  0  0
    6.6120   -2.9570    0.6660 C   0  0  1  0  0  0  0  0  0  0  0  0
    6.1220   -3.4070    1.5720 H   0  0  0  0  0  0  0  0  0  0  0  0
    7.7170   -3.6970    0.2500 O   0  0  0  0  0  0  0  0  0  0  0  0
    7.0250   -1.4920    0.9550 C   0  0  2  0  0  0  0  0  0  0  0  0
    7.6130   -1.0730    0.0900 H   0  0  0  0  0  0  0  0  0  0  0  0
    7.7940   -1.5510    2.1180 O   0  0  0  0  0  0  0  0  0  0  0  0
    5.7460   -0.6540    1.2030 C   0  0  1  0  0  0  0  0  0  0  0  0
    5.2270   -0.9940    2.1420 H   0  0  0  0  0  0  0  0  0  0  0  0
    6.1850    0.6640    1.2920 O   0  0  0  0  0  0  0  0  0  0  0  0
    1.6410    0.9740   -0.4480 C   0  0  2  0  0  0  0  0  0  0  0  0
    1.3280    1.3060   -1.4730 H   0  0  0  0  0  0  0  0  0  0  0  0
    2.2620    2.1920    0.2390 C   0  0  2  0  0  0  0  0  0  0  0  0
    2.6050    1.9120    1.2670 H   0  0  0  0  0  0  0  0  0  0  0  0
    1.2450    3.3230    0.3550 C   0  0  0  0  0  0  0  0  0  0  0  0
    3.4970    2.6890   -0.5590 C   0  0  1  0  0  0  0  0  0  0  0  0
    4.2020    1.8450   -0.7710 H   0  0  0  0  0  0  0  0  0  0  0  0
    3.1570    3.0920   -1.8520 O   0  0  0  0  0  0  0  0  0  0  0  0
    4.2510    3.7970    0.2030 C   0  0  0  0  0  0  0  0  0  0  0  0
    5.5920    4.0760   -0.4690 C   0  0  0  0  0  0  0  0  0  0  0  0
    6.3480    5.2210    0.2080 C   0  0  1  0  0  0  0  0  0  0  0  0
    6.7890    4.8270    1.6120 C   0  0  0  0  0  0  0  0  0  0  0  0
    7.5740    5.5850   -0.6280 C   0  0  0  0  0  0  0  0  0  0  0  0
   -3.2550   -2.0990    0.5410 C   0  0  2  0  0  0  0  0  0  0  0  0
   -3.1110   -2.1930    2.0550 C   0  0  0  0  0  0  0  0  0  0  0  0
   -4.6690   -1.5510    0.1850 C   0  0  2  0  0  0  0  0  0  0  0  0
   -4.7540   -1.4360   -0.9280 H   0  0  0  0  0  0  0  0  0  0  0  0
   -4.8170   -0.3160    0.8520 O   0  0  0  0  0  0  0  0  0  0  0  0
   -5.8820    0.4820    0.4250 C   0  0  2  0  0  0  0  0  0  0  0  0
   -6.8730   -0.0580    0.4280 H   0  0  0  0  0  0  0  0  0  0  0  0
   -5.5080    0.9140   -0.8630 O   0  0  0  0  0  0  0  0  0  0  0  0
   -6.4670    1.7760   -1.4290 C   0  0  2  0  0  0  0  0  0  0  0  0
   -7.4910    1.3160   -1.4560 H   0  0  0  0  0  0  0  0  0  0  0  0
   -5.9720    2.0290   -2.8690 C   0  0  0  0  0  0  0  0  0  0  0  0
   -6.1680    0.8540   -3.5930 O   0  0  0  0  0  0  0  0  0  0  0  0
   -6.4750    3.0910   -0.6120 C   0  0  1  0  0  0  0  0  0  0  0  0
   -5.4630    3.5820   -0.6360 H   0  0  0  0  0  0  0  0  0  0  0  0
   -7.4530    3.8860   -1.2020 O   0  0  0  0  0  0  0  0  0  0  0  0
   -6.8710    2.7530    0.8500 C   0  0  2  0  0  0  0  0  0  0  0  0
   -7.9260    2.3660    0.8920 H   0  0  0  0  0  0  0  0  0  0  0  0
   -6.7360    3.9490    1.5520 O   0  0  0  0  0  0  0  0  0  0  0  0
   -5.8800    1.6980    1.3960 C   0  0  1  0  0  0  0  0  0  0  0  0
   -4.8470    2.1360    1.4810 H   0  0  0  0  0  0  0  0  0  0  0  0
   -6.3930    1.3110    2.6330 O   0  0  0  0  0  0  0  0  0  0  0  0
   -5.7760   -2.4840    0.7030 C   0  0  0  0  0  0  0  0  0  0  0  0
   -5.6410   -3.8660    0.0640 C   0  0  2  0  0  0  0  0  0  0  0  0
   -5.7780   -3.7940   -1.0510 H   0  0  0  0  0  0  0  0  0  0  0  0
   -6.5680   -4.7620    0.6150 O   0  0  0  0  0  0  0  0  0  0  0  0
   -4.2620   -4.4420    0.3980 C   0  0  0  0  0  0  0  0  0  0  0  0
   -1.6340   -4.2890    1.2190 H   0  0  0  0  0  0  0  0  0  0  0  0
   -1.7800   -5.1670   -0.2980 H   0  0  0  0  0  0  0  0  0  0  0  0
    0.2670   -3.7620   -0.3340 H   0  0  0  0  0  0  0  0  0  0  0  0
   -0.8350   -3.2310   -1.5900 H   0  0  0  0  0  0  0  0  0  0  0  0
   -3.0130    0.7500    0.2070 H   0  0  0  0  0  0  0  0  0  0  0  0
   -2.1320    0.1610    1.6090 H   0  0  0  0  0  0  0  0  0  0  0  0
   -1.0400    1.3180   -1.0400 H   0  0  0  0  0  0  0  0  0  0  0  0
   -0.9310    2.0240    0.5640 H   0  0  0  0  0  0  0  0  0  0  0  0
    0.0320   -0.6390    2.1800 H   0  0  0  0  0  0  0  0  0  0  0  0
    1.7070   -0.1910    1.9610 H   0  0  0  0  0  0  0  0  0  0  0  0
    0.5130    1.0450    2.3280 H   0  0  0  0  0  0  0  0  0  0  0  0
    1.9750   -2.0680    0.4570 H   0  0  0  0  0  0  0  0  0  0  0  0
    1.9550   -2.2560   -1.2870 H   0  0  0  0  0  0  0  0  0  0  0  0
    5.9210   -5.1140   -0.8700 H   0  0  0  0  0  0  0  0  0  0  0  0
    4.4610   -4.7230    0.0850 H   0  0  0  0  0  0  0  0  0  0  0  0
    3.5550   -4.8180   -1.8530 H   0  0  0  0  0  0  0  0  0  0  0  0
    8.3420   -3.7180    0.9740 H   0  0  0  0  0  0  0  0  0  0  0  0
    8.1080   -0.6600    2.3000 H   0  0  0  0  0  0  0  0  0  0  0  0
    5.4270    1.2160    1.4970 H   0  0  0  0  0  0  0  0  0  0  0  0
    0.3700    3.0480    0.9730 H   0  0  0  0  0  0  0  0  0  0  0  0
    1.6680    4.2170    0.8320 H   0  0  0  0  0  0  0  0  0  0  0  0
    0.8290    3.6390   -0.6140 H   0  0  0  0  0  0  0  0  0  0  0  0
    2.6570    3.9120   -1.7950 H   0  0  0  0  0  0  0  0  0  0  0  0
    3.6470    4.7270    0.2560 H   0  0  0  0  0  0  0  0  0  0  0  0
    4.3960    3.4960    1.2590 H   0  0  0  0  0  0  0  0  0  0  0  0
    6.2190    3.1610   -0.4790 H   0  0  0  0  0  0  0  0  0  0  0  0
    5.4310    4.3110   -1.5390 H   0  0  0  0  0  0  0  0  0  0  0  0
    5.6800    6.1180    0.2740 H   0  0  0  0  0  0  0  0  0  0  0  0
    7.2820    3.8430    1.6430 H   0  0  0  0  0  0  0  0  0  0  0  0
    7.5090    5.5530    2.0290 H   0  0  0  0  0  0  0  0  0  0  0  0
    5.9420    4.8000    2.3290 H   0  0  0  0  0  0  0  0  0  0  0  0
    7.3020    5.9040   -1.6420 H   0  0  0  0  0  0  0  0  0  0  0  0
    8.1390    6.4200   -0.1870 H   0  0  0  0  0  0  0  0  0  0  0  0
    8.2760    4.7460   -0.7320 H   0  0  0  0  0  0  0  0  0  0  0  0
   -2.7560   -1.2450    2.5000 H   0  0  0  0  0  0  0  0  0  0  0  0
   -4.0700   -2.4160    2.5580 H   0  0  0  0  0  0  0  0  0  0  0  0
   -2.4060   -2.9800    2.3710 H   0  0  0  0  0  0  0  0  0  0  0  0
   -6.6100    2.8030   -3.3520 H   0  0  0  0  0  0  0  0  0  0  0  0
   -4.9310    2.4170   -2.8880 H   0  0  0  0  0  0  0  0  0  0  0  0
   -5.2980    0.4940   -3.8160 H   0  0  0  0  0  0  0  0  0  0  0  0
   -7.4650    4.7280   -0.7310 H   0  0  0  0  0  0  0  0  0  0  0  0
   -7.0180    3.7910    2.4580 H   0  0  0  0  0  0  0  0  0  0  0  0
   -5.7620    0.7130    3.0410 H   0  0  0  0  0  0  0  0  0  0  0  0
   -5.7200   -2.5650    1.8140 H   0  0  0  0  0  0  0  0  0  0  0  0
   -6.7820   -2.0550    0.5050 H   0  0  0  0  0  0  0  0  0  0  0  0
   -7.4480   -4.4520    0.3760 H   0  0  0  0  0  0  0  0  0  0  0  0
   -4.1590   -5.4500   -0.0590 H   0  0  0  0  0  0  0  0  0  0  0  0
   -4.1670   -4.6300    1.4870 H   0  0  0  0  0  0  0  0  0  0  0  0
  2  1  1  6
  2  3  1  0
  2 73  1  0
  2 48  1  0
  3  4  1  0
  3 75  1  0
  3 74  1  0
  4 77  1  0
  4 76  1  0
  4  5  1  0
  5 13  1  0
  5  7  1  0
  5  6  1  1
  7  8  1  6
  7  9  1  0
  7 48  1  0
  9 10  1  0
  9 78  1  0
  9 79  1  0
 10 80  1  0
 10 11  1  0
 10 81  1  0
 11 13  1  0
 11 35  1  0
 11 12  1  1
 12 83  1  0
 12 82  1  0
 12 84  1  0
 13 14  1  6
 13 15  1  0
 15 86  1  0
 15 16  1  0
 15 85  1  0
 16 17  1  6
 16 35  1  0
 16 18  1  0
 18 19  1  0
 19 20  1  6
 19 21  1  0
 19 32  1  0
 21 22  1  0
 22 23  1  6
 22 24  1  0
 22 26  1  0
 24 25  1  0
 24 87  1  0
 24 88  1  0
 25 89  1  0
 26 28  1  0
 26 29  1  0
 26 27  1  1
 28 90  1  0
 29 30  1  6
 29 32  1  0
 29 31  1  0
 31 91  1  0
 32 34  1  0
 32 33  1  1
 34 92  1  0
 35 36  1  6
 35 37  1  0
 37 40  1  0
 37 39  1  0
 37 38  1  1
 39 95  1  0
 39 94  1  0
 39 93  1  0
 40 42  1  0
 40 41  1  6
 40 43  1  0
 42 96  1  0
 43 44  1  0
 43 97  1  0
 43 98  1  0
 44100  1  0
 44 99  1  0
 44 45  1  0
 45 47  1  0
 45101  1  1
 45 46  1  0
 46102  1  0
 46103  1  0
 46104  1  0
 47105  1  0
 47107  1  0
 47106  1  0
 48 50  1  0
 48 49  1  1
 49110  1  0
 49108  1  0
 49109  1  0
 50 51  1  6
 50 69  1  0
 50 52  1  0
 52 53  1  0
 53 55  1  0
 53 54  1  6
 53 66  1  0
 55 56  1  0
 56 58  1  0
 56 57  1  6
 56 60  1  0
 58 59  1  0
 58111  1  0
 58112  1  0
 59113  1  0
 60 62  1  0
 60 61  1  1
 60 63  1  0
 62114  1  0
 63 64  1  6
 63 66  1  0
 63 65  1  0
 65115  1  0
 66 67  1  1
 66 68  1  0
 68116  1  0
 69 70  1  0
 69118  1  0
 69117  1  0
 70 71  1  6
 70 73  1  0
 70 72  1  0
 72119  1  0
 73120  1  0
 73121  1  0
M  END
>  <id>  (301) 
403

>  <scaffolds>  (301) 
['C1CCC(OC2CC3CCC4C(CCC5CCCC(OC6CCCCO6)C54)C3C2)OC1', 'C1CCOCC1', 'C1CCC(C2CCCC2)CC1', 'C1CCCCC1', 'C1CCC2C(C1)CCC1C3CCCC3CCC21', 'C1CCC2CCCCC2C1']

>  <name>  (301) 
(22S)-16[beta]-[([beta]-D-glucopyranosyl)oxy]-3[beta],22-dihydroxy-5[alpha]-cholestan-1[beta]-yl [beta]-D-glucopyranoside

>  <formula>  (301) 
C39H68O14

>  <SMILES>  (301) 
[H][C@@]46CC[C@]1([H])[C@]([H])(CC[C@@]3(C)[C@@]1([H])C[C@H](O[C@]2([H])O[C@H](CO)[C@@H](O)[C@H](O)[C@H]2O)[C@]3([H])[C@H](C)[C@@H](O)CCC(C)C)[C@@]4(C)[C@H](O[C@]5([H])O[C@H](CO)[C@@H](O)[C@H](O)[C@H]5O)C[C@H](O)C6

>  <ChEMBL_id>  (301) 


>  <ZINC_id>  (301) 


>  <PubChem_id>  (301) 


>  <DrugBank_id>  (301) 


>  <CAS_no>  (301) 
790300-63-9

>  <references>  (301) 
[{'journal': {'name': 'Journal of Natural Products', 'id': 5}, 'title': 'Steroidal Glycosides from the Bulbs of Ornithogalum thyrsoides', 'year': 2004, 'start_page': 1690, 'volume': 67, 'issue': 10, 'doi': '10.1021/np040108i', 'isbn': '', 'despositor': {'code': 'NFA', 'first_name': 'Ngonidzashe', 'last_name': 'Faya', 'id': 21}, 'refauthors_set': [{'author': {'first_name': 'Minpei', 'initials': 'M', 'last_name': 'Kuroda', 'id': 644}, 'first_author': True, 'id': 893}, {'author': {'first_name': 'Yoshihiro ', 'initials': 'Y', 'last_name': 'Mimaki', 'id': 643}, 'first_author': None, 'id': 1204}, {'author': {'first_name': 'Kazutomo', 'initials': 'K', 'last_name': 'Ori', 'id': 793}, 'first_author': None, 'id': 1205}, {'author': {'first_name': 'Hiroshi', 'initials': 'H', 'last_name': 'Sakagami', 'id': 653}, 'first_author': None, 'id': 1206}, {'author': {'first_name': 'Yutaka', 'initials': 'Y', 'last_name': 'Sashida', 'id': 645}, 'first_author': None, 'id': 1207}], 'id': 308}]

>  <classifications>  (301) 
[{'classification': 'Cholestane', 'id': 761}, {'classification': 'Glycoside', 'id': 781}, {'classification': 'Steroids and steroid derivatives (Classyfire)', 'id': 942}]

>  <molecular_mass>  (301) 
760.95

$$$$
SANC00404_minRM1.pdb
     RDKit          3D

145151  0  0  1  0  0  0  0  0999 V2000
    2.5420   -1.0310   -2.5500 H   0  0  0  0  0  0  0  0  0  0  0  0
    2.0180   -0.4410   -3.3520 C   0  0  2  0  0  0  0  0  0  0  0  0
    0.7820   -1.2370   -3.7590 C   0  0  0  0  0  0  0  0  0  0  0  0
   -0.1310   -1.4280   -2.5580 C   0  0  0  0  0  0  0  0  0  0  0  0
   -0.5340   -0.0660   -2.0070 C   0  0  2  0  0  0  0  0  0  0  0  0
   -1.0790    0.4960   -2.8130 H   0  0  0  0  0  0  0  0  0  0  0  0
    0.7050    0.7380   -1.5640 C   0  0  2  0  0  0  0  0  0  0  0  0
    1.2570    0.1490   -0.7860 H   0  0  0  0  0  0  0  0  0  0  0  0
    0.2610    2.0600   -0.9220 C   0  0  0  0  0  0  0  0  0  0  0  0
   -0.8310    1.9280    0.1420 C   0  0  0  0  0  0  0  0  0  0  0  0
   -2.0250    1.1310   -0.3720 C   0  0  1  0  0  0  0  0  0  0  0  0
   -2.7040    1.8670   -1.5210 C   0  0  0  0  0  0  0  0  0  0  0  0
   -1.4530   -0.2340   -0.8040 C   0  0  1  0  0  0  0  0  0  0  0  0
   -0.8570   -0.6800    0.0370 H   0  0  0  0  0  0  0  0  0  0  0  0
   -2.6940   -1.0940   -0.9910 C   0  0  0  0  0  0  0  0  0  0  0  0
   -3.6370   -0.6270    0.1420 C   0  0  2  0  0  0  0  0  0  0  0  0
   -3.6490   -1.3770    0.9770 H   0  0  0  0  0  0  0  0  0  0  0  0
   -4.9280   -0.4320   -0.3950 O   0  0  0  0  0  0  0  0  0  0  0  0
   -5.7680   -1.5470   -0.3290 C   0  0  2  0  0  0  0  0  0  0  0  0
   -5.8920   -1.9430    0.7210 H   0  0  0  0  0  0  0  0  0  0  0  0
   -5.1810   -2.4910   -1.1900 O   0  0  0  0  0  0  0  0  0  0  0  0
   -5.9210   -3.6840   -1.2770 C   0  0  2  0  0  0  0  0  0  0  0  0
   -6.0770   -4.1580   -0.2700 H   0  0  0  0  0  0  0  0  0  0  0  0
   -5.0750   -4.6100   -2.1750 C   0  0  0  0  0  0  0  0  0  0  0  0
   -3.9630   -4.9570   -1.3990 O   0  0  0  0  0  0  0  0  0  0  0  0
   -7.2820   -3.3730   -1.9510 C   0  0  1  0  0  0  0  0  0  0  0  0
   -7.1260   -2.9780   -2.9920 H   0  0  0  0  0  0  0  0  0  0  0  0
   -7.9810   -4.5790   -1.9510 O   0  0  0  0  0  0  0  0  0  0  0  0
   -8.0310   -2.3230   -1.0880 C   0  0  2  0  0  0  0  0  0  0  0  0
   -8.2920   -2.7580   -0.0840 H   0  0  0  0  0  0  0  0  0  0  0  0
   -9.1730   -2.0000   -1.8160 O   0  0  0  0  0  0  0  0  0  0  0  0
   -7.1260   -1.0790   -0.9250 C   0  0  1  0  0  0  0  0  0  0  0  0
   -6.9710   -0.5710   -1.9160 H   0  0  0  0  0  0  0  0  0  0  0  0
   -7.7930   -0.2600   -0.0160 O   0  0  0  0  0  0  0  0  0  0  0  0
   -3.0730    0.7230    0.6900 C   0  0  2  0  0  0  0  0  0  0  0  0
   -2.5300    0.4840    1.6420 H   0  0  0  0  0  0  0  0  0  0  0  0
   -4.1350    1.7760    1.0260 C   0  0  2  0  0  0  0  0  0  0  0  0
   -4.7840    1.9650    0.1340 H   0  0  0  0  0  0  0  0  0  0  0  0
   -3.4780    3.0910    1.4230 C   0  0  0  0  0  0  0  0  0  0  0  0
   -5.0580    1.2690    2.1630 C   0  0  1  0  0  0  0  0  0  0  0  0
   -5.4520    0.2480    1.9190 H   0  0  0  0  0  0  0  0  0  0  0  0
   -4.3620    1.0230    3.3440 O   0  0  0  0  0  0  0  0  0  0  0  0
   -6.2330    2.2380    2.3940 C   0  0  0  0  0  0  0  0  0  0  0  0
   -7.3180    1.5800    3.2400 C   0  0  0  0  0  0  0  0  0  0  0  0
   -8.5060    2.5260    3.4540 C   0  0  1  0  0  0  0  0  0  0  0  0
   -9.2440    2.7670    2.1410 C   0  0  0  0  0  0  0  0  0  0  0  0
   -9.4660    1.9240    4.4760 C   0  0  0  0  0  0  0  0  0  0  0  0
    1.6630    0.9490   -2.7700 C   0  0  2  0  0  0  0  0  0  0  0  0
    1.0110    1.8570   -3.8040 C   0  0  0  0  0  0  0  0  0  0  0  0
    3.0310    1.5500   -2.3320 C   0  0  2  0  0  0  0  0  0  0  0  0
    3.4870    0.8890   -1.5460 H   0  0  0  0  0  0  0  0  0  0  0  0
    2.8020    2.8590   -1.8510 O   0  0  0  0  0  0  0  0  0  0  0  0
    3.7920    3.3670   -1.0050 C   0  0  2  0  0  0  0  0  0  0  0  0
    4.8320    3.2940   -1.4340 H   0  0  0  0  0  0  0  0  0  0  0  0
    3.6560    2.6230    0.1820 O   0  0  0  0  0  0  0  0  0  0  0  0
    4.5340    3.0330    1.1990 C   0  0  2  0  0  0  0  0  0  0  0  0
    5.6100    2.9670    0.8770 H   0  0  0  0  0  0  0  0  0  0  0  0
    4.2530    2.0730    2.3720 C   0  0  0  0  0  0  0  0  0  0  0  0
    4.8290    0.8440    1.9680 O   0  0  0  0  0  0  0  0  0  0  0  0
    4.6050   -0.2350    2.7640 C   0  0  0  0  0  0  0  0  0  0  0  0
    3.9450   -0.1100    3.7830 O   0  0  0  0  0  0  0  0  0  0  0  0
    5.2370   -1.4770    2.2740 C   0  0  0  0  0  0  0  0  0  0  0  0
    5.6510   -1.6080    0.9530 C   0  0  0  0  0  0  0  0  0  0  0  0
    6.2200   -2.8160    0.5500 C   0  0  0  0  0  0  0  0  0  0  0  0
    6.7240   -3.0760   -0.6870 O   0  0  0  0  0  0  0  0  0  0  0  0
    6.3000   -2.2340   -1.7350 C   0  0  0  0  0  0  0  0  0  0  0  0
    6.3510   -3.8800    1.4510 C   0  0  0  0  0  0  0  0  0  0  0  0
    6.7760   -5.0990    1.0090 O   0  0  0  0  0  0  0  0  0  0  0  0
    8.1700   -5.2640    1.1620 C   0  0  0  0  0  0  0  0  0  0  0  0
    5.9520   -3.7090    2.7830 C   0  0  0  0  0  0  0  0  0  0  0  0
    6.2120   -4.7810    3.5830 O   0  0  0  0  0  0  0  0  0  0  0  0
    5.5030   -4.8430    4.7950 C   0  0  0  0  0  0  0  0  0  0  0  0
    5.3870   -2.5060    3.2020 C   0  0  0  0  0  0  0  0  0  0  0  0
    4.1790    4.4850    1.6150 C   0  0  1  0  0  0  0  0  0  0  0  0
    3.1360    4.5290    2.0330 H   0  0  0  0  0  0  0  0  0  0  0  0
    5.1390    4.8420    2.5590 O   0  0  0  0  0  0  0  0  0  0  0  0
    4.2960    5.4030    0.3700 C   0  0  2  0  0  0  0  0  0  0  0  0
    5.3630    5.4550    0.0180 H   0  0  0  0  0  0  0  0  0  0  0  0
    3.8360    6.6490    0.7960 O   0  0  0  0  0  0  0  0  0  0  0  0
    3.3790    4.8430   -0.7440 C   0  0  1  0  0  0  0  0  0  0  0  0
    2.3000    4.9040   -0.4320 H   0  0  0  0  0  0  0  0  0  0  0  0
    3.6500    5.6140   -1.8730 O   0  0  0  0  0  0  0  0  0  0  0  0
    3.9940    1.6860   -3.5230 C   0  0  0  0  0  0  0  0  0  0  0  0
    4.2710    0.3140   -4.1400 C   0  0  2  0  0  0  0  0  0  0  0  0
    4.8170   -0.3360   -3.3990 H   0  0  0  0  0  0  0  0  0  0  0  0
    5.0140    0.4370   -5.3210 O   0  0  0  0  0  0  0  0  0  0  0  0
    2.9540   -0.3460   -4.5560 C   0  0  0  0  0  0  0  0  0  0  0  0
    0.2410   -0.7540   -4.5990 H   0  0  0  0  0  0  0  0  0  0  0  0
    1.0770   -2.2270   -4.1700 H   0  0  0  0  0  0  0  0  0  0  0  0
   -1.0230   -2.0170   -2.8570 H   0  0  0  0  0  0  0  0  0  0  0  0
    0.3600   -2.0480   -1.7790 H   0  0  0  0  0  0  0  0  0  0  0  0
    1.1220    2.5500   -0.4200 H   0  0  0  0  0  0  0  0  0  0  0  0
   -0.0540    2.7830   -1.7060 H   0  0  0  0  0  0  0  0  0  0  0  0
   -0.4150    1.4630    1.0620 H   0  0  0  0  0  0  0  0  0  0  0  0
   -1.1370    2.9470    0.4670 H   0  0  0  0  0  0  0  0  0  0  0  0
   -2.0790    1.9170   -2.4280 H   0  0  0  0  0  0  0  0  0  0  0  0
   -3.6420    1.3890   -1.8390 H   0  0  0  0  0  0  0  0  0  0  0  0
   -2.9470    2.9080   -1.2550 H   0  0  0  0  0  0  0  0  0  0  0  0
   -3.1440   -0.9630   -1.9960 H   0  0  0  0  0  0  0  0  0  0  0  0
   -2.4880   -2.1800   -0.9240 H   0  0  0  0  0  0  0  0  0  0  0  0
   -5.6640   -5.5170   -2.4520 H   0  0  0  0  0  0  0  0  0  0  0  0
   -4.8040   -4.1060   -3.1320 H   0  0  0  0  0  0  0  0  0  0  0  0
   -3.2970   -5.3020   -1.9990 H   0  0  0  0  0  0  0  0  0  0  0  0
   -8.8280   -4.4260   -2.3800 H   0  0  0  0  0  0  0  0  0  0  0  0
   -9.6840   -1.3750   -1.2920 H   0  0  0  0  0  0  0  0  0  0  0  0
   -7.2680    0.5410    0.0960 H   0  0  0  0  0  0  0  0  0  0  0  0
   -2.8970    3.5270    0.5910 H   0  0  0  0  0  0  0  0  0  0  0  0
   -4.2060    3.8650    1.7070 H   0  0  0  0  0  0  0  0  0  0  0  0
   -2.7760    2.9900    2.2640 H   0  0  0  0  0  0  0  0  0  0  0  0
   -4.0660    1.8590    3.7150 H   0  0  0  0  0  0  0  0  0  0  0  0
   -5.8910    3.1750    2.8830 H   0  0  0  0  0  0  0  0  0  0  0  0
   -6.6480    2.5720    1.4200 H   0  0  0  0  0  0  0  0  0  0  0  0
   -7.6650    0.6350    2.7690 H   0  0  0  0  0  0  0  0  0  0  0  0
   -6.8910    1.2650    4.2170 H   0  0  0  0  0  0  0  0  0  0  0  0
   -8.1330    3.5070    3.8480 H   0  0  0  0  0  0  0  0  0  0  0  0
   -9.6580    1.8400    1.7180 H   0  0  0  0  0  0  0  0  0  0  0  0
  -10.0870    3.4640    2.2640 H   0  0  0  0  0  0  0  0  0  0  0  0
   -8.5920    3.2020    1.3680 H   0  0  0  0  0  0  0  0  0  0  0  0
   -8.9940    1.7890    5.4610 H   0  0  0  0  0  0  0  0  0  0  0  0
  -10.3480    2.5620    4.6380 H   0  0  0  0  0  0  0  0  0  0  0  0
   -9.8420    0.9390    4.1670 H   0  0  0  0  0  0  0  0  0  0  0  0
    0.6690    2.8050   -3.3520 H   0  0  0  0  0  0  0  0  0  0  0  0
    1.6880    2.1430   -4.6240 H   0  0  0  0  0  0  0  0  0  0  0  0
    0.1240    1.4110   -4.2750 H   0  0  0  0  0  0  0  0  0  0  0  0
    4.7270    2.4360    3.3110 H   0  0  0  0  0  0  0  0  0  0  0  0
    3.1610    1.9760    2.5730 H   0  0  0  0  0  0  0  0  0  0  0  0
    5.5300   -0.7760    0.2570 H   0  0  0  0  0  0  0  0  0  0  0  0
    6.7520   -1.2300   -1.6760 H   0  0  0  0  0  0  0  0  0  0  0  0
    6.6760   -2.7380   -2.6400 H   0  0  0  0  0  0  0  0  0  0  0  0
    5.2040   -2.1410   -1.8070 H   0  0  0  0  0  0  0  0  0  0  0  0
    8.7530   -4.5320    0.5780 H   0  0  0  0  0  0  0  0  0  0  0  0
    8.4970   -5.2180    2.2140 H   0  0  0  0  0  0  0  0  0  0  0  0
    8.3600   -6.2730    0.7670 H   0  0  0  0  0  0  0  0  0  0  0  0
    5.7050   -5.8620    5.1580 H   0  0  0  0  0  0  0  0  0  0  0  0
    5.8790   -4.1250    5.5400 H   0  0  0  0  0  0  0  0  0  0  0  0
    4.4130   -4.7170    4.6820 H   0  0  0  0  0  0  0  0  0  0  0  0
    5.0570   -2.3560    4.2340 H   0  0  0  0  0  0  0  0  0  0  0  0
    4.9160    5.7220    2.8810 H   0  0  0  0  0  0  0  0  0  0  0  0
    3.9210    7.2630    0.0600 H   0  0  0  0  0  0  0  0  0  0  0  0
    3.0300    5.3450   -2.5590 H   0  0  0  0  0  0  0  0  0  0  0  0
    3.5790    2.3790   -4.2880 H   0  0  0  0  0  0  0  0  0  0  0  0
    4.9450    2.1640   -3.2070 H   0  0  0  0  0  0  0  0  0  0  0  0
    5.8480    0.8620   -5.0990 H   0  0  0  0  0  0  0  0  0  0  0  0
    3.1620   -1.3550   -4.9730 H   0  0  0  0  0  0  0  0  0  0  0  0
    2.4840    0.1960   -5.4040 H   0  0  0  0  0  0  0  0  0  0  0  0
  2  1  1  1
  2 87  1  0
  2  3  1  0
  2 48  1  0
  3 88  1  0
  3 89  1  0
  3  4  1  0
  4 90  1  0
  4  5  1  0
  4 91  1  0
  5  6  1  6
  5  7  1  0
  5 13  1  0
  7 48  1  0
  7  9  1  0
  7  8  1  1
  9 93  1  0
  9 92  1  0
  9 10  1  0
 10 11  1  0
 10 95  1  0
 10 94  1  0
 11 12  1  6
 11 13  1  0
 11 35  1  0
 12 96  1  0
 12 97  1  0
 12 98  1  0
 13 15  1  0
 13 14  1  1
 15 99  1  0
 15100  1  0
 15 16  1  0
 16 18  1  0
 16 35  1  0
 16 17  1  1
 18 19  1  0
 19 21  1  0
 19 32  1  0
 19 20  1  1
 21 22  1  0
 22 24  1  0
 22 26  1  0
 22 23  1  1
 24102  1  0
 24101  1  0
 24 25  1  0
 25103  1  0
 26 27  1  6
 26 28  1  0
 26 29  1  0
 28104  1  0
 29 31  1  0
 29 32  1  0
 29 30  1  1
 31105  1  0
 32 33  1  6
 32 34  1  0
 34106  1  0
 35 37  1  0
 35 36  1  1
 37 38  1  6
 37 39  1  0
 37 40  1  0
 39107  1  0
 39108  1  0
 39109  1  0
 40 41  1  6
 40 43  1  0
 40 42  1  0
 42110  1  0
 43112  1  0
 43111  1  0
 43 44  1  0
 44113  1  0
 44 45  1  0
 44114  1  0
 45 46  1  0
 45115  1  1
 45 47  1  0
 46118  1  0
 46116  1  0
 46117  1  0
 47121  1  0
 47120  1  0
 47119  1  0
 48 49  1  6
 48 50  1  0
 49123  1  0
 49124  1  0
 49122  1  0
 50 83  1  0
 50 52  1  0
 50 51  1  1
 52 53  1  0
 53 54  1  6
 53 80  1  0
 53 55  1  0
 55 56  1  0
 56 57  1  6
 56 74  1  0
 56 58  1  0
 58 59  1  0
 58126  1  0
 58125  1  0
 59 60  1  0
 60 62  1  0
 60 61  2  0
 62 63  2  0
 62 73  1  0
 63127  1  0
 63 64  1  0
 64 65  1  0
 64 67  2  0
 65 66  1  0
 66129  1  0
 66130  1  0
 66128  1  0
 67 68  1  0
 67 70  1  0
 68 69  1  0
 69131  1  0
 69133  1  0
 69132  1  0
 70 73  2  0
 70 71  1  0
 71 72  1  0
 72136  1  0
 72134  1  0
 72135  1  0
 73137  1  0
 74 77  1  0
 74 75  1  1
 74 76  1  0
 76138  1  0
 77 80  1  0
 77 78  1  6
 77 79  1  0
 79139  1  0
 80 82  1  0
 80 81  1  1
 82140  1  0
 83141  1  0
 83 84  1  0
 83142  1  0
 84 86  1  0
 84 87  1  0
 84 85  1  1
 86143  1  0
 87145  1  0
 87144  1  0
M  END
>  <id>  (302) 
404

>  <scaffolds>  (302) 
['c1ccccc1', 'C1CCC(OC2CC3CCC4C(CCC5CCCC(OC6CCCCO6)C54)C3C2)OC1', 'C1CCOCC1', 'C1CCC(C2CCCC2)CC1', 'C1CCCCC1', 'O=C(OCC1CCCC(OC2CCCC3CCC4C5CC(OC6CCCCO6)CC5CCC4C32)O1)c1ccccc1', 'C1CCC2C(C1)CCC1C3CCCC3CCC21', 'C1CCC2CCCCC2C1']

>  <name>  (302) 
(22S)-16[beta]-[([beta]-D-glucopyranosyl)oxy]-3[beta],22-dihydroxy-5[alpha]-cholestan-1[beta]-yl 6-O-(3,4,5-trimethoxybenzoyl)-[beta]-D-glucopyranoside

>  <formula>  (302) 
C49H78O18

>  <SMILES>  (302) 
[H][C@@]47CC[C@]1([H])[C@]([H])(CC[C@@]3(C)[C@@]1([H])C[C@H](O[C@]2([H])O[C@H](CO)[C@@H](O)[C@H](O)[C@H]2O)[C@]3([H])[C@H](C)[C@@H](O)CCC(C)C)[C@@]4(C)[C@H](O[C@]6([H])O[C@H](COC(=O)c5cc(OC)c(OC)c(OC)c5)[C@@H](O)[C@H](O)[C@H]6O)C[C@H](O)C7

>  <ChEMBL_id>  (302) 


>  <ZINC_id>  (302) 


>  <PubChem_id>  (302) 


>  <DrugBank_id>  (302) 


>  <CAS_no>  (302) 
790300-64-0

>  <references>  (302) 
[{'journal': {'name': 'Journal of Natural Products', 'id': 5}, 'title': 'Steroidal Glycosides from the Bulbs of Ornithogalum thyrsoides', 'year': 2004, 'start_page': 1690, 'volume': 67, 'issue': 10, 'doi': '10.1021/np040108i', 'isbn': '', 'despositor': {'code': 'NFA', 'first_name': 'Ngonidzashe', 'last_name': 'Faya', 'id': 21}, 'refauthors_set': [{'author': {'first_name': 'Minpei', 'initials': 'M', 'last_name': 'Kuroda', 'id': 644}, 'first_author': True, 'id': 893}, {'author': {'first_name': 'Yoshihiro ', 'initials': 'Y', 'last_name': 'Mimaki', 'id': 643}, 'first_author': None, 'id': 1204}, {'author': {'first_name': 'Kazutomo', 'initials': 'K', 'last_name': 'Ori', 'id': 793}, 'first_author': None, 'id': 1205}, {'author': {'first_name': 'Hiroshi', 'initials': 'H', 'last_name': 'Sakagami', 'id': 653}, 'first_author': None, 'id': 1206}, {'author': {'first_name': 'Yutaka', 'initials': 'Y', 'last_name': 'Sashida', 'id': 645}, 'first_author': None, 'id': 1207}], 'id': 308}]

>  <classifications>  (302) 
[{'classification': 'Cholestane', 'id': 761}, {'classification': 'Glycoside', 'id': 781}, {'classification': 'Steroids and steroid derivatives (Classyfire)', 'id': 942}]

>  <molecular_mass>  (302) 
955.13

$$$$
SANC00405_minRM1.pdb
     RDKit          3D

143149  0  0  1  0  0  0  0  0999 V2000
    2.4800   -1.1920   -2.5440 H   0  0  0  0  0  0  0  0  0  0  0  0
    1.9820   -0.6200   -3.3730 C   0  0  2  0  0  0  0  0  0  0  0  0
    0.7370   -1.4050   -3.7790 C   0  0  0  0  0  0  0  0  0  0  0  0
   -0.2020   -1.5420   -2.5920 C   0  0  0  0  0  0  0  0  0  0  0  0
   -0.5880   -0.1580   -2.0880 C   0  0  2  0  0  0  0  0  0  0  0  0
   -1.1080    0.3920   -2.9180 H   0  0  0  0  0  0  0  0  0  0  0  0
    0.6610    0.6330   -1.6470 C   0  0  2  0  0  0  0  0  0  0  0  0
    1.1890    0.0520   -0.8460 H   0  0  0  0  0  0  0  0  0  0  0  0
    0.2350    1.9770   -1.0440 C   0  0  0  0  0  0  0  0  0  0  0  0
   -0.8760    1.8940    0.0050 C   0  0  0  0  0  0  0  0  0  0  0  0
   -2.0820    1.1140   -0.5110 C   0  0  1  0  0  0  0  0  0  0  0  0
   -2.7230    1.8310   -1.6920 C   0  0  0  0  0  0  0  0  0  0  0  0
   -1.5280   -0.2730   -0.8940 C   0  0  1  0  0  0  0  0  0  0  0  0
   -0.9510   -0.7030   -0.0310 H   0  0  0  0  0  0  0  0  0  0  0  0
   -2.7770   -1.1210   -1.0710 C   0  0  0  0  0  0  0  0  0  0  0  0
   -3.7170   -0.6160    0.0480 C   0  0  2  0  0  0  0  0  0  0  0  0
   -3.7160   -1.3310    0.9140 H   0  0  0  0  0  0  0  0  0  0  0  0
   -5.0130   -0.4600   -0.4910 O   0  0  0  0  0  0  0  0  0  0  0  0
   -5.8370   -1.5820   -0.3620 C   0  0  2  0  0  0  0  0  0  0  0  0
   -5.9500   -1.9250    0.7090 H   0  0  0  0  0  0  0  0  0  0  0  0
   -5.2430   -2.5620   -1.1770 O   0  0  0  0  0  0  0  0  0  0  0  0
   -5.9590   -3.7710   -1.1850 C   0  0  2  0  0  0  0  0  0  0  0  0
   -6.0920   -4.1900   -0.1490 H   0  0  0  0  0  0  0  0  0  0  0  0
   -5.1100   -4.7360   -2.0390 C   0  0  0  0  0  0  0  0  0  0  0  0
   -3.9790   -5.0100   -1.2580 O   0  0  0  0  0  0  0  0  0  0  0  0
   -7.3370   -3.5260   -1.8540 C   0  0  1  0  0  0  0  0  0  0  0  0
   -7.2030   -3.1960   -2.9200 H   0  0  0  0  0  0  0  0  0  0  0  0
   -8.0140   -4.7410   -1.7670 O   0  0  0  0  0  0  0  0  0  0  0  0
   -8.0920   -2.4370   -1.0470 C   0  0  2  0  0  0  0  0  0  0  0  0
   -8.3330   -2.8130   -0.0140 H   0  0  0  0  0  0  0  0  0  0  0  0
   -9.2500   -2.1790   -1.7760 O   0  0  0  0  0  0  0  0  0  0  0  0
   -7.2060   -1.1700   -0.9730 C   0  0  1  0  0  0  0  0  0  0  0  0
   -7.0690   -0.7240   -1.9950 H   0  0  0  0  0  0  0  0  0  0  0  0
   -7.8760   -0.3050   -0.1100 O   0  0  0  0  0  0  0  0  0  0  0  0
   -3.1610    0.7580    0.5410 C   0  0  2  0  0  0  0  0  0  0  0  0
   -2.6390    0.5640    1.5160 H   0  0  0  0  0  0  0  0  0  0  0  0
   -4.2330    1.8200    0.8040 C   0  0  2  0  0  0  0  0  0  0  0  0
   -4.8720    1.9580   -0.1050 H   0  0  0  0  0  0  0  0  0  0  0  0
   -3.5990    3.1610    1.1490 C   0  0  0  0  0  0  0  0  0  0  0  0
   -5.1710    1.3700    1.9560 C   0  0  1  0  0  0  0  0  0  0  0  0
   -5.6030    0.3580    1.7460 H   0  0  0  0  0  0  0  0  0  0  0  0
   -4.4770    1.1470    3.1400 O   0  0  0  0  0  0  0  0  0  0  0  0
   -6.3040    2.4000    2.1520 C   0  0  0  0  0  0  0  0  0  0  0  0
   -7.3000    1.9200    3.1450 C   0  0  0  0  0  0  0  0  0  0  0  0
   -7.8920    2.6940    4.0570 C   0  0  0  0  0  0  0  0  0  0  0  0
   -7.5930    4.1440    4.2180 C   0  0  0  0  0  0  0  0  0  0  0  0
   -8.9030    2.1330    4.9980 C   0  0  0  0  0  0  0  0  0  0  0  0
    1.6380    0.7930   -2.8450 C   0  0  2  0  0  0  0  0  0  0  0  0
    1.0070    1.6700   -3.9170 C   0  0  0  0  0  0  0  0  0  0  0  0
    3.0050    1.3980   -2.4090 C   0  0  2  0  0  0  0  0  0  0  0  0
    3.4370    0.7680   -1.5850 H   0  0  0  0  0  0  0  0  0  0  0  0
    2.7840    2.7290   -1.9920 O   0  0  0  0  0  0  0  0  0  0  0  0
    3.7720    3.2710   -1.1650 C   0  0  2  0  0  0  0  0  0  0  0  0
    4.8150    3.1660   -1.5790 H   0  0  0  0  0  0  0  0  0  0  0  0
    3.6160    2.5880    0.0570 O   0  0  0  0  0  0  0  0  0  0  0  0
    4.4820    3.0480    1.0630 C   0  0  2  0  0  0  0  0  0  0  0  0
    5.5620    2.9620    0.7610 H   0  0  0  0  0  0  0  0  0  0  0  0
    4.1830    2.1470    2.2790 C   0  0  0  0  0  0  0  0  0  0  0  0
    4.7550    0.8960    1.9440 O   0  0  0  0  0  0  0  0  0  0  0  0
    4.5140   -0.1430    2.7860 C   0  0  0  0  0  0  0  0  0  0  0  0
    3.8470    0.0370    3.7910 O   0  0  0  0  0  0  0  0  0  0  0  0
    5.1380   -1.4120    2.3620 C   0  0  0  0  0  0  0  0  0  0  0  0
    5.5760   -1.6040    1.0560 C   0  0  0  0  0  0  0  0  0  0  0  0
    6.1480   -2.8310    0.7160 C   0  0  0  0  0  0  0  0  0  0  0  0
    6.6780   -3.1490   -0.4970 O   0  0  0  0  0  0  0  0  0  0  0  0
    6.3230   -2.3240   -1.5770 C   0  0  0  0  0  0  0  0  0  0  0  0
    6.2440   -3.8580    1.6630 C   0  0  0  0  0  0  0  0  0  0  0  0
    6.6640   -5.0980    1.2810 O   0  0  0  0  0  0  0  0  0  0  0  0
    8.0470   -5.2810    1.4880 C   0  0  0  0  0  0  0  0  0  0  0  0
    5.8200   -3.6270    2.9780 C   0  0  0  0  0  0  0  0  0  0  0  0
    6.0440   -4.6680    3.8260 O   0  0  0  0  0  0  0  0  0  0  0  0
    5.3390   -4.6610    5.0390 C   0  0  0  0  0  0  0  0  0  0  0  0
    5.2560   -2.4030    3.3340 C   0  0  0  0  0  0  0  0  0  0  0  0
    4.1260    4.5190    1.4000 C   0  0  1  0  0  0  0  0  0  0  0  0
    3.0750    4.5880    1.7960 H   0  0  0  0  0  0  0  0  0  0  0  0
    5.0690    4.9210    2.3430 O   0  0  0  0  0  0  0  0  0  0  0  0
    4.2720    5.3720    0.1120 C   0  0  2  0  0  0  0  0  0  0  0  0
    5.3450    5.3970   -0.2220 H   0  0  0  0  0  0  0  0  0  0  0  0
    3.8150    6.6400    0.4660 O   0  0  0  0  0  0  0  0  0  0  0  0
    3.3690    4.7610   -0.9860 C   0  0  1  0  0  0  0  0  0  0  0  0
    2.2860    4.8490   -0.6970 H   0  0  0  0  0  0  0  0  0  0  0  0
    3.6690    5.4700   -2.1480 O   0  0  0  0  0  0  0  0  0  0  0  0
    3.9930    1.4700   -3.5850 C   0  0  0  0  0  0  0  0  0  0  0  0
    4.2580    0.0720   -4.1460 C   0  0  2  0  0  0  0  0  0  0  0  0
    4.7790   -0.5570   -3.3710 H   0  0  0  0  0  0  0  0  0  0  0  0
    5.0270    0.1400   -5.3140 O   0  0  0  0  0  0  0  0  0  0  0  0
    2.9390   -0.5810   -4.5630 C   0  0  0  0  0  0  0  0  0  0  0  0
    0.2220   -0.9360   -4.6430 H   0  0  0  0  0  0  0  0  0  0  0  0
    1.0210   -2.4120   -4.1540 H   0  0  0  0  0  0  0  0  0  0  0  0
   -1.1010   -2.1210   -2.8930 H   0  0  0  0  0  0  0  0  0  0  0  0
    0.2600   -2.1500   -1.7860 H   0  0  0  0  0  0  0  0  0  0  0  0
    1.0990    2.4590   -0.5390 H   0  0  0  0  0  0  0  0  0  0  0  0
   -0.0470    2.6890   -1.8510 H   0  0  0  0  0  0  0  0  0  0  0  0
   -0.4840    1.4340    0.9380 H   0  0  0  0  0  0  0  0  0  0  0  0
   -1.1450    2.9260    0.3090 H   0  0  0  0  0  0  0  0  0  0  0  0
   -2.0830    1.8410   -2.5890 H   0  0  0  0  0  0  0  0  0  0  0  0
   -3.6660    1.3630   -2.0130 H   0  0  0  0  0  0  0  0  0  0  0  0
   -2.9480    2.8840   -1.4590 H   0  0  0  0  0  0  0  0  0  0  0  0
   -3.2230   -1.0090   -2.0800 H   0  0  0  0  0  0  0  0  0  0  0  0
   -2.5840   -2.2080   -0.9770 H   0  0  0  0  0  0  0  0  0  0  0  0
   -5.6900   -5.6630   -2.2650 H   0  0  0  0  0  0  0  0  0  0  0  0
   -4.8500   -4.2740   -3.0240 H   0  0  0  0  0  0  0  0  0  0  0  0
   -3.3360   -5.4360   -1.8320 H   0  0  0  0  0  0  0  0  0  0  0  0
   -8.8720   -4.6290   -2.1850 H   0  0  0  0  0  0  0  0  0  0  0  0
   -9.7660   -1.5260   -1.2920 H   0  0  0  0  0  0  0  0  0  0  0  0
   -7.3670    0.5090   -0.0580 H   0  0  0  0  0  0  0  0  0  0  0  0
   -2.8280    3.0870    1.9280 H   0  0  0  0  0  0  0  0  0  0  0  0
   -3.1270    3.6260    0.2690 H   0  0  0  0  0  0  0  0  0  0  0  0
   -4.3380    3.8940    1.5110 H   0  0  0  0  0  0  0  0  0  0  0  0
   -4.1680    1.9900    3.4850 H   0  0  0  0  0  0  0  0  0  0  0  0
   -5.8700    3.3910    2.4110 H   0  0  0  0  0  0  0  0  0  0  0  0
   -6.8280    2.5830    1.1890 H   0  0  0  0  0  0  0  0  0  0  0  0
   -7.5580    0.8580    3.0690 H   0  0  0  0  0  0  0  0  0  0  0  0
   -7.7810    4.7100    3.2920 H   0  0  0  0  0  0  0  0  0  0  0  0
   -8.1960    4.6270    5.0020 H   0  0  0  0  0  0  0  0  0  0  0  0
   -6.5410    4.3150    4.5010 H   0  0  0  0  0  0  0  0  0  0  0  0
   -8.5080    2.0890    6.0250 H   0  0  0  0  0  0  0  0  0  0  0  0
   -9.8150    2.7500    5.0250 H   0  0  0  0  0  0  0  0  0  0  0  0
   -9.2380    1.1200    4.7400 H   0  0  0  0  0  0  0  0  0  0  0  0
    0.6740    2.6380   -3.5040 H   0  0  0  0  0  0  0  0  0  0  0  0
    1.6930    1.9150   -4.7420 H   0  0  0  0  0  0  0  0  0  0  0  0
    0.1180    1.2160   -4.3780 H   0  0  0  0  0  0  0  0  0  0  0  0
    4.6400    2.5530    3.2100 H   0  0  0  0  0  0  0  0  0  0  0  0
    3.0870    2.0640    2.4680 H   0  0  0  0  0  0  0  0  0  0  0  0
    5.4700   -0.8020    0.3210 H   0  0  0  0  0  0  0  0  0  0  0  0
    5.2330   -2.2080   -1.7020 H   0  0  0  0  0  0  0  0  0  0  0  0
    6.7940   -1.3290   -1.5250 H   0  0  0  0  0  0  0  0  0  0  0  0
    6.7260   -2.8530   -2.4520 H   0  0  0  0  0  0  0  0  0  0  0  0
    8.6660   -4.5820    0.9020 H   0  0  0  0  0  0  0  0  0  0  0  0
    8.3400   -5.2040    2.5490 H   0  0  0  0  0  0  0  0  0  0  0  0
    8.2360   -6.3070    1.1380 H   0  0  0  0  0  0  0  0  0  0  0  0
    5.7200   -3.9110    5.7450 H   0  0  0  0  0  0  0  0  0  0  0  0
    4.2510   -4.5290    4.9170 H   0  0  0  0  0  0  0  0  0  0  0  0
    5.5310   -5.6650    5.4500 H   0  0  0  0  0  0  0  0  0  0  0  0
    4.9000   -2.2080    4.3500 H   0  0  0  0  0  0  0  0  0  0  0  0
    4.8480    5.8170    2.6160 H   0  0  0  0  0  0  0  0  0  0  0  0
    3.9160    7.2120   -0.3020 H   0  0  0  0  0  0  0  0  0  0  0  0
    3.0560    5.1710   -2.8300 H   0  0  0  0  0  0  0  0  0  0  0  0
    3.6070    2.1410   -4.3830 H   0  0  0  0  0  0  0  0  0  0  0  0
    4.9460    1.9430   -3.2670 H   0  0  0  0  0  0  0  0  0  0  0  0
    5.8620    0.5610   -5.0930 H   0  0  0  0  0  0  0  0  0  0  0  0
    3.1380   -1.6070   -4.9410 H   0  0  0  0  0  0  0  0  0  0  0  0
    2.4930   -0.0610   -5.4360 H   0  0  0  0  0  0  0  0  0  0  0  0
  2  1  1  1
  2 87  1  0
  2  3  1  0
  2 48  1  0
  3 88  1  0
  3 89  1  0
  3  4  1  0
  4 90  1  0
  4  5  1  0
  4 91  1  0
  5  6  1  6
  5  7  1  0
  5 13  1  0
  7 48  1  0
  7  9  1  0
  7  8  1  1
  9 93  1  0
  9 92  1  0
  9 10  1  0
 10 11  1  0
 10 95  1  0
 10 94  1  0
 11 12  1  6
 11 13  1  0
 11 35  1  0
 12 96  1  0
 12 97  1  0
 12 98  1  0
 13 15  1  0
 13 14  1  1
 15 99  1  0
 15100  1  0
 15 16  1  0
 16 18  1  0
 16 35  1  0
 16 17  1  1
 18 19  1  0
 19 21  1  0
 19 32  1  0
 19 20  1  1
 21 22  1  0
 22 24  1  0
 22 26  1  0
 22 23  1  1
 24102  1  0
 24101  1  0
 24 25  1  0
 25103  1  0
 26 27  1  6
 26 28  1  0
 26 29  1  0
 28104  1  0
 29 31  1  0
 29 32  1  0
 29 30  1  1
 31105  1  0
 32 33  1  6
 32 34  1  0
 34106  1  0
 35 37  1  0
 35 36  1  1
 37 38  1  6
 37 39  1  0
 37 40  1  0
 39108  1  0
 39109  1  0
 39107  1  0
 40 41  1  6
 40 43  1  0
 40 42  1  0
 42110  1  0
 43112  1  0
 43111  1  0
 43 44  1  0
 44113  1  0
 44 45  2  0
 45 46  1  0
 45 47  1  0
 46114  1  0
 46116  1  0
 46115  1  0
 47119  1  0
 47118  1  0
 47117  1  0
 48 49  1  6
 48 50  1  0
 49121  1  0
 49122  1  0
 49120  1  0
 50 83  1  0
 50 52  1  0
 50 51  1  1
 52 53  1  0
 53 54  1  6
 53 80  1  0
 53 55  1  0
 55 56  1  0
 56 57  1  6
 56 74  1  0
 56 58  1  0
 58 59  1  0
 58124  1  0
 58123  1  0
 59 60  1  0
 60 62  1  0
 60 61  2  0
 62 63  2  0
 62 73  1  0
 63125  1  0
 63 64  1  0
 64 65  1  0
 64 67  2  0
 65 66  1  0
 66128  1  0
 66126  1  0
 66127  1  0
 67 68  1  0
 67 70  1  0
 68 69  1  0
 69129  1  0
 69131  1  0
 69130  1  0
 70 73  2  0
 70 71  1  0
 71 72  1  0
 72133  1  0
 72134  1  0
 72132  1  0
 73135  1  0
 74 77  1  0
 74 75  1  1
 74 76  1  0
 76136  1  0
 77 80  1  0
 77 78  1  6
 77 79  1  0
 79137  1  0
 80 82  1  0
 80 81  1  1
 82138  1  0
 83139  1  0
 83 84  1  0
 83140  1  0
 84 86  1  0
 84 87  1  0
 84 85  1  1
 86141  1  0
 87143  1  0
 87142  1  0
M  END
>  <id>  (303) 
405

>  <scaffolds>  (303) 
['c1ccccc1', 'C1CCC(OC2CC3CCC4C(CCC5CCCC(OC6CCCCO6)C54)C3C2)OC1', 'C1CCOCC1', 'C1CCC(C2CCCC2)CC1', 'C1CCCCC1', 'O=C(OCC1CCCC(OC2CCCC3CCC4C5CC(OC6CCCCO6)CC5CCC4C32)O1)c1ccccc1', 'C1CCC2C(C1)CCC1C3CCCC3CCC21', 'C1CCC2CCCCC2C1']

>  <name>  (303) 
(22S)-16[beta]-[([beta]-D-glucopyranosyl)oxy]-3[beta],22-dihydroxy-5[alpha]-cholest-24-en-1[beta]-yl 6-O-(3,4,5-trimethoxybenzoyl)-[beta]-D-glucopyranoside

>  <formula>  (303) 
C49H76O18

>  <SMILES>  (303) 
[H][C@@]47CC[C@]1([H])[C@]([H])(CC[C@@]3(C)[C@@]1([H])C[C@H](O[C@]2([H])O[C@H](CO)[C@@H](O)[C@H](O)[C@H]2O)[C@]3([H])[C@H](C)[C@@H](O)C/C=C(C)/C)[C@@]4(C)[C@H](O[C@]6([H])O[C@H](COC(=O)c5cc(OC)c(OC)c(OC)c5)[C@@H](O)[C@H](O)[C@H]6O)C[C@H](O)C7

>  <ChEMBL_id>  (303) 


>  <ZINC_id>  (303) 


>  <PubChem_id>  (303) 


>  <DrugBank_id>  (303) 


>  <CAS_no>  (303) 
790300-65-1

>  <references>  (303) 
[{'journal': {'name': 'Journal of Natural Products', 'id': 5}, 'title': 'Steroidal Glycosides from the Bulbs of Ornithogalum thyrsoides', 'year': 2004, 'start_page': 1690, 'volume': 67, 'issue': 10, 'doi': '10.1021/np040108i', 'isbn': '', 'despositor': {'code': 'NFA', 'first_name': 'Ngonidzashe', 'last_name': 'Faya', 'id': 21}, 'refauthors_set': [{'author': {'first_name': 'Minpei', 'initials': 'M', 'last_name': 'Kuroda', 'id': 644}, 'first_author': True, 'id': 893}, {'author': {'first_name': 'Yoshihiro ', 'initials': 'Y', 'last_name': 'Mimaki', 'id': 643}, 'first_author': None, 'id': 1204}, {'author': {'first_name': 'Kazutomo', 'initials': 'K', 'last_name': 'Ori', 'id': 793}, 'first_author': None, 'id': 1205}, {'author': {'first_name': 'Hiroshi', 'initials': 'H', 'last_name': 'Sakagami', 'id': 653}, 'first_author': None, 'id': 1206}, {'author': {'first_name': 'Yutaka', 'initials': 'Y', 'last_name': 'Sashida', 'id': 645}, 'first_author': None, 'id': 1207}], 'id': 308}]

>  <classifications>  (303) 
[{'classification': 'Cholestane', 'id': 761}, {'classification': 'Glycoside', 'id': 781}, {'classification': 'Steroids and steroid derivatives (Classyfire)', 'id': 942}]

>  <molecular_mass>  (303) 
953.11

$$$$
SANC00406_minRM1.pdb
     RDKit          3D

117122  0  0  1  0  0  0  0  0999 V2000
   -4.7780   -0.8820    1.8540 H   0  0  0  0  0  0  0  0  0  0  0  0
   -4.4830   -1.3900    0.8920 C   0  0  2  0  0  0  0  0  0  0  0  0
   -3.4170   -0.7770    0.2220 O   0  0  0  0  0  0  0  0  0  0  0  0
   -2.3340   -0.3830    1.0310 C   0  0  1  0  0  0  0  0  0  0  0  0
   -2.6690   -0.1110    2.0670 H   0  0  0  0  0  0  0  0  0  0  0  0
   -1.2940   -1.5310    1.0750 C   0  0  0  0  0  0  0  0  0  0  0  0
    0.0180   -0.8530    0.7050 C   0  0  1  0  0  0  0  0  0  0  0  0
    0.4050   -0.3370    1.6260 H   0  0  0  0  0  0  0  0  0  0  0  0
    1.1320   -1.7430    0.1640 C   0  0  2  0  0  0  0  0  0  0  0  0
    0.8030   -2.2430   -0.7840 H   0  0  0  0  0  0  0  0  0  0  0  0
    1.4750   -2.8100    1.1970 C   0  0  0  0  0  0  0  0  0  0  0  0
    2.6450   -3.6040    0.7500 C   0  0  0  0  0  0  0  0  0  0  0  0
    3.5660   -3.1200   -0.0800 C   0  0  0  0  0  0  0  0  0  0  0  0
    4.7130   -3.9780   -0.5060 C   0  0  0  0  0  0  0  0  0  0  0  0
    6.0240   -3.3360   -0.0280 C   0  0  1  0  0  0  0  0  0  0  0  0
    6.0600   -3.3360    1.0970 H   0  0  0  0  0  0  0  0  0  0  0  0
    7.1300   -4.0110   -0.5620 O   0  0  0  0  0  0  0  0  0  0  0  0
    6.1270   -1.9030   -0.5590 C   0  0  0  0  0  0  0  0  0  0  0  0
    4.8960   -1.1100   -0.1060 C   0  0  1  0  0  0  0  0  0  0  0  0
    4.8620   -1.1020    1.0200 H   0  0  0  0  0  0  0  0  0  0  0  0
    4.9640    0.1990   -0.6250 O   0  0  0  0  0  0  0  0  0  0  0  0
    5.9480    1.0330   -0.0810 C   0  0  2  0  0  0  0  0  0  0  0  0
    6.9840    0.5960   -0.1220 H   0  0  0  0  0  0  0  0  0  0  0  0
    5.7270    1.2020    1.2810 O   0  0  0  0  0  0  0  0  0  0  0  0
    4.5080    1.8080    1.6500 C   0  0  1  0  0  0  0  0  0  0  0  0
    3.6300    1.1760    1.3310 H   0  0  0  0  0  0  0  0  0  0  0  0
    4.5700    1.9070    3.1730 C   0  0  0  0  0  0  0  0  0  0  0  0
    4.4250    3.2180    1.0190 C   0  0  2  0  0  0  0  0  0  0  0  0
    5.2580    3.8710    1.3960 H   0  0  0  0  0  0  0  0  0  0  0  0
    3.1650    3.7070    1.3630 O   0  0  0  0  0  0  0  0  0  0  0  0
    4.5150    3.0780   -0.5220 C   0  0  1  0  0  0  0  0  0  0  0  0
    3.6440    2.4770   -0.9190 H   0  0  0  0  0  0  0  0  0  0  0  0
    4.4680    4.3870   -1.0010 O   0  0  0  0  0  0  0  0  0  0  0  0
    5.8290    2.3550   -0.8950 C   0  0  1  0  0  0  0  0  0  0  0  0
    5.8500    2.1180   -1.9930 H   0  0  0  0  0  0  0  0  0  0  0  0
    6.8490    3.2360   -0.5520 O   0  0  0  0  0  0  0  0  0  0  0  0
    3.5620   -1.7200   -0.6370 C   0  0  1  0  0  0  0  0  0  0  0  0
    3.5590   -1.8180   -2.1640 C   0  0  0  0  0  0  0  0  0  0  0  0
    2.3680   -0.8690   -0.1150 C   0  0  1  0  0  0  0  0  0  0  0  0
    2.6840   -0.3960    0.8570 H   0  0  0  0  0  0  0  0  0  0  0  0
    1.9810    0.2760   -1.0630 C   0  0  0  0  0  0  0  0  0  0  0  0
    0.8010    1.1030   -0.5480 C   0  0  0  0  0  0  0  0  0  0  0  0
   -0.4120    0.2020   -0.3340 C   0  0  1  0  0  0  0  0  0  0  0  0
   -0.8410   -0.4330   -1.6530 C   0  0  0  0  0  0  0  0  0  0  0  0
   -1.6220    0.8450    0.3820 C   0  0  1  0  0  0  0  0  0  0  0  0
   -1.2340    1.4770    1.2250 H   0  0  0  0  0  0  0  0  0  0  0  0
   -2.5200    1.7390   -0.4750 C   0  0  2  0  0  0  0  0  0  0  0  0
   -2.9320    1.1590   -1.3380 H   0  0  0  0  0  0  0  0  0  0  0  0
   -1.7270    2.9220   -1.0200 C   0  0  0  0  0  0  0  0  0  0  0  0
   -3.7250    2.2600    0.3540 C   0  0  1  0  0  0  0  0  0  0  0  0
   -4.3060    1.4130    0.7980 H   0  0  0  0  0  0  0  0  0  0  0  0
   -3.3170    2.9610    1.4850 O   0  0  0  0  0  0  0  0  0  0  0  0
   -4.6610    3.1040   -0.5330 C   0  0  0  0  0  0  0  0  0  0  0  0
   -5.8290    3.6700    0.2700 C   0  0  0  0  0  0  0  0  0  0  0  0
   -6.9270    4.2260   -0.6440 C   0  0  1  0  0  0  0  0  0  0  0  0
   -8.0850    4.7560    0.1990 C   0  0  0  0  0  0  0  0  0  0  0  0
   -6.3880    5.3400   -1.5360 C   0  0  0  0  0  0  0  0  0  0  0  0
   -4.0910   -2.6530    1.3200 O   0  0  0  0  0  0  0  0  0  0  0  0
   -3.7890   -3.5950    0.3150 C   0  0  1  0  0  0  0  0  0  0  0  0
   -2.8910   -3.2610   -0.2820 H   0  0  0  0  0  0  0  0  0  0  0  0
   -3.4670   -4.8830    1.0680 C   0  0  0  0  0  0  0  0  0  0  0  0
   -5.0160   -3.7950   -0.6030 C   0  0  2  0  0  0  0  0  0  0  0  0
   -5.8910   -4.1910   -0.0190 H   0  0  0  0  0  0  0  0  0  0  0  0
   -4.5900   -4.6810   -1.5920 O   0  0  0  0  0  0  0  0  0  0  0  0
   -5.3750   -2.4330   -1.2470 C   0  0  1  0  0  0  0  0  0  0  0  0
   -4.5330   -2.0620   -1.8940 H   0  0  0  0  0  0  0  0  0  0  0  0
   -6.5030   -2.6930   -2.0260 O   0  0  0  0  0  0  0  0  0  0  0  0
   -5.6510   -1.3990   -0.1340 C   0  0  1  0  0  0  0  0  0  0  0  0
   -5.7610   -0.3690   -0.5760 H   0  0  0  0  0  0  0  0  0  0  0  0
   -6.8330   -1.8160    0.4750 O   0  0  0  0  0  0  0  0  0  0  0  0
   -1.2670   -2.0170    2.0700 H   0  0  0  0  0  0  0  0  0  0  0  0
   -1.5430   -2.3540    0.3700 H   0  0  0  0  0  0  0  0  0  0  0  0
    1.6970   -2.3630    2.1910 H   0  0  0  0  0  0  0  0  0  0  0  0
    0.6050   -3.4760    1.3800 H   0  0  0  0  0  0  0  0  0  0  0  0
    2.7100   -4.6200    1.1510 H   0  0  0  0  0  0  0  0  0  0  0  0
    4.6250   -5.0160   -0.1220 H   0  0  0  0  0  0  0  0  0  0  0  0
    4.7170   -4.0970   -1.6130 H   0  0  0  0  0  0  0  0  0  0  0  0
    7.1170   -4.9080   -0.2090 H   0  0  0  0  0  0  0  0  0  0  0  0
    7.0610   -1.4310   -0.1830 H   0  0  0  0  0  0  0  0  0  0  0  0
    6.2490   -1.8860   -1.6620 H   0  0  0  0  0  0  0  0  0  0  0  0
    5.4270    2.4990    3.5240 H   0  0  0  0  0  0  0  0  0  0  0  0
    3.6600    2.3820    3.5670 H   0  0  0  0  0  0  0  0  0  0  0  0
    4.6490    0.9170    3.6430 H   0  0  0  0  0  0  0  0  0  0  0  0
    3.1700    4.6530    1.2130 H   0  0  0  0  0  0  0  0  0  0  0  0
    4.8230    4.3950   -1.8970 H   0  0  0  0  0  0  0  0  0  0  0  0
    7.6910    2.8150   -0.7630 H   0  0  0  0  0  0  0  0  0  0  0  0
    4.1820   -2.6400   -2.5500 H   0  0  0  0  0  0  0  0  0  0  0  0
    2.5520   -2.0160   -2.5580 H   0  0  0  0  0  0  0  0  0  0  0  0
    3.9320   -0.9110   -2.6560 H   0  0  0  0  0  0  0  0  0  0  0  0
    2.8390    0.9660   -1.2280 H   0  0  0  0  0  0  0  0  0  0  0  0
    1.7390   -0.0940   -2.0800 H   0  0  0  0  0  0  0  0  0  0  0  0
    1.0760    1.6380    0.3860 H   0  0  0  0  0  0  0  0  0  0  0  0
    0.5770    1.9170   -1.2710 H   0  0  0  0  0  0  0  0  0  0  0  0
   -0.1760   -1.2560   -1.9640 H   0  0  0  0  0  0  0  0  0  0  0  0
   -1.8440   -0.8800   -1.6280 H   0  0  0  0  0  0  0  0  0  0  0  0
   -0.8490    0.2880   -2.4810 H   0  0  0  0  0  0  0  0  0  0  0  0
   -0.9560    2.6120   -1.7430 H   0  0  0  0  0  0  0  0  0  0  0  0
   -2.3720    3.6500   -1.5470 H   0  0  0  0  0  0  0  0  0  0  0  0
   -1.1930    3.4860   -0.2400 H   0  0  0  0  0  0  0  0  0  0  0  0
   -2.9060    3.7860    1.2100 H   0  0  0  0  0  0  0  0  0  0  0  0
   -4.0890    3.9220   -1.0230 H   0  0  0  0  0  0  0  0  0  0  0  0
   -5.0290    2.4770   -1.3710 H   0  0  0  0  0  0  0  0  0  0  0  0
   -6.2590    2.8870    0.9330 H   0  0  0  0  0  0  0  0  0  0  0  0
   -5.4700    4.4540    0.9700 H   0  0  0  0  0  0  0  0  0  0  0  0
   -7.3150    3.4000   -1.2950 H   0  0  0  0  0  0  0  0  0  0  0  0
   -7.7850    5.6050    0.8320 H   0  0  0  0  0  0  0  0  0  0  0  0
   -8.9200    5.1060   -0.4260 H   0  0  0  0  0  0  0  0  0  0  0  0
   -8.4970    3.9910    0.8770 H   0  0  0  0  0  0  0  0  0  0  0  0
   -5.8480    6.1090   -0.9650 H   0  0  0  0  0  0  0  0  0  0  0  0
   -5.6940    4.9680   -2.3030 H   0  0  0  0  0  0  0  0  0  0  0  0
   -7.1900    5.8560   -2.0830 H   0  0  0  0  0  0  0  0  0  0  0  0
   -4.3080   -5.2340    1.6850 H   0  0  0  0  0  0  0  0  0  0  0  0
   -3.2130   -5.6920    0.3680 H   0  0  0  0  0  0  0  0  0  0  0  0
   -2.6150   -4.7550    1.7530 H   0  0  0  0  0  0  0  0  0  0  0  0
   -5.3670   -4.9540   -2.0920 H   0  0  0  0  0  0  0  0  0  0  0  0
   -6.9710   -1.8700   -2.1790 H   0  0  0  0  0  0  0  0  0  0  0  0
   -7.0630   -1.1700    1.1480 H   0  0  0  0  0  0  0  0  0  0  0  0
  2  1  1  1
  2 68  1  0
  2  3  1  0
  2 58  1  0
  3  4  1  0
  4 45  1  0
  4  6  1  0
  4  5  1  1
  6 72  1  0
  6  7  1  0
  6 71  1  0
  7 43  1  0
  7  9  1  0
  7  8  1  1
  9 10  1  6
  9 39  1  0
  9 11  1  0
 11 12  1  0
 11 74  1  0
 11 73  1  0
 12 13  2  0
 12 75  1  0
 13 37  1  0
 13 14  1  0
 14 77  1  0
 14 76  1  0
 14 15  1  0
 15 17  1  0
 15 18  1  0
 15 16  1  1
 17 78  1  0
 18 80  1  0
 18 79  1  0
 18 19  1  0
 19 37  1  0
 19 21  1  0
 19 20  1  1
 21 22  1  0
 22 34  1  0
 22 23  1  1
 22 24  1  0
 24 25  1  0
 25 28  1  0
 25 26  1  1
 25 27  1  0
 27 81  1  0
 27 82  1  0
 27 83  1  0
 28 31  1  0
 28 30  1  0
 28 29  1  1
 30 84  1  0
 31 33  1  0
 31 32  1  6
 31 34  1  0
 33 85  1  0
 34 35  1  6
 34 36  1  0
 36 86  1  0
 37 38  1  6
 37 39  1  0
 38 89  1  0
 38 88  1  0
 38 87  1  0
 39 41  1  0
 39 40  1  1
 41 91  1  0
 41 90  1  0
 41 42  1  0
 42 93  1  0
 42 43  1  0
 42 92  1  0
 43 44  1  6
 43 45  1  0
 44 96  1  0
 44 94  1  0
 44 95  1  0
 45 47  1  0
 45 46  1  1
 47 48  1  6
 47 49  1  0
 47 50  1  0
 49 97  1  0
 49 98  1  0
 49 99  1  0
 50 53  1  0
 50 51  1  1
 50 52  1  0
 52100  1  0
 53102  1  0
 53101  1  0
 53 54  1  0
 54 55  1  0
 54103  1  0
 54104  1  0
 55 57  1  0
 55105  1  6
 55 56  1  0
 56107  1  0
 56106  1  0
 56108  1  0
 57110  1  0
 57111  1  0
 57109  1  0
 58 59  1  0
 59 62  1  0
 59 60  1  6
 59 61  1  0
 61113  1  0
 61112  1  0
 61114  1  0
 62 64  1  0
 62 65  1  0
 62 63  1  1
 64115  1  0
 65 67  1  0
 65 66  1  6
 65 68  1  0
 67116  1  0
 68 69  1  6
 68 70  1  0
 70117  1  0
M  END
>  <id>  (304) 
406

>  <scaffolds>  (304) 
['C1=C2CCCCC2C2CCC3CCCC3C2C1', 'C1=CCCCC1', 'C1=CCC2CCCCC2C1', 'C1=C2CCCC(OC3CCCCO3)C2C2CCC3CC(OC4CCCCO4)CC3C2C1', 'C1=C2CCCCC2C2CCC3CC(OC4CCCCO4)CC3C2C1', 'C1CCOCC1', 'C1CCCCC1', 'C1=C2CCCCC2CCC1']

>  <name>  (304) 
(22S)-16[beta]-[([alpha]-L-rhamnopyranosyl)oxy]-3[beta],22-dihydroxycholest-5-en-1[beta]-yl [alpha]-L-rhamnopyranoside

>  <formula>  (304) 
C39H66O12

>  <SMILES>  (304) 
[H][C@@]6(O[C@H]5C[C@@]4([H])[C@]3([H])CC=C2C[C@@H](O)C[C@@H](O[C@]1([H])O[C@@H](C)[C@H](O)[C@@H](O)[C@H]1O)[C@]2(C)[C@@]3([H])CC[C@]4(C)[C@@]5([H])[C@H](C)[C@@H](O)CCC(C)C)O[C@@H](C)[C@H](O)[C@@H](O)[C@H]6O

>  <ChEMBL_id>  (304) 


>  <ZINC_id>  (304) 


>  <PubChem_id>  (304) 


>  <DrugBank_id>  (304) 


>  <CAS_no>  (304) 
790300-66-2

>  <references>  (304) 
[{'journal': {'name': 'Journal of Natural Products', 'id': 5}, 'title': 'Steroidal Glycosides from the Bulbs of Ornithogalum thyrsoides', 'year': 2004, 'start_page': 1690, 'volume': 67, 'issue': 10, 'doi': '10.1021/np040108i', 'isbn': '', 'despositor': {'code': 'NFA', 'first_name': 'Ngonidzashe', 'last_name': 'Faya', 'id': 21}, 'refauthors_set': [{'author': {'first_name': 'Minpei', 'initials': 'M', 'last_name': 'Kuroda', 'id': 644}, 'first_author': True, 'id': 893}, {'author': {'first_name': 'Yoshihiro ', 'initials': 'Y', 'last_name': 'Mimaki', 'id': 643}, 'first_author': None, 'id': 1204}, {'author': {'first_name': 'Kazutomo', 'initials': 'K', 'last_name': 'Ori', 'id': 793}, 'first_author': None, 'id': 1205}, {'author': {'first_name': 'Hiroshi', 'initials': 'H', 'last_name': 'Sakagami', 'id': 653}, 'first_author': None, 'id': 1206}, {'author': {'first_name': 'Yutaka', 'initials': 'Y', 'last_name': 'Sashida', 'id': 645}, 'first_author': None, 'id': 1207}], 'id': 308}]

>  <classifications>  (304) 
[{'classification': 'Cholestane', 'id': 761}, {'classification': 'Glycoside', 'id': 781}, {'classification': 'Steroids and steroid derivatives (Classyfire)', 'id': 942}]

>  <molecular_mass>  (304) 
726.93

$$$$
SANC00407_minRM1.pdb
     RDKit          3D

 96102  0  0  1  0  0  0  0  0999 V2000
   -1.9390   -3.2850   -1.6480 H   0  0  0  0  0  0  0  0  0  0  0  0
   -1.8400   -3.4480   -0.5420 C   0  0  2  0  0  0  0  0  0  0  0  0
   -0.5500   -4.2270   -0.2910 C   0  0  0  0  0  0  0  0  0  0  0  0
    0.6370   -3.4650   -0.8550 C   0  0  0  0  0  0  0  0  0  0  0  0
    0.7100   -2.0720   -0.2340 C   0  0  2  0  0  0  0  0  0  0  0  0
    0.8980   -2.1760    0.8670 H   0  0  0  0  0  0  0  0  0  0  0  0
   -0.6020   -1.2970   -0.4720 C   0  0  2  0  0  0  0  0  0  0  0  0
   -0.7820   -1.2370   -1.5800 H   0  0  0  0  0  0  0  0  0  0  0  0
   -0.4790    0.1450    0.0370 C   0  0  0  0  0  0  0  0  0  0  0  0
    0.7480    0.8810   -0.5050 C   0  0  0  0  0  0  0  0  0  0  0  0
    2.0140    0.0930   -0.2020 C   0  0  1  0  0  0  0  0  0  0  0  0
    2.2040   -0.0230    1.3080 C   0  0  0  0  0  0  0  0  0  0  0  0
    1.8570   -1.2920   -0.8620 C   0  0  1  0  0  0  0  0  0  0  0  0
    1.6270   -1.1630   -1.9550 H   0  0  0  0  0  0  0  0  0  0  0  0
    3.2650   -1.8820   -0.7510 C   0  0  0  0  0  0  0  0  0  0  0  0
    4.1580   -0.6650   -1.0610 C   0  0  2  0  0  0  0  0  0  0  0  0
    4.6230   -0.7440   -2.0750 H   0  0  0  0  0  0  0  0  0  0  0  0
    5.1850   -0.5590   -0.1020 O   0  0  0  0  0  0  0  0  0  0  0  0
    5.4840    0.8020    0.0900 C   0  0  1  0  0  0  0  0  0  0  0  0
    6.0470    0.9850    1.5050 C   0  0  0  0  0  0  0  0  0  0  0  0
    7.3940    0.2890    1.6440 C   0  0  0  0  0  0  0  0  0  0  0  0
    8.3280    0.7720    0.5380 C   0  0  1  0  0  0  0  0  0  0  0  0
    8.4970    1.8730    0.6510 H   0  0  0  0  0  0  0  0  0  0  0  0
    9.6650    0.0520    0.6080 C   0  0  0  0  0  0  0  0  0  0  0  0
    7.6570    0.5020   -0.8130 C   0  0  0  0  0  0  0  0  0  0  0  0
    6.4140    1.1480   -0.8970 O   0  0  0  0  0  0  0  0  0  0  0  0
    4.1780    1.6110   -0.1800 C   0  0  1  0  0  0  0  0  0  0  0  0
    3.7370    1.9290    0.7960 H   0  0  0  0  0  0  0  0  0  0  0  0
    4.4080    2.8720   -1.0000 C   0  0  0  0  0  0  0  0  0  0  0  0
    3.2810    0.6090   -0.9140 C   0  0  2  0  0  0  0  0  0  0  0  0
    2.9970    1.0030   -1.9180 H   0  0  0  0  0  0  0  0  0  0  0  0
   -1.7900   -2.0720    0.1610 C   0  0  2  0  0  0  0  0  0  0  0  0
   -1.6120   -2.2360    1.6680 C   0  0  0  0  0  0  0  0  0  0  0  0
   -3.1460   -1.3590   -0.1200 C   0  0  2  0  0  0  0  0  0  0  0  0
   -3.2040   -1.0700   -1.2030 H   0  0  0  0  0  0  0  0  0  0  0  0
   -3.1650   -0.2190    0.7180 O   0  0  0  0  0  0  0  0  0  0  0  0
   -4.2270    0.6670    0.5330 C   0  0  2  0  0  0  0  0  0  0  0  0
   -5.2390    0.1640    0.5260 H   0  0  0  0  0  0  0  0  0  0  0  0
   -3.9500    1.3070   -0.6910 O   0  0  0  0  0  0  0  0  0  0  0  0
   -4.8810    2.3150   -0.9950 C   0  0  2  0  0  0  0  0  0  0  0  0
   -5.9300    1.9120   -1.0250 H   0  0  0  0  0  0  0  0  0  0  0  0
   -4.4790    2.8280   -2.3970 C   0  0  0  0  0  0  0  0  0  0  0  0
   -4.7300    1.8250   -3.3310 O   0  0  0  0  0  0  0  0  0  0  0  0
   -4.7610    3.4480    0.0550 C   0  0  1  0  0  0  0  0  0  0  0  0
   -3.7280    3.8920    0.0410 H   0  0  0  0  0  0  0  0  0  0  0  0
   -5.7350    4.3820   -0.2910 O   0  0  0  0  0  0  0  0  0  0  0  0
   -5.0700    2.8530    1.4550 C   0  0  2  0  0  0  0  0  0  0  0  0
   -6.1370    2.5030    1.5080 H   0  0  0  0  0  0  0  0  0  0  0  0
   -4.8250    3.8910    2.3540 O   0  0  0  0  0  0  0  0  0  0  0  0
   -4.0910    1.6830    1.7070 C   0  0  1  0  0  0  0  0  0  0  0  0
   -3.0360    2.0660    1.7790 H   0  0  0  0  0  0  0  0  0  0  0  0
   -4.5190    1.0900    2.8930 O   0  0  0  0  0  0  0  0  0  0  0  0
   -4.3570   -2.2230    0.2630 C   0  0  0  0  0  0  0  0  0  0  0  0
   -4.3180   -3.5700   -0.4610 C   0  0  2  0  0  0  0  0  0  0  0  0
   -4.3780   -3.4180   -1.5750 H   0  0  0  0  0  0  0  0  0  0  0  0
   -5.3560   -4.3970   -0.0190 O   0  0  0  0  0  0  0  0  0  0  0  0
   -3.0240   -4.2920   -0.0810 C   0  0  0  0  0  0  0  0  0  0  0  0
   -0.4110   -4.4210    0.7960 H   0  0  0  0  0  0  0  0  0  0  0  0
   -0.6050   -5.2390   -0.7490 H   0  0  0  0  0  0  0  0  0  0  0  0
    1.5740   -4.0290   -0.6630 H   0  0  0  0  0  0  0  0  0  0  0  0
    0.5720   -3.4070   -1.9620 H   0  0  0  0  0  0  0  0  0  0  0  0
   -1.3640    0.7420   -0.2710 H   0  0  0  0  0  0  0  0  0  0  0  0
   -0.4950    0.1650    1.1490 H   0  0  0  0  0  0  0  0  0  0  0  0
    0.6360    1.0550   -1.5970 H   0  0  0  0  0  0  0  0  0  0  0  0
    0.8070    1.9030   -0.0770 H   0  0  0  0  0  0  0  0  0  0  0  0
    1.6060   -0.8330    1.7560 H   0  0  0  0  0  0  0  0  0  0  0  0
    3.2350   -0.2460    1.6030 H   0  0  0  0  0  0  0  0  0  0  0  0
    1.9070    0.8880    1.8420 H   0  0  0  0  0  0  0  0  0  0  0  0
    3.4640   -2.3230    0.2450 H   0  0  0  0  0  0  0  0  0  0  0  0
    3.4420   -2.7100   -1.4660 H   0  0  0  0  0  0  0  0  0  0  0  0
    6.1410    2.0700    1.7170 H   0  0  0  0  0  0  0  0  0  0  0  0
    5.3330    0.6010    2.2620 H   0  0  0  0  0  0  0  0  0  0  0  0
    7.8320    0.4870    2.6420 H   0  0  0  0  0  0  0  0  0  0  0  0
    7.2690   -0.8130    1.6060 H   0  0  0  0  0  0  0  0  0  0  0  0
    9.5640   -1.0380    0.5080 H   0  0  0  0  0  0  0  0  0  0  0  0
   10.3520    0.3810   -0.1850 H   0  0  0  0  0  0  0  0  0  0  0  0
   10.1780    0.2360    1.5630 H   0  0  0  0  0  0  0  0  0  0  0  0
    8.2270    0.9380   -1.6590 H   0  0  0  0  0  0  0  0  0  0  0  0
    7.5690   -0.5890   -1.0170 H   0  0  0  0  0  0  0  0  0  0  0  0
    4.7690    2.6670   -2.0180 H   0  0  0  0  0  0  0  0  0  0  0  0
    3.4810    3.4530   -1.1050 H   0  0  0  0  0  0  0  0  0  0  0  0
    5.1500    3.5300   -0.5290 H   0  0  0  0  0  0  0  0  0  0  0  0
   -1.1170   -1.3640    2.1230 H   0  0  0  0  0  0  0  0  0  0  0  0
   -2.5640   -2.3490    2.2020 H   0  0  0  0  0  0  0  0  0  0  0  0
   -1.0160   -3.1170    1.9370 H   0  0  0  0  0  0  0  0  0  0  0  0
   -5.1330    3.6780   -2.6920 H   0  0  0  0  0  0  0  0  0  0  0  0
   -3.4340    3.2100   -2.4060 H   0  0  0  0  0  0  0  0  0  0  0  0
   -3.8980    1.3540   -3.4770 H   0  0  0  0  0  0  0  0  0  0  0  0
   -5.6630    5.1210    0.3240 H   0  0  0  0  0  0  0  0  0  0  0  0
   -5.0440    3.5740    3.2360 H   0  0  0  0  0  0  0  0  0  0  0  0
   -3.8800    0.4070    3.1220 H   0  0  0  0  0  0  0  0  0  0  0  0
   -4.3960   -2.3800    1.3620 H   0  0  0  0  0  0  0  0  0  0  0  0
   -5.3020   -1.6820    0.0270 H   0  0  0  0  0  0  0  0  0  0  0  0
   -6.1860   -3.9890   -0.2830 H   0  0  0  0  0  0  0  0  0  0  0  0
   -3.0000   -5.3000   -0.5490 H   0  0  0  0  0  0  0  0  0  0  0  0
   -2.9880   -4.4990    1.0080 H   0  0  0  0  0  0  0  0  0  0  0  0
  2  1  1  6
  2  3  1  0
  2 57  1  0
  2 32  1  0
  3  4  1  0
  3 59  1  0
  3 58  1  0
  4 61  1  0
  4 60  1  0
  4  5  1  0
  5 13  1  0
  5  7  1  0
  5  6  1  1
  7  8  1  6
  7  9  1  0
  7 32  1  0
  9 10  1  0
  9 62  1  0
  9 63  1  0
 10 64  1  0
 10 11  1  0
 10 65  1  0
 11 30  1  0
 11 13  1  0
 11 12  1  1
 12 67  1  0
 12 66  1  0
 12 68  1  0
 13 14  1  6
 13 15  1  0
 15 70  1  0
 15 16  1  0
 15 69  1  0
 16 17  1  6
 16 30  1  0
 16 18  1  0
 19 18  1  6
 19 26  1  0
 19 27  1  0
 19 20  1  0
 20 21  1  0
 20 71  1  0
 20 72  1  0
 21 22  1  0
 21 74  1  0
 21 73  1  0
 22 25  1  0
 22 24  1  0
 22 23  1  1
 24 76  1  0
 24 75  1  0
 24 77  1  0
 25 78  1  0
 25 79  1  0
 25 26  1  0
 27 29  1  0
 27 30  1  0
 27 28  1  1
 29 80  1  0
 29 81  1  0
 29 82  1  0
 30 31  1  6
 32 34  1  0
 32 33  1  1
 33 85  1  0
 33 83  1  0
 33 84  1  0
 34 35  1  6
 34 53  1  0
 34 36  1  0
 36 37  1  0
 37 39  1  0
 37 38  1  6
 37 50  1  0
 39 40  1  0
 40 42  1  0
 40 41  1  6
 40 44  1  0
 42 43  1  0
 42 86  1  0
 42 87  1  0
 43 88  1  0
 44 46  1  0
 44 45  1  1
 44 47  1  0
 46 89  1  0
 47 48  1  6
 47 50  1  0
 47 49  1  0
 49 90  1  0
 50 51  1  1
 50 52  1  0
 52 91  1  0
 53 54  1  0
 53 93  1  0
 53 92  1  0
 54 55  1  6
 54 57  1  0
 54 56  1  0
 56 94  1  0
 57 95  1  0
 57 96  1  0
M  END
>  <id>  (305) 
407

>  <scaffolds>  (305) 
['C1CCC(OC2CC3CCC4C(CCC5CCCC(OC6CCCCO6)C54)C3C2)OC1', 'C1CCOCC1', 'C1CCC(C2CCCC2)CC1', 'C1CCCCC1', 'C1CCC2C(C1)CCC1C3CCCC3CCC21', 'C1CCC2(CC3C(CC4C3CCC3C5CCCCC5CCC34)O2)OC1', 'C1CCC(OC2CCCC3CCC4C5CC6OC7(CCCCO7)CC6C5CCC4C32)OC1', 'C1CCC2CCCCC2C1']

>  <name>  (305) 
(25R)-3[beta]-hydroxy-5[alpha]-spirostan-1[beta]-yl [beta]-D-glucopyranoside

>  <formula>  (305) 
C33H54O9

>  <SMILES>  (305) 
[H][C@@]57CC[C@]1([H])[C@]([H])(CC[C@@]4(C)[C@@]1([H])C[C@]3([H])O[C@]2(CC[C@@H](C)CO2)[C@@H](C)[C@@]34[H])[C@@]5(C)[C@H](O[C@]6([H])O[C@H](CO)[C@@H](O)[C@H](O)[C@H]6O)C[C@H](O)C7

>  <ChEMBL_id>  (305) 


>  <ZINC_id>  (305) 


>  <PubChem_id>  (305) 


>  <DrugBank_id>  (305) 


>  <CAS_no>  (305) 
790661-46-0

>  <references>  (305) 
[{'journal': {'name': 'Journal of Natural Products', 'id': 5}, 'title': 'Steroidal Glycosides from the Bulbs of Ornithogalum thyrsoides', 'year': 2004, 'start_page': 1690, 'volume': 67, 'issue': 10, 'doi': '10.1021/np040108i', 'isbn': '', 'despositor': {'code': 'NFA', 'first_name': 'Ngonidzashe', 'last_name': 'Faya', 'id': 21}, 'refauthors_set': [{'author': {'first_name': 'Minpei', 'initials': 'M', 'last_name': 'Kuroda', 'id': 644}, 'first_author': True, 'id': 893}, {'author': {'first_name': 'Yoshihiro ', 'initials': 'Y', 'last_name': 'Mimaki', 'id': 643}, 'first_author': None, 'id': 1204}, {'author': {'first_name': 'Kazutomo', 'initials': 'K', 'last_name': 'Ori', 'id': 793}, 'first_author': None, 'id': 1205}, {'author': {'first_name': 'Hiroshi', 'initials': 'H', 'last_name': 'Sakagami', 'id': 653}, 'first_author': None, 'id': 1206}, {'author': {'first_name': 'Yutaka', 'initials': 'Y', 'last_name': 'Sashida', 'id': 645}, 'first_author': None, 'id': 1207}], 'id': 308}]

>  <classifications>  (305) 
[{'classification': 'Saponins', 'id': 827}, {'classification': 'Spirostanol', 'id': 833}, {'classification': 'Steroids and steroid derivatives (Classyfire)', 'id': 942}]

>  <molecular_mass>  (305) 
594.77

$$$$
SANC00408_minRM1.pdb
     RDKit          3D

111118  0  0  1  0  0  0  0  0999 V2000
   -4.7920    3.1680   -0.4710 H   0  0  0  0  0  0  0  0  0  0  0  0
   -4.7130    2.2970    0.2330 C   0  0  2  0  0  0  0  0  0  0  0  0
   -4.6840    1.0360   -0.3840 O   0  0  0  0  0  0  0  0  0  0  0  0
   -3.8820    0.9370   -1.5340 C   0  0  2  0  0  0  0  0  0  0  0  0
   -2.9480    1.5540   -1.4720 H   0  0  0  0  0  0  0  0  0  0  0  0
   -4.7470    1.3160   -2.7700 C   0  0  1  0  0  0  0  0  0  0  0  0
   -5.7610    0.8370   -2.6870 H   0  0  0  0  0  0  0  0  0  0  0  0
   -5.0450    2.6680   -2.7910 O   0  0  0  0  0  0  0  0  0  0  0  0
   -4.0700    0.8620   -4.0880 C   0  0  1  0  0  0  0  0  0  0  0  0
   -4.7540    1.0490   -4.9560 H   0  0  0  0  0  0  0  0  0  0  0  0
   -2.9530    1.6350   -4.3860 O   0  0  0  0  0  0  0  0  0  0  0  0
   -3.7180   -0.6320   -3.9770 C   0  0  0  0  0  0  0  0  0  0  0  0
   -2.8920   -0.8340   -2.8630 O   0  0  0  0  0  0  0  0  0  0  0  0
   -3.5460   -0.5820   -1.6360 C   0  0  1  0  0  0  0  0  0  0  0  0
   -4.4680   -1.2240   -1.5060 H   0  0  0  0  0  0  0  0  0  0  0  0
   -2.5550   -0.8430   -0.6850 O   0  0  0  0  0  0  0  0  0  0  0  0
   -2.2620   -2.2190   -0.5170 C   0  0  2  0  0  0  0  0  0  0  0  0
   -2.1220   -2.7410   -1.5020 H   0  0  0  0  0  0  0  0  0  0  0  0
   -3.4520   -2.8450    0.2270 C   0  0  0  0  0  0  0  0  0  0  0  0
   -3.1640   -4.3240    0.4680 C   0  0  2  0  0  0  0  0  0  0  0  0
   -3.0070   -4.8640   -0.5070 H   0  0  0  0  0  0  0  0  0  0  0  0
   -4.2930   -4.8230    1.1310 O   0  0  0  0  0  0  0  0  0  0  0  0
   -1.9120   -4.4360    1.3450 C   0  0  0  0  0  0  0  0  0  0  0  0
   -0.7520   -3.7570    0.6950 C   0  0  0  0  0  0  0  0  0  0  0  0
    0.4020   -4.4110    0.5980 C   0  0  0  0  0  0  0  0  0  0  0  0
    1.6560   -3.8080    0.0860 C   0  0  0  0  0  0  0  0  0  0  0  0
    1.5730   -2.2830    0.0860 C   0  0  2  0  0  0  0  0  0  0  0  0
    1.5980   -1.9150    1.1410 H   0  0  0  0  0  0  0  0  0  0  0  0
    0.2610   -1.8610   -0.5970 C   0  0  2  0  0  0  0  0  0  0  0  0
    0.1980   -2.4100   -1.5730 H   0  0  0  0  0  0  0  0  0  0  0  0
    0.2150   -0.3600   -0.9200 C   0  0  0  0  0  0  0  0  0  0  0  0
    1.4980    0.2110   -1.5280 C   0  0  0  0  0  0  0  0  0  0  0  0
    2.7190   -0.1820   -0.7070 C   0  0  1  0  0  0  0  0  0  0  0  0
    2.6330    0.4260    0.6870 C   0  0  0  0  0  0  0  0  0  0  0  0
    2.7570   -1.7190   -0.6840 C   0  0  1  0  0  0  0  0  0  0  0  0
    2.7070   -2.1040   -1.7390 H   0  0  0  0  0  0  0  0  0  0  0  0
    4.1530   -2.0350   -0.1460 C   0  0  0  0  0  0  0  0  0  0  0  0
    5.0240   -0.9680   -0.8360 C   0  0  2  0  0  0  0  0  0  0  0  0
    5.6450   -1.4120   -1.6530 H   0  0  0  0  0  0  0  0  0  0  0  0
    5.8820   -0.3700    0.1080 O   0  0  0  0  0  0  0  0  0  0  0  0
    6.0410    0.9920   -0.2050 C   0  0  1  0  0  0  0  0  0  0  0  0
    6.3110    1.7570    1.0940 C   0  0  0  0  0  0  0  0  0  0  0  0
    7.6580    1.3290    1.6930 C   0  0  2  0  0  0  0  0  0  0  0  0
    7.6100    0.2530    2.0230 H   0  0  0  0  0  0  0  0  0  0  0  0
    7.8670    2.1920    2.7760 O   0  0  0  0  0  0  0  0  0  0  0  0
    8.7540    1.5130    0.6260 C   0  0  1  0  0  0  0  0  0  0  0  0
    8.8130    2.5960    0.3440 H   0  0  0  0  0  0  0  0  0  0  0  0
   10.1130    1.0540    1.1330 C   0  0  0  0  0  0  0  0  0  0  0  0
    8.3590    0.6820   -0.6020 C   0  0  0  0  0  0  0  0  0  0  0  0
    7.1090    1.0710   -1.1050 O   0  0  0  0  0  0  0  0  0  0  0  0
    4.7550    1.4620   -0.9490 C   0  0  1  0  0  0  0  0  0  0  0  0
    4.1170    2.0420   -0.2300 H   0  0  0  0  0  0  0  0  0  0  0  0
    5.0310    2.3800   -2.1320 C   0  0  0  0  0  0  0  0  0  0  0  0
    4.0780    0.1490   -1.3630 C   0  0  2  0  0  0  0  0  0  0  0  0
    3.9820    0.0880   -2.4730 H   0  0  0  0  0  0  0  0  0  0  0  0
   -0.9340   -2.3170    0.2870 C   0  0  1  0  0  0  0  0  0  0  0  0
   -1.0260   -1.5070    1.5800 C   0  0  0  0  0  0  0  0  0  0  0  0
   -3.4900    2.5150    0.8530 O   0  0  0  0  0  0  0  0  0  0  0  0
   -3.1600    1.6570    1.9230 C   0  0  1  0  0  0  0  0  0  0  0  0
   -3.0670    0.5960    1.5700 H   0  0  0  0  0  0  0  0  0  0  0  0
   -1.8180    2.1710    2.4370 C   0  0  0  0  0  0  0  0  0  0  0  0
   -4.2400    1.7760    3.0240 C   0  0  2  0  0  0  0  0  0  0  0  0
   -4.2990    2.8280    3.4110 H   0  0  0  0  0  0  0  0  0  0  0  0
   -3.8760    0.8540    4.0040 O   0  0  0  0  0  0  0  0  0  0  0  0
   -5.6030    1.3470    2.4250 C   0  0  1  0  0  0  0  0  0  0  0  0
   -5.5780    0.2720    2.0980 H   0  0  0  0  0  0  0  0  0  0  0  0
   -6.5150    1.5270    3.4650 O   0  0  0  0  0  0  0  0  0  0  0  0
   -5.9260    2.2400    1.2070 C   0  0  1  0  0  0  0  0  0  0  0  0
   -6.8240    1.8410    0.6590 H   0  0  0  0  0  0  0  0  0  0  0  0
   -6.1790    3.5060    1.7360 O   0  0  0  0  0  0  0  0  0  0  0  0
   -4.2710    3.1550   -3.0740 H   0  0  0  0  0  0  0  0  0  0  0  0
   -2.2570    1.4210   -3.7760 H   0  0  0  0  0  0  0  0  0  0  0  0
   -4.6360   -1.2620   -3.9630 H   0  0  0  0  0  0  0  0  0  0  0  0
   -3.1040   -0.9820   -4.8350 H   0  0  0  0  0  0  0  0  0  0  0  0
   -3.6520   -2.3130    1.1830 H   0  0  0  0  0  0  0  0  0  0  0  0
   -4.3900   -2.7190   -0.3570 H   0  0  0  0  0  0  0  0  0  0  0  0
   -4.1350   -5.7520    1.3160 H   0  0  0  0  0  0  0  0  0  0  0  0
   -2.0900   -3.9880    2.3470 H   0  0  0  0  0  0  0  0  0  0  0  0
   -1.6960   -5.5050    1.5630 H   0  0  0  0  0  0  0  0  0  0  0  0
    0.4890   -5.4590    0.9090 H   0  0  0  0  0  0  0  0  0  0  0  0
    2.5190   -4.1460    0.6990 H   0  0  0  0  0  0  0  0  0  0  0  0
    1.8590   -4.2090   -0.9310 H   0  0  0  0  0  0  0  0  0  0  0  0
   -0.5950   -0.1600   -1.6550 H   0  0  0  0  0  0  0  0  0  0  0  0
   -0.0830    0.2210   -0.0230 H   0  0  0  0  0  0  0  0  0  0  0  0
    1.6030   -0.1300   -2.5810 H   0  0  0  0  0  0  0  0  0  0  0  0
    1.4180    1.3160   -1.6100 H   0  0  0  0  0  0  0  0  0  0  0  0
    1.7390    0.1200    1.2480 H   0  0  0  0  0  0  0  0  0  0  0  0
    3.4920    0.1610    1.3210 H   0  0  0  0  0  0  0  0  0  0  0  0
    2.6120    1.5270    0.6380 H   0  0  0  0  0  0  0  0  0  0  0  0
    4.2080   -1.9920    0.9590 H   0  0  0  0  0  0  0  0  0  0  0  0
    4.4900   -3.0650   -0.3900 H   0  0  0  0  0  0  0  0  0  0  0  0
    6.2980    2.8480    0.8890 H   0  0  0  0  0  0  0  0  0  0  0  0
    5.4940    1.5870    1.8250 H   0  0  0  0  0  0  0  0  0  0  0  0
    8.5880    1.8330    3.3000 H   0  0  0  0  0  0  0  0  0  0  0  0
   10.0940    0.0270    1.5330 H   0  0  0  0  0  0  0  0  0  0  0  0
   10.8700    1.0680    0.3340 H   0  0  0  0  0  0  0  0  0  0  0  0
   10.5060    1.7040    1.9290 H   0  0  0  0  0  0  0  0  0  0  0  0
    9.0400    0.8570   -1.4610 H   0  0  0  0  0  0  0  0  0  0  0  0
    8.3960   -0.4100   -0.3840 H   0  0  0  0  0  0  0  0  0  0  0  0
    5.5820    1.8900   -2.9490 H   0  0  0  0  0  0  0  0  0  0  0  0
    4.0980    2.7650   -2.5690 H   0  0  0  0  0  0  0  0  0  0  0  0
    5.6360    3.2530   -1.8350 H   0  0  0  0  0  0  0  0  0  0  0  0
   -0.7450   -0.4480    1.4420 H   0  0  0  0  0  0  0  0  0  0  0  0
   -2.0410   -1.5110    2.0020 H   0  0  0  0  0  0  0  0  0  0  0  0
   -0.3780   -1.9100    2.3780 H   0  0  0  0  0  0  0  0  0  0  0  0
   -1.8650    3.2200    2.7640 H   0  0  0  0  0  0  0  0  0  0  0  0
   -1.4730    1.5730    3.2920 H   0  0  0  0  0  0  0  0  0  0  0  0
   -1.0400    2.1180    1.6620 H   0  0  0  0  0  0  0  0  0  0  0  0
   -4.3390    1.0890    4.8150 H   0  0  0  0  0  0  0  0  0  0  0  0
   -7.4020    1.5130    3.0960 H   0  0  0  0  0  0  0  0  0  0  0  0
   -6.4440    4.0780    1.0090 H   0  0  0  0  0  0  0  0  0  0  0  0
  2  1  1  6
  2  3  1  0
  2 58  1  0
  2 68  1  0
  3  4  1  0
  4  6  1  0
  4 14  1  0
  4  5  1  1
  6  9  1  0
  6  8  1  0
  6  7  1  1
  8 71  1  0
  9 10  1  6
  9 11  1  0
  9 12  1  0
 11 72  1  0
 12 74  1  0
 12 73  1  0
 12 13  1  0
 13 14  1  0
 14 15  1  1
 14 16  1  0
 16 17  1  0
 17 18  1  6
 17 19  1  0
 17 56  1  0
 19 76  1  0
 19 20  1  0
 19 75  1  0
 20 21  1  6
 20 22  1  0
 20 23  1  0
 22 77  1  0
 23 24  1  0
 23 79  1  0
 23 78  1  0
 24 56  1  0
 24 25  2  0
 25 26  1  0
 25 80  1  0
 26 82  1  0
 26 27  1  0
 26 81  1  0
 27 35  1  0
 27 29  1  0
 27 28  1  1
 29 30  1  6
 29 31  1  0
 29 56  1  0
 31 83  1  0
 31 32  1  0
 31 84  1  0
 32 85  1  0
 32 86  1  0
 32 33  1  0
 33 54  1  0
 33 35  1  0
 33 34  1  1
 34 89  1  0
 34 87  1  0
 34 88  1  0
 35 36  1  6
 35 37  1  0
 37 38  1  0
 37 91  1  0
 37 90  1  0
 38 39  1  6
 38 54  1  0
 38 40  1  0
 41 40  1  1
 41 50  1  0
 41 51  1  0
 41 42  1  0
 42 92  1  0
 42 43  1  0
 42 93  1  0
 43 46  1  0
 43 44  1  1
 43 45  1  0
 45 94  1  0
 46 49  1  0
 46 47  1  6
 46 48  1  0
 48 96  1  0
 48 95  1  0
 48 97  1  0
 49 98  1  0
 49 50  1  0
 49 99  1  0
 51 53  1  0
 51 54  1  0
 51 52  1  1
 53100  1  0
 53101  1  0
 53102  1  0
 54 55  1  6
 56 57  1  1
 57103  1  0
 57104  1  0
 57105  1  0
 58 59  1  0
 59 60  1  6
 59 61  1  0
 59 62  1  0
 61108  1  0
 61106  1  0
 61107  1  0
 62 65  1  0
 62 63  1  1
 62 64  1  0
 64109  1  0
 65 68  1  0
 65 66  1  6
 65 67  1  0
 67110  1  0
 68 69  1  6
 68 70  1  0
 70111  1  0
M  END
>  <id>  (306) 
408

>  <scaffolds>  (306) 
['C1=C2CCCCC2C2CCC3CCCC3C2C1', 'C1=CCCCC1', 'C1=CCC2CCCCC2C1', 'C1=C2CCCC(OC3CCCCO3)C2C2CCC3CC(OC4CCCCO4)CC3C2C1', 'C1=C2CCCCC2C2CCC3CC(OC4CCCCO4)CC3C2C1', 'C1CCOCC1', 'C1CCCCC1', 'C1=C2CCCC(OC3OCCCC3OC3CCCCO3)C2C2CCC3C4CC5(CCCCO5)OC4CC3C2C1', 'C1=C2CCCCC2C2CCC3C4CC5(CCCCO5)OC4CC3C2C1', 'C1=C2CCCCC2CCC1', 'C1CCC(OC2CCCOC2)OC1']

>  <name>  (306) 
24S,25S)-3[beta],24-dihydroxyspirost-5-en-1[beta]-yl O-[alpha]- L-rhamnospyranosyl-(1[to]2)-[alpha]-L-arabinopyranoside

>  <formula>  (306) 
C38H60O13

>  <SMILES>  (306) 
[H][C@@]8(O[C@@H]1[C@@H](O)[C@@H](O)CO[C@@]1([H])O[C@@H]7C[C@H](O)CC6=CC[C@]2([H])[C@]([H])(CC[C@@]5(C)[C@@]2([H])C[C@]4([H])O[C@]3(C[C@H](O)[C@@H](C)CO3)[C@@H](C)[C@@]45[H])[C@]67C)O[C@@H](C)[C@H](O)[C@@H](O)[C@H]8O

>  <ChEMBL_id>  (306) 


>  <ZINC_id>  (306) 


>  <PubChem_id>  (306) 


>  <DrugBank_id>  (306) 


>  <CAS_no>  (306) 
790661-47-1

>  <references>  (306) 
[{'journal': {'name': 'Journal of Natural Products', 'id': 5}, 'title': 'Steroidal Glycosides from the Bulbs of Ornithogalum thyrsoides', 'year': 2004, 'start_page': 1690, 'volume': 67, 'issue': 10, 'doi': '10.1021/np040108i', 'isbn': '', 'despositor': {'code': 'NFA', 'first_name': 'Ngonidzashe', 'last_name': 'Faya', 'id': 21}, 'refauthors_set': [{'author': {'first_name': 'Minpei', 'initials': 'M', 'last_name': 'Kuroda', 'id': 644}, 'first_author': True, 'id': 893}, {'author': {'first_name': 'Yoshihiro ', 'initials': 'Y', 'last_name': 'Mimaki', 'id': 643}, 'first_author': None, 'id': 1204}, {'author': {'first_name': 'Kazutomo', 'initials': 'K', 'last_name': 'Ori', 'id': 793}, 'first_author': None, 'id': 1205}, {'author': {'first_name': 'Hiroshi', 'initials': 'H', 'last_name': 'Sakagami', 'id': 653}, 'first_author': None, 'id': 1206}, {'author': {'first_name': 'Yutaka', 'initials': 'Y', 'last_name': 'Sashida', 'id': 645}, 'first_author': None, 'id': 1207}], 'id': 308}]

>  <classifications>  (306) 
[{'classification': 'Saponins', 'id': 827}, {'classification': 'Spirostanol', 'id': 833}, {'classification': 'Steroids and steroid derivatives (Classyfire)', 'id': 942}]

>  <molecular_mass>  (306) 
724.87

$$$$
SANC00409_minRM1.pdb
     RDKit          3D

 52 55  0  0  1  0  0  0  0  0999 V2000
    0.3400    2.1450    1.4000 H   0  0  0  0  0  0  0  0  0  0  0  0
    0.6320    1.1720    0.9140 C   0  0  2  0  0  0  0  0  0  0  0  0
   -0.2870    0.0490    1.4600 C   0  0  1  0  0  0  0  0  0  0  0  0
   -0.0460   -0.0990    2.5480 H   0  0  0  0  0  0  0  0  0  0  0  0
   -1.6960    0.5500    1.3470 C   0  0  0  0  0  0  0  0  0  0  0  0
   -2.1740    1.4530    2.2810 C   0  0  0  0  0  0  0  0  0  0  0  0
   -3.4630    1.9810    2.1480 C   0  0  0  0  0  0  0  0  0  0  0  0
   -4.2760    1.6260    1.0930 C   0  0  0  0  0  0  0  0  0  0  0  0
   -3.7850    0.7180    0.1380 C   0  0  0  0  0  0  0  0  0  0  0  0
   -4.6060    0.4300   -0.8810 O   0  0  0  0  0  0  0  0  0  0  0  0
   -2.5060    0.1590    0.2780 C   0  0  0  0  0  0  0  0  0  0  0  0
   -2.0430   -0.8370   -0.6660 C   0  0  0  0  0  0  0  0  0  0  0  0
   -2.7100   -1.1040   -1.6850 O   0  0  0  0  0  0  0  0  0  0  0  0
   -0.8490   -1.5970   -0.3500 C   0  0  0  0  0  0  0  0  0  0  0  0
   -0.5300   -2.7360   -1.1030 C   0  0  0  0  0  0  0  0  0  0  0  0
   -1.2160   -3.1180   -2.1900 O   0  0  0  0  0  0  0  0  0  0  0  0
    0.5510   -3.5560   -0.7370 C   0  0  0  0  0  0  0  0  0  0  0  0
    1.2830   -3.2180    0.3830 C   0  0  0  0  0  0  0  0  0  0  0  0
    2.4400   -4.0860    0.7960 C   0  0  0  0  0  0  0  0  0  0  0  0
    3.5480   -3.5390    0.1360 O   0  0  0  0  0  0  0  0  0  0  0  0
    0.9930   -2.0690    1.1260 C   0  0  0  0  0  0  0  0  0  0  0  0
   -0.0450   -1.2370    0.7350 C   0  0  0  0  0  0  0  0  0  0  0  0
    0.4230    1.1990   -0.4760 O   0  0  0  0  0  0  0  0  0  0  0  0
    1.0690    2.2690   -1.1230 C   0  0  2  0  0  0  0  0  0  0  0  0
    0.7380    3.2660   -0.7220 H   0  0  0  0  0  0  0  0  0  0  0  0
    0.6560    2.1160   -2.6050 C   0  0  0  0  0  0  0  0  0  0  0  0
   -0.6150    2.6850   -2.7080 O   0  0  0  0  0  0  0  0  0  0  0  0
    2.6030    2.1140   -0.9630 C   0  0  1  0  0  0  0  0  0  0  0  0
    2.9620    1.1810   -1.4760 H   0  0  0  0  0  0  0  0  0  0  0  0
    3.2580    3.2600   -1.4180 O   0  0  0  0  0  0  0  0  0  0  0  0
    2.9440    2.0560    0.5480 C   0  0  2  0  0  0  0  0  0  0  0  0
    2.6980    3.0310    1.0500 H   0  0  0  0  0  0  0  0  0  0  0  0
    4.2820    1.7100    0.7310 O   0  0  0  0  0  0  0  0  0  0  0  0
    2.1340    0.8920    1.1750 C   0  0  1  0  0  0  0  0  0  0  0  0
    2.4560   -0.0800    0.7110 H   0  0  0  0  0  0  0  0  0  0  0  0
    2.2810    0.8960    2.5610 O   0  0  0  0  0  0  0  0  0  0  0  0
   -1.5550    1.7610    3.1290 H   0  0  0  0  0  0  0  0  0  0  0  0
   -3.8270    2.6970    2.8930 H   0  0  0  0  0  0  0  0  0  0  0  0
   -5.2840    2.0330    0.9900 H   0  0  0  0  0  0  0  0  0  0  0  0
   -4.1840   -0.2200   -1.4940 H   0  0  0  0  0  0  0  0  0  0  0  0
   -1.9740   -2.5040   -2.3520 H   0  0  0  0  0  0  0  0  0  0  0  0
    0.7960   -4.4330   -1.3430 H   0  0  0  0  0  0  0  0  0  0  0  0
    2.5740   -4.0870    1.9050 H   0  0  0  0  0  0  0  0  0  0  0  0
    2.2650   -5.1550    0.5250 H   0  0  0  0  0  0  0  0  0  0  0  0
    4.3020   -4.1070    0.3240 H   0  0  0  0  0  0  0  0  0  0  0  0
    1.5940   -1.8320    2.0090 H   0  0  0  0  0  0  0  0  0  0  0  0
    1.3570    2.6690   -3.2720 H   0  0  0  0  0  0  0  0  0  0  0  0
    0.7050    1.0520   -2.9310 H   0  0  0  0  0  0  0  0  0  0  0  0
   -1.1130    2.1740   -3.3550 H   0  0  0  0  0  0  0  0  0  0  0  0
    3.2840    3.2270   -2.3780 H   0  0  0  0  0  0  0  0  0  0  0  0
    4.8210    2.4340    0.3950 H   0  0  0  0  0  0  0  0  0  0  0  0
    3.2040    0.7010    2.7550 H   0  0  0  0  0  0  0  0  0  0  0  0
  2  1  1  1
  2 23  1  0
  2 34  1  0
  2  3  1  0
  3 22  1  0
  3  5  1  0
  3  4  1  1
  5 11  2  0
  5  6  1  0
  6  7  2  0
  6 37  1  0
  7  8  1  0
  7 38  1  0
  8  9  2  0
  8 39  1  0
  9 10  1  0
  9 11  1  0
 10 40  1  0
 11 12  1  0
 12 13  2  0
 12 14  1  0
 14 15  2  0
 14 22  1  0
 15 16  1  0
 15 17  1  0
 16 41  1  0
 17 42  1  0
 17 18  2  0
 18 19  1  0
 18 21  1  0
 19 20  1  0
 19 44  1  0
 19 43  1  0
 20 45  1  0
 21 22  2  0
 21 46  1  0
 23 24  1  0
 24 26  1  0
 24 28  1  0
 24 25  1  1
 26 47  1  0
 26 48  1  0
 26 27  1  0
 27 49  1  0
 28 29  1  6
 28 30  1  0
 28 31  1  0
 30 50  1  0
 31 33  1  0
 31 32  1  1
 31 34  1  0
 33 51  1  0
 34 35  1  6
 34 36  1  0
 36 52  1  0
M  END
>  <id>  (307) 
409

>  <scaffolds>  (307) 
['c1ccccc1', 'C1CCOCC1', 'O=C(c1ccccc1)c1ccccc1', 'c1ccc(Cc2ccccc2)cc1', 'O=C1c2ccccc2C(C2CCCCO2)c2ccccc21']

>  <name>  (307) 
Aloin A

>  <formula>  (307) 
C21H22O9

>  <SMILES>  (307) 
[H][C@@]4([C@@]3([H])c1cccc(O)c1C(=O)c2c(O)cc(CO)cc23)O[C@H](CO)[C@@H](O)[C@H](O)[C@H]4O

>  <ChEMBL_id>  (307) 
CHEMBL123026

>  <ZINC_id>  (307) 


>  <PubChem_id>  (307) 
 313325

>  <DrugBank_id>  (307) 


>  <CAS_no>  (307) 
1415-73-2

>  <references>  (307) 
[{'journal': {'name': 'Phytochemistry', 'id': 10}, 'title': "6'-O-Coumaroylaloesin from Aloe castanea - a taxonomic marker for Aloe section Anguialoe", 'year': 2000, 'start_page': 117, 'volume': 55, 'issue': 2, 'doi': '10.1016/S0031-9422(00)00252-1', 'isbn': '', 'despositor': {'code': 'DLP', 'first_name': 'David', 'last_name': 'Penkler', 'id': 23}, 'refauthors_set': [{'author': {'first_name': 'Fanie', 'initials': 'FR', 'last_name': 'Van Heerden', 'id': 634}, 'first_author': True, 'id': 894}, {'author': {'first_name': 'Alvaro', 'initials': 'AM', 'last_name': 'Viljoen', 'id': 655}, 'first_author': False, 'id': 895}, {'author': {'first_name': 'Ben-Erik', 'initials': 'B', 'last_name': 'van Wyk', 'id': 635}, 'first_author': False, 'id': 896}], 'id': 309}, {'journal': {'name': 'Phytochemical Analysis', 'id': 41}, 'title': 'A reversed-phase high-performance liquid chromatographic method for the determination of aloesin, aloeresin A, and anthraquinone in Aloe ferox', 'year': 2008, 'start_page': 122, 'volume': 19, 'issue': 2, 'doi': '10.1002/pca.1024', 'isbn': '', 'despositor': {'code': 'GU2', 'first_name': 'Gugu', 'last_name': 'Mahlangu', 'id': 24}, 'refauthors_set': [{'author': {'first_name': 'Michael', 'initials': 'M', 'last_name': 'Zahn', 'id': 868}, 'first_author': True, 'id': 1428}, {'author': {'first_name': 'Thao', 'initials': 'T', 'last_name': 'Trinh', 'id': 869}, 'first_author': None, 'id': 1429}, {'author': {'first_name': 'Mijeong Lee', 'initials': 'ML', 'last_name': 'Jeong', 'id': 870}, 'first_author': None, 'id': 1430}, {'author': {'first_name': 'Desheng', 'initials': 'D', 'last_name': 'Wang', 'id': 871}, 'first_author': None, 'id': 1431}, {'author': {'first_name': 'Padmapriya', 'initials': 'P', 'last_name': 'Abeysinghe', 'id': 872}, 'first_author': None, 'id': 1432}, {'author': {'first_name': 'Qi', 'initials': 'Q', 'last_name': 'Jia', 'id': 873}, 'first_author': None, 'id': 1433}, {'author': {'first_name': 'Wenwen', 'initials': 'W', 'last_name': 'Ma', 'id': 874}, 'first_author': None, 'id': 1434}], 'id': 406}]

>  <classifications>  (307) 
[{'classification': 'Coumaroylaloesin', 'id': 763}, {'classification': 'Glycoside', 'id': 781}, {'classification': 'Anthracenes (Classyfire)', 'id': 980}]

>  <molecular_mass>  (307) 
418.39

$$$$
SANC00410_minRM1.pdb
     RDKit          3D

 52 55  0  0  1  0  0  0  0  0999 V2000
    0.5880    1.9940    0.8650 H   0  0  0  0  0  0  0  0  0  0  0  0
    0.9390    0.9340    0.7160 C   0  0  2  0  0  0  0  0  0  0  0  0
   -0.0910   -0.0170    1.3700 C   0  0  2  0  0  0  0  0  0  0  0  0
   -0.1390    0.2320    2.4660 H   0  0  0  0  0  0  0  0  0  0  0  0
    0.3190   -1.4500    1.2320 C   0  0  0  0  0  0  0  0  0  0  0  0
    1.2070   -2.0080    2.1380 C   0  0  0  0  0  0  0  0  0  0  0  0
    1.6550   -3.3200    1.9610 C   0  0  0  0  0  0  0  0  0  0  0  0
    1.2200   -4.0900    0.9020 C   0  0  0  0  0  0  0  0  0  0  0  0
    0.2870   -3.5390    0.0090 C   0  0  0  0  0  0  0  0  0  0  0  0
   -0.1170   -4.3500   -0.9780 O   0  0  0  0  0  0  0  0  0  0  0  0
   -0.1820   -2.2280    0.1850 C   0  0  0  0  0  0  0  0  0  0  0  0
   -1.2430   -1.7250   -0.6670 C   0  0  0  0  0  0  0  0  0  0  0  0
   -1.6030   -2.3590   -1.6730 O   0  0  0  0  0  0  0  0  0  0  0  0
   -1.9330   -0.5130   -0.2670 C   0  0  0  0  0  0  0  0  0  0  0  0
   -3.1420   -0.1620   -0.8860 C   0  0  0  0  0  0  0  0  0  0  0  0
   -3.7040   -0.8770   -1.8730 O   0  0  0  0  0  0  0  0  0  0  0  0
   -3.8430    0.9890   -0.4850 C   0  0  0  0  0  0  0  0  0  0  0  0
   -3.3140    1.7650    0.5280 C   0  0  0  0  0  0  0  0  0  0  0  0
   -4.0340    3.0160    0.9590 C   0  0  0  0  0  0  0  0  0  0  0  0
   -4.7900    2.6200    2.0740 O   0  0  0  0  0  0  0  0  0  0  0  0
   -2.1100    1.4260    1.1530 C   0  0  0  0  0  0  0  0  0  0  0  0
   -1.4220    0.2920    0.7540 C   0  0  0  0  0  0  0  0  0  0  0  0
    0.9870    0.5860   -0.6480 O   0  0  0  0  0  0  0  0  0  0  0  0
    1.7390    1.5000   -1.4110 C   0  0  2  0  0  0  0  0  0  0  0  0
    1.3380    2.5460   -1.3310 H   0  0  0  0  0  0  0  0  0  0  0  0
    1.6210    0.9950   -2.8670 C   0  0  0  0  0  0  0  0  0  0  0  0
    0.4490    1.5090   -3.4260 O   0  0  0  0  0  0  0  0  0  0  0  0
    3.2170    1.4520   -0.9570 C   0  0  1  0  0  0  0  0  0  0  0  0
    3.6630    0.4450   -1.1710 H   0  0  0  0  0  0  0  0  0  0  0  0
    3.9450    2.4880   -1.5510 O   0  0  0  0  0  0  0  0  0  0  0  0
    3.2900    1.7680    0.5590 C   0  0  2  0  0  0  0  0  0  0  0  0
    2.9820    2.8280    0.7630 H   0  0  0  0  0  0  0  0  0  0  0  0
    4.5720    1.4970    1.0410 O   0  0  0  0  0  0  0  0  0  0  0  0
    2.3630    0.7730    1.3000 C   0  0  1  0  0  0  0  0  0  0  0  0
    2.7480   -0.2730    1.1640 H   0  0  0  0  0  0  0  0  0  0  0  0
    2.2620    1.1310    2.6430 O   0  0  0  0  0  0  0  0  0  0  0  0
    1.5690   -1.4340    2.9940 H   0  0  0  0  0  0  0  0  0  0  0  0
    2.3710   -3.7400    2.6760 H   0  0  0  0  0  0  0  0  0  0  0  0
    1.5900   -5.1060    0.7430 H   0  0  0  0  0  0  0  0  0  0  0  0
   -0.7640   -3.8710   -1.5520 H   0  0  0  0  0  0  0  0  0  0  0  0
   -3.1210   -1.6250   -2.1120 H   0  0  0  0  0  0  0  0  0  0  0  0
   -4.7840    1.2470   -0.9830 H   0  0  0  0  0  0  0  0  0  0  0  0
   -3.3150    3.8310    1.2160 H   0  0  0  0  0  0  0  0  0  0  0  0
   -4.6690    3.4290    0.1380 H   0  0  0  0  0  0  0  0  0  0  0  0
   -5.3520    3.3640    2.3120 H   0  0  0  0  0  0  0  0  0  0  0  0
   -1.7190    2.0670    1.9470 H   0  0  0  0  0  0  0  0  0  0  0  0
    2.4650    1.3920   -3.4830 H   0  0  0  0  0  0  0  0  0  0  0  0
    1.7060   -0.1140   -2.9260 H   0  0  0  0  0  0  0  0  0  0  0  0
   -0.1850    0.7730   -3.5210 H   0  0  0  0  0  0  0  0  0  0  0  0
    3.9940    2.3140   -2.4960 H   0  0  0  0  0  0  0  0  0  0  0  0
    5.1700    2.1450    0.6460 H   0  0  0  0  0  0  0  0  0  0  0  0
    3.1300    1.0350    3.0450 H   0  0  0  0  0  0  0  0  0  0  0  0
  2  1  1  6
  2 23  1  0
  2 34  1  0
  2  3  1  0
  3 22  1  0
  3  5  1  0
  3  4  1  1
  5 11  2  0
  5  6  1  0
  6  7  2  0
  6 37  1  0
  7  8  1  0
  7 38  1  0
  8  9  2  0
  8 39  1  0
  9 10  1  0
  9 11  1  0
 10 40  1  0
 11 12  1  0
 12 13  2  0
 12 14  1  0
 14 15  2  0
 14 22  1  0
 15 16  1  0
 15 17  1  0
 16 41  1  0
 17 42  1  0
 17 18  2  0
 18 19  1  0
 18 21  1  0
 19 44  1  0
 19 43  1  0
 19 20  1  0
 20 45  1  0
 21 22  2  0
 21 46  1  0
 23 24  1  0
 24 26  1  0
 24 25  1  6
 24 28  1  0
 26 47  1  0
 26 27  1  0
 26 48  1  0
 27 49  1  0
 28 30  1  0
 28 29  1  1
 28 31  1  0
 30 50  1  0
 31 32  1  6
 31 33  1  0
 31 34  1  0
 33 51  1  0
 34 35  1  1
 34 36  1  0
 36 52  1  0
M  END
>  <id>  (308) 
410

>  <scaffolds>  (308) 
['c1ccccc1', 'C1CCOCC1', 'O=C(c1ccccc1)c1ccccc1', 'c1ccc(Cc2ccccc2)cc1', 'O=C1c2ccccc2C(C2CCCCO2)c2ccccc21']

>  <name>  (308) 
Aloin B

>  <formula>  (308) 
C21H22O9

>  <SMILES>  (308) 
[H][C@@]4([C@]3([H])c1cccc(O)c1C(=O)c2c(O)cc(CO)cc23)O[C@H](CO)[C@@H](O)[C@H](O)[C@H]4O

>  <ChEMBL_id>  (308) 


>  <ZINC_id>  (308) 


>  <PubChem_id>  (308) 


>  <DrugBank_id>  (308) 


>  <CAS_no>  (308) 
28371-16-6

>  <references>  (308) 
[{'journal': {'name': 'Phytochemistry', 'id': 10}, 'title': "6'-O-Coumaroylaloesin from Aloe castanea - a taxonomic marker for Aloe section Anguialoe", 'year': 2000, 'start_page': 117, 'volume': 55, 'issue': 2, 'doi': '10.1016/S0031-9422(00)00252-1', 'isbn': '', 'despositor': {'code': 'DLP', 'first_name': 'David', 'last_name': 'Penkler', 'id': 23}, 'refauthors_set': [{'author': {'first_name': 'Fanie', 'initials': 'FR', 'last_name': 'Van Heerden', 'id': 634}, 'first_author': True, 'id': 894}, {'author': {'first_name': 'Alvaro', 'initials': 'AM', 'last_name': 'Viljoen', 'id': 655}, 'first_author': False, 'id': 895}, {'author': {'first_name': 'Ben-Erik', 'initials': 'B', 'last_name': 'van Wyk', 'id': 635}, 'first_author': False, 'id': 896}], 'id': 309}]

>  <classifications>  (308) 
[{'classification': 'Coumaroylaloesin', 'id': 763}, {'classification': 'Glycoside', 'id': 781}, {'classification': 'Anthracenes (Classyfire)', 'id': 980}]

>  <molecular_mass>  (308) 
418.39

$$$$
SANC00411_minRM1.pdb
     RDKit          3D

 50 52  0  0  1  0  0  0  0  0999 V2000
   -2.6950    4.9720    0.3100 C   0  0  0  0  0  0  0  0  0  0  0  0
   -2.8190    3.4810    0.4500 C   0  0  0  0  0  0  0  0  0  0  0  0
   -3.1150    2.9520    1.4990 O   0  0  0  0  0  0  0  0  0  0  0  0
   -2.5550    2.7020   -0.8180 C   0  0  0  0  0  0  0  0  0  0  0  0
   -2.6380    1.2300   -0.5900 C   0  0  0  0  0  0  0  0  0  0  0  0
   -3.7710    0.5280   -0.4710 C   0  0  0  0  0  0  0  0  0  0  0  0
   -3.7280   -0.9220   -0.2680 C   0  0  0  0  0  0  0  0  0  0  0  0
   -4.7630   -1.5730   -0.2570 O   0  0  0  0  0  0  0  0  0  0  0  0
   -2.3870   -1.4900   -0.1190 C   0  0  0  0  0  0  0  0  0  0  0  0
   -2.1680   -2.8430    0.1890 C   0  0  0  0  0  0  0  0  0  0  0  0
   -3.2980   -3.7770    0.4280 C   0  0  0  0  0  0  0  0  0  0  0  0
   -0.8760   -3.3400    0.2570 C   0  0  0  0  0  0  0  0  0  0  0  0
    0.2150   -2.4830    0.0520 C   0  0  0  0  0  0  0  0  0  0  0  0
    1.4230   -3.0630    0.1560 O   0  0  0  0  0  0  0  0  0  0  0  0
    0.0420   -1.1140   -0.1780 C   0  0  0  0  0  0  0  0  0  0  0  0
    1.2270   -0.1970   -0.2420 C   0  0  2  0  0  0  0  0  0  0  0  0
    1.0030    0.7700   -0.7610 H   0  0  0  0  0  0  0  0  0  0  0  0
    2.2110   -0.9230   -0.9540 O   0  0  0  0  0  0  0  0  0  0  0  0
    3.4450   -0.2800   -1.1210 C   0  0  1  0  0  0  0  0  0  0  0  0
    3.3210    1.0000   -1.9730 C   0  0  0  0  0  0  0  0  0  0  0  0
    2.8140    0.5580   -3.1980 O   0  0  0  0  0  0  0  0  0  0  0  0
    4.0690   -0.0260    0.2720 C   0  0  1  0  0  0  0  0  0  0  0  0
    4.2600   -1.0180    0.7670 H   0  0  0  0  0  0  0  0  0  0  0  0
    5.2400    0.7100    0.0900 O   0  0  0  0  0  0  0  0  0  0  0  0
    3.0990    0.8020    1.1460 C   0  0  2  0  0  0  0  0  0  0  0  0
    2.9670    1.8370    0.7330 H   0  0  0  0  0  0  0  0  0  0  0  0
    3.5720    0.8300    2.4600 O   0  0  0  0  0  0  0  0  0  0  0  0
    1.7350    0.0650    1.2070 C   0  0  1  0  0  0  0  0  0  0  0  0
    1.8490   -0.9070    1.7640 H   0  0  0  0  0  0  0  0  0  0  0  0
    0.7930    0.9030    1.7930 O   0  0  0  0  0  0  0  0  0  0  0  0
   -1.2770   -0.6530   -0.2790 C   0  0  0  0  0  0  0  0  0  0  0  0
   -1.3890    0.6810   -0.5490 O   0  0  0  0  0  0  0  0  0  0  0  0
   -2.7980    5.4950    1.2720 H   0  0  0  0  0  0  0  0  0  0  0  0
   -1.7210    5.2650   -0.1040 H   0  0  0  0  0  0  0  0  0  0  0  0
   -3.4690    5.3710   -0.3600 H   0  0  0  0  0  0  0  0  0  0  0  0
   -3.2900    3.0030   -1.5930 H   0  0  0  0  0  0  0  0  0  0  0  0
   -1.5680    3.0000   -1.2340 H   0  0  0  0  0  0  0  0  0  0  0  0
   -4.7520    1.0070   -0.5160 H   0  0  0  0  0  0  0  0  0  0  0  0
   -3.9150   -3.9060   -0.4830 H   0  0  0  0  0  0  0  0  0  0  0  0
   -2.9790   -4.7850    0.7410 H   0  0  0  0  0  0  0  0  0  0  0  0
   -3.9760   -3.4050    1.2140 H   0  0  0  0  0  0  0  0  0  0  0  0
   -0.6850   -4.3950    0.4720 H   0  0  0  0  0  0  0  0  0  0  0  0
    2.1090   -2.5080   -0.2660 H   0  0  0  0  0  0  0  0  0  0  0  0
    4.0440   -1.0480   -1.6770 H   0  0  0  0  0  0  0  0  0  0  0  0
    2.6540    1.7570   -1.5030 H   0  0  0  0  0  0  0  0  0  0  0  0
    4.3180    1.4860   -2.0850 H   0  0  0  0  0  0  0  0  0  0  0  0
    2.7880    1.3150   -3.7880 H   0  0  0  0  0  0  0  0  0  0  0  0
    5.8950    0.3590    0.7090 H   0  0  0  0  0  0  0  0  0  0  0  0
    4.2380    1.5210    2.5120 H   0  0  0  0  0  0  0  0  0  0  0  0
    0.9520    0.8930    2.7470 H   0  0  0  0  0  0  0  0  0  0  0  0
  1 35  1  0
  1 34  1  0
  1  2  1  0
  1 33  1  0
  2  4  1  0
  2  3  2  0
  4 36  1  0
  4 37  1  0
  4  5  1  0
  5 32  1  0
  5  6  2  0
  6 38  1  0
  6  7  1  0
  7  8  2  0
  7  9  1  0
  9 31  2  0
  9 10  1  0
 10 12  2  0
 10 11  1  0
 11 39  1  0
 11 40  1  0
 11 41  1  0
 12 13  1  0
 12 42  1  0
 13 15  2  0
 13 14  1  0
 14 43  1  0
 15 31  1  0
 15 16  1  0
 16 18  1  0
 16 17  1  6
 16 28  1  0
 18 19  1  0
 19 20  1  0
 19 44  1  6
 19 22  1  0
 20 21  1  0
 20 46  1  0
 20 45  1  0
 21 47  1  0
 22 24  1  0
 22 23  1  1
 22 25  1  0
 24 48  1  0
 25 26  1  6
 25 28  1  0
 25 27  1  0
 27 49  1  0
 28 29  1  1
 28 30  1  0
 30 50  1  0
 31 32  1  0
M  END
>  <id>  (309) 
411

>  <scaffolds>  (309) 
['c1ccccc1', 'C1CCOCC1', 'O=c1ccoc2ccccc12', 'O=c1ccoc2c(C3CCCCO3)cccc12']

>  <name>  (309) 
Aloeresin

>  <formula>  (309) 
C19H22O9

>  <SMILES>  (309) 
CC(=O)Cc3cc(=O)c2c(C)cc(O)c([C@@H]1OC(CO)[C@@H](O)[C@H](O)[C@H]1O)c2o3

>  <ChEMBL_id>  (309) 


>  <ZINC_id>  (309) 


>  <PubChem_id>  (309) 


>  <DrugBank_id>  (309) 


>  <CAS_no>  (309) 
30861-27-9

>  <references>  (309) 
[{'journal': {'name': 'Phytochemistry', 'id': 10}, 'title': "6'-O-Coumaroylaloesin from Aloe castanea - a taxonomic marker for Aloe section Anguialoe", 'year': 2000, 'start_page': 117, 'volume': 55, 'issue': 2, 'doi': '10.1016/S0031-9422(00)00252-1', 'isbn': '', 'despositor': {'code': 'DLP', 'first_name': 'David', 'last_name': 'Penkler', 'id': 23}, 'refauthors_set': [{'author': {'first_name': 'Fanie', 'initials': 'FR', 'last_name': 'Van Heerden', 'id': 634}, 'first_author': True, 'id': 894}, {'author': {'first_name': 'Alvaro', 'initials': 'AM', 'last_name': 'Viljoen', 'id': 655}, 'first_author': False, 'id': 895}, {'author': {'first_name': 'Ben-Erik', 'initials': 'B', 'last_name': 'van Wyk', 'id': 635}, 'first_author': False, 'id': 896}], 'id': 309}]

>  <classifications>  (309) 
[{'classification': 'Coumaroylaloesin', 'id': 763}, {'classification': 'Glycoside', 'id': 781}, {'classification': 'Organooxygen compounds (Classyfire)', 'id': 954}]

>  <molecular_mass>  (309) 
394.37

$$$$
SANC00412_minRM1.pdb
     RDKit          3D

 67 70  0  0  1  0  0  0  0  0999 V2000
    1.0590    2.5390   -4.9920 C   0  0  0  0  0  0  0  0  0  0  0  0
    1.6710    2.5240   -3.6220 C   0  0  0  0  0  0  0  0  0  0  0  0
    2.8680    2.5310   -3.4420 O   0  0  0  0  0  0  0  0  0  0  0  0
    0.6740    2.4990   -2.4860 C   0  0  0  0  0  0  0  0  0  0  0  0
    1.3500    2.6370   -1.1620 C   0  0  0  0  0  0  0  0  0  0  0  0
    1.7300    3.7910   -0.6030 C   0  0  0  0  0  0  0  0  0  0  0  0
    2.3680    3.8020    0.7140 C   0  0  0  0  0  0  0  0  0  0  0  0
    2.5980    4.8590    1.2840 O   0  0  0  0  0  0  0  0  0  0  0  0
    2.6650    2.4780    1.2690 C   0  0  0  0  0  0  0  0  0  0  0  0
    3.3880    2.3010    2.4580 C   0  0  0  0  0  0  0  0  0  0  0  0
    3.9670    3.4500    3.1980 C   0  0  0  0  0  0  0  0  0  0  0  0
    3.5840    1.0250    2.9630 C   0  0  0  0  0  0  0  0  0  0  0  0
    3.0770   -0.0860    2.2800 C   0  0  0  0  0  0  0  0  0  0  0  0
    3.3680   -1.2840    2.8500 O   0  0  0  0  0  0  0  0  0  0  0  0
    2.3960    0.0370    1.0680 C   0  0  0  0  0  0  0  0  0  0  0  0
    1.9450   -1.1620    0.2860 C   0  0  2  0  0  0  0  0  0  0  0  0
    1.2740   -0.8820   -0.5710 H   0  0  0  0  0  0  0  0  0  0  0  0
    1.2340   -1.9700    1.1980 O   0  0  0  0  0  0  0  0  0  0  0  0
    0.7470   -3.1780    0.6860 C   0  0  1  0  0  0  0  0  0  0  0  0
   -0.2860   -2.9760   -0.4370 C   0  0  0  0  0  0  0  0  0  0  0  0
   -1.3730   -2.3050    0.1730 O   0  0  0  0  0  0  0  0  0  0  0  0
   -2.3860   -1.9190   -0.6470 C   0  0  0  0  0  0  0  0  0  0  0  0
   -2.3100   -2.1420   -1.8450 O   0  0  0  0  0  0  0  0  0  0  0  0
   -3.4780   -1.2490    0.0650 C   0  0  0  0  0  0  0  0  0  0  0  0
   -4.5470   -0.8490   -0.6380 C   0  0  0  0  0  0  0  0  0  0  0  0
   -5.7010   -0.1710   -0.0710 C   0  0  0  0  0  0  0  0  0  0  0  0
   -5.7970    0.1250    1.2880 C   0  0  0  0  0  0  0  0  0  0  0  0
   -6.9040    0.7980    1.7860 C   0  0  0  0  0  0  0  0  0  0  0  0
   -7.9220    1.1660    0.9050 C   0  0  0  0  0  0  0  0  0  0  0  0
   -9.0630    1.7710    1.3320 O   0  0  0  0  0  0  0  0  0  0  0  0
   -7.8590    0.8530   -0.4550 C   0  0  0  0  0  0  0  0  0  0  0  0
   -6.7440    0.1880   -0.9330 C   0  0  0  0  0  0  0  0  0  0  0  0
    1.9440   -4.0380    0.2120 C   0  0  1  0  0  0  0  0  0  0  0  0
    2.6180   -4.2400    1.0910 H   0  0  0  0  0  0  0  0  0  0  0  0
    1.4210   -5.2120   -0.3260 O   0  0  0  0  0  0  0  0  0  0  0  0
    2.7290   -3.2670   -0.8740 C   0  0  2  0  0  0  0  0  0  0  0  0
    2.1010   -3.0970   -1.7890 H   0  0  0  0  0  0  0  0  0  0  0  0
    3.8980   -3.9710   -1.1710 O   0  0  0  0  0  0  0  0  0  0  0  0
    3.1880   -1.9190   -0.2620 C   0  0  1  0  0  0  0  0  0  0  0  0
    3.9430   -2.1020    0.5490 H   0  0  0  0  0  0  0  0  0  0  0  0
    3.6860   -1.1080   -1.2800 O   0  0  0  0  0  0  0  0  0  0  0  0
    2.1980    1.3440    0.5950 C   0  0  0  0  0  0  0  0  0  0  0  0
    1.4820    1.4180   -0.5660 O   0  0  0  0  0  0  0  0  0  0  0  0
    1.8150    2.4680   -5.7890 H   0  0  0  0  0  0  0  0  0  0  0  0
    0.3670    1.6970   -5.1350 H   0  0  0  0  0  0  0  0  0  0  0  0
    0.4910    3.4640   -5.1700 H   0  0  0  0  0  0  0  0  0  0  0  0
   -0.0710    3.3170   -2.6080 H   0  0  0  0  0  0  0  0  0  0  0  0
    0.0720    1.5650   -2.5540 H   0  0  0  0  0  0  0  0  0  0  0  0
    1.5750    4.7500   -1.1020 H   0  0  0  0  0  0  0  0  0  0  0  0
    3.1770    4.1060    3.6000 H   0  0  0  0  0  0  0  0  0  0  0  0
    4.5860    3.1530    4.0590 H   0  0  0  0  0  0  0  0  0  0  0  0
    4.6010    4.0790    2.5580 H   0  0  0  0  0  0  0  0  0  0  0  0
    4.1420    0.8670    3.8920 H   0  0  0  0  0  0  0  0  0  0  0  0
    2.5450   -1.7970    2.9090 H   0  0  0  0  0  0  0  0  0  0  0  0
    0.2610   -3.6460    1.5820 H   0  0  0  0  0  0  0  0  0  0  0  0
    0.1200   -2.3890   -1.2920 H   0  0  0  0  0  0  0  0  0  0  0  0
   -0.6240   -3.9510   -0.8580 H   0  0  0  0  0  0  0  0  0  0  0  0
   -3.3660   -1.1170    1.1460 H   0  0  0  0  0  0  0  0  0  0  0  0
   -4.5860   -1.0290   -1.7240 H   0  0  0  0  0  0  0  0  0  0  0  0
   -4.9920   -0.1520    1.9770 H   0  0  0  0  0  0  0  0  0  0  0  0
   -6.9760    1.0360    2.8510 H   0  0  0  0  0  0  0  0  0  0  0  0
   -8.8020    2.5180    1.8920 H   0  0  0  0  0  0  0  0  0  0  0  0
   -8.6820    1.1280   -1.1220 H   0  0  0  0  0  0  0  0  0  0  0  0
   -6.6860   -0.0490   -2.0010 H   0  0  0  0  0  0  0  0  0  0  0  0
    2.1310   -5.8630   -0.3200 H   0  0  0  0  0  0  0  0  0  0  0  0
    3.7170   -4.5140   -1.9420 H   0  0  0  0  0  0  0  0  0  0  0  0
    4.5690   -1.4280   -1.4920 H   0  0  0  0  0  0  0  0  0  0  0  0
  1 44  1  0
  1 46  1  0
  1 45  1  0
  1  2  1  0
  2  3  2  0
  2  4  1  0
  4 47  1  0
  4 48  1  0
  4  5  1  0
  5  6  2  0
  5 43  1  0
  6 49  1  0
  6  7  1  0
  7  9  1  0
  7  8  2  0
  9 42  2  0
  9 10  1  0
 10 12  2  0
 10 11  1  0
 11 52  1  0
 11 50  1  0
 11 51  1  0
 12 13  1  0
 12 53  1  0
 13 15  2  0
 13 14  1  0
 14 54  1  0
 15 16  1  0
 15 42  1  0
 16 17  1  6
 16 39  1  0
 16 18  1  0
 18 19  1  0
 19 20  1  0
 19 33  1  0
 19 55  1  1
 20 56  1  0
 20 57  1  0
 20 21  1  0
 21 22  1  0
 22 23  2  0
 22 24  1  0
 24 25  2  0
 24 58  1  0
 25 59  1  0
 25 26  1  0
 26 32  2  0
 26 27  1  0
 27 28  2  0
 27 60  1  0
 28 29  1  0
 28 61  1  0
 29 31  2  0
 29 30  1  0
 30 62  1  0
 31 63  1  0
 31 32  1  0
 32 64  1  0
 33 36  1  0
 33 35  1  0
 33 34  1  1
 35 65  1  0
 36 37  1  6
 36 38  1  0
 36 39  1  0
 38 66  1  0
 39 41  1  0
 39 40  1  1
 41 67  1  0
 42 43  1  0
M  END
>  <id>  (310) 
412

>  <scaffolds>  (310) 
['c1ccccc1', 'C1CCOCC1', 'O=c1ccoc2ccccc12', 'O=c1ccoc2c(C3CCCCO3)cccc12', 'O=C(C=Cc1ccccc1)OCC1CCCC(c2cccc3c(=O)ccoc23)O1']

>  <name>  (310) 
4H-1-Benzopyran-4-one, 7-hydroxy-8-[6-O-[(2E)-3-(4-hydroxyphenyl)-1-oxo-2-propen-1-yl]-[beta]-D-glucopyranosyl]-5-methyl-2-(2-oxopropyl)-

>  <formula>  (310) 
C28H28O11

>  <SMILES>  (310) 
CC(=O)Cc4cc(=O)c3c(C)cc(O)c([C@@H]2OC(COC(=O)/C=C/c1ccc(O)cc1)[C@@H](O)[C@H](O)[C@H]2O)c3o4

>  <ChEMBL_id>  (310) 


>  <ZINC_id>  (310) 


>  <PubChem_id>  (310) 


>  <DrugBank_id>  (310) 


>  <CAS_no>  (310) 
313944-92-2

>  <references>  (310) 
[{'journal': {'name': 'Phytochemistry', 'id': 10}, 'title': "6'-O-Coumaroylaloesin from Aloe castanea - a taxonomic marker for Aloe section Anguialoe", 'year': 2000, 'start_page': 117, 'volume': 55, 'issue': 2, 'doi': '10.1016/S0031-9422(00)00252-1', 'isbn': '', 'despositor': {'code': 'DLP', 'first_name': 'David', 'last_name': 'Penkler', 'id': 23}, 'refauthors_set': [{'author': {'first_name': 'Fanie', 'initials': 'FR', 'last_name': 'Van Heerden', 'id': 634}, 'first_author': True, 'id': 894}, {'author': {'first_name': 'Alvaro', 'initials': 'AM', 'last_name': 'Viljoen', 'id': 655}, 'first_author': False, 'id': 895}, {'author': {'first_name': 'Ben-Erik', 'initials': 'B', 'last_name': 'van Wyk', 'id': 635}, 'first_author': False, 'id': 896}], 'id': 309}]

>  <classifications>  (310) 
[{'classification': 'Coumaroylaloesin', 'id': 763}, {'classification': 'Glycoside', 'id': 781}, {'classification': 'Organooxygen compounds (Classyfire)', 'id': 954}]

>  <molecular_mass>  (310) 
540.51

$$$$
SANC00413_minRM1.pdb
     RDKit          3D

 40 44  0  0  0  0  0  0  0  0999 V2000
   -6.7040   -1.0520    0.0090 C   0  0  0  0  0  0  0  0  0  0  0  0
   -5.7600   -0.0480   -0.0060 C   0  0  0  0  0  0  0  0  0  0  0  0
   -4.4100   -0.4010   -0.0030 C   0  0  0  0  0  0  0  0  0  0  0  0
   -4.0480   -1.7730    0.0030 C   0  0  0  0  0  0  0  0  0  0  0  0
   -4.9830   -2.8080    0.0180 C   0  0  0  0  0  0  0  0  0  0  0  0
   -6.3070   -2.4080    0.0200 C   0  0  0  0  0  0  0  0  0  0  0  0
   -7.2650   -3.3770   -0.0580 O   0  0  0  0  0  0  0  0  0  0  0  0
   -2.6490   -1.8470    0.0030 N   0  0  0  0  0  0  0  0  0  0  0  0
   -2.1340   -0.5580   -0.0010 C   0  0  0  0  0  0  0  0  0  0  0  0
   -3.1840    0.3540   -0.0020 C   0  0  0  0  0  0  0  0  0  0  0  0
   -3.1110    1.7930   -0.0080 C   0  0  0  0  0  0  0  0  0  0  0  0
   -4.0900    2.5280   -0.0170 O   0  0  0  0  0  0  0  0  0  0  0  0
   -1.7680    2.4230   -0.0040 C   0  0  0  0  0  0  0  0  0  0  0  0
   -0.5700    1.7850    0.0010 N   0  0  0  0  0  0  0  0  0  0  0  0
    0.3940    2.7910    0.0040 C   0  0  0  0  0  0  0  0  0  0  0  0
   -0.2230    4.0500   -0.0020 C   0  0  0  0  0  0  0  0  0  0  0  0
   -1.5890    3.8070   -0.0070 N   0  0  0  0  0  0  0  0  0  0  0  0
    1.7930    2.5010    0.0150 C   0  0  0  0  0  0  0  0  0  0  0  0
    2.8120    3.4400    0.0190 C   0  0  0  0  0  0  0  0  0  0  0  0
    4.0430    2.7770    0.0120 N   0  0  0  0  0  0  0  0  0  0  0  0
    3.8050    1.4050    0.0160 C   0  0  0  0  0  0  0  0  0  0  0  0
    2.3960    1.1990    0.0090 C   0  0  0  0  0  0  0  0  0  0  0  0
    1.8870   -0.1020   -0.0080 C   0  0  0  0  0  0  0  0  0  0  0  0
    2.7750   -1.1590   -0.0160 C   0  0  0  0  0  0  0  0  0  0  0  0
    4.1500   -0.9050   -0.0030 C   0  0  0  0  0  0  0  0  0  0  0  0
    4.7170    0.3400    0.0190 C   0  0  0  0  0  0  0  0  0  0  0  0
    5.3410   -2.4450   -0.0110 Br  0  0  0  0  0  0  0  0  0  0  0  0
   -7.7700   -0.8100    0.0050 H   0  0  0  0  0  0  0  0  0  0  0  0
   -6.0610    1.0040   -0.0100 H   0  0  0  0  0  0  0  0  0  0  0  0
   -4.6940   -3.8610    0.0090 H   0  0  0  0  0  0  0  0  0  0  0  0
   -7.6280   -3.4570    0.8360 H   0  0  0  0  0  0  0  0  0  0  0  0
   -2.1210   -2.7050   -0.0100 H   0  0  0  0  0  0  0  0  0  0  0  0
   -1.0500   -0.3870    0.0070 H   0  0  0  0  0  0  0  0  0  0  0  0
    0.2040    5.0460   -0.0060 H   0  0  0  0  0  0  0  0  0  0  0  0
   -2.3220    4.5050   -0.0170 H   0  0  0  0  0  0  0  0  0  0  0  0
    2.7460    4.5250    0.0240 H   0  0  0  0  0  0  0  0  0  0  0  0
    4.9520    3.2110    0.0260 H   0  0  0  0  0  0  0  0  0  0  0  0
    0.8050   -0.2830   -0.0030 H   0  0  0  0  0  0  0  0  0  0  0  0
    2.4190   -2.1930   -0.0070 H   0  0  0  0  0  0  0  0  0  0  0  0
    5.7970    0.4980    0.0290 H   0  0  0  0  0  0  0  0  0  0  0  0
  1  2  2  0
  1 28  1  0
  1  6  1  0
  2 29  1  0
  2  3  1  0
  3 10  1  0
  3  4  2  0
  4  8  1  0
  4  5  1  0
  5 30  1  0
  5  6  2  0
  6  7  1  0
  7 31  1  0
  8 32  1  0
  8  9  1  0
  9 10  2  0
  9 33  1  0
 10 11  1  0
 11 12  2  0
 11 13  1  0
 13 17  1  0
 13 14  2  0
 14 15  1  0
 15 16  2  0
 15 18  1  0
 16 17  1  0
 16 34  1  0
 17 35  1  0
 18 22  1  0
 18 19  2  0
 19 20  1  0
 19 36  1  0
 20 21  1  0
 20 37  1  0
 21 22  2  0
 21 26  1  0
 22 23  1  0
 23 24  2  0
 23 38  1  0
 24 39  1  0
 24 25  1  0
 25 27  1  0
 25 26  2  0
 26 40  1  0
M  END
>  <id>  (311) 
413

>  <scaffolds>  (311) 
['c1ccccc1', 'c1ccc2[nH]ccc2c1', 'O=C(c1nc(-c2c[nH]c3ccccc23)c[nH]1)c1c[nH]c2ccccc12', 'c1ccc2c(Cc3nc(-c4c[nH]c5ccccc45)c[nH]3)c[nH]c2c1']

>  <name>  (311) 
Bromotopsentin

>  <formula>  (311) 
C20H13BrN4O2

>  <SMILES>  (311) 
C1=CC2=C(C=C1O)NC=C2C(=O)C3=NC(=CN3)C4=CNC5=C4C=CC(=C5)Br

>  <ChEMBL_id>  (311) 
CHEMBL436760

>  <ZINC_id>  (311) 


>  <PubChem_id>  (311) 
 183528

>  <DrugBank_id>  (311) 


>  <CAS_no>  (311) 
112515-44-3

>  <references>  (311) 
[{'journal': {'name': 'The Journal of Biological Chemistry', 'id': 29}, 'title': 'Methicillin-resistant Staphylococcus aureus (MRSA) Pyruvate Kinase as a Target for Bis-indole Alkaloids with Antibacterial Activities', 'year': 2011, 'start_page': 44716, 'volume': 286, 'issue': 52, 'doi': '10.1074/jbc.M111.289033', 'isbn': '', 'despositor': {'code': 'TMM', 'first_name': 'Thommas', 'last_name': 'Musyoka', 'id': 22}, 'refauthors_set': [{'author': {'first_name': '', 'initials': 'R', 'last_name': 'Zoraghi', 'id': 656}, 'first_author': True, 'id': 897}, {'author': {'first_name': '', 'initials': 'L', 'last_name': 'Worrall', 'id': 657}, 'first_author': False, 'id': 898}, {'author': {'first_name': 'Raymond', 'initials': 'H', 'last_name': 'See', 'id': 658}, 'first_author': False, 'id': 899}, {'author': {'first_name': '', 'initials': 'W', 'last_name': 'Strangman', 'id': 659}, 'first_author': False, 'id': 900}, {'author': {'first_name': 'Wendy', 'initials': 'WL', 'last_name': 'Popplewell', 'id': 455}, 'first_author': False, 'id': 901}, {'author': {'first_name': '', 'initials': 'H', 'last_name': 'Gong', 'id': 660}, 'first_author': False, 'id': 902}, {'author': {'first_name': 'Toufiek', 'initials': 'T', 'last_name': 'Samaai', 'id': 517}, 'first_author': False, 'id': 903}, {'author': {'first_name': 'Richard', 'initials': 'D', 'last_name': 'Swayze', 'id': 661}, 'first_author': False, 'id': 904}, {'author': {'first_name': '', 'initials': 'S', 'last_name': 'Kaur', 'id': 662}, 'first_author': False, 'id': 905}, {'author': {'first_name': '', 'initials': 'M', 'last_name': 'Vuckovic', 'id': 663}, 'first_author': False, 'id': 906}, {'author': {'first_name': 'Brett', 'initials': 'B', 'last_name': 'Finlay', 'id': 664}, 'first_author': False, 'id': 907}, {'author': {'first_name': 'Robert', 'initials': 'C', 'last_name': 'Brunham', 'id': 665}, 'first_author': False, 'id': 908}, {'author': {'first_name': 'William', 'initials': 'R', 'last_name': 'McMaster', 'id': 666}, 'first_author': False, 'id': 909}, {'author': {'first_name': 'Michael', 'initials': 'MT', 'last_name': 'Davies-Coleman', 'id': 449}, 'first_author': False, 'id': 910}, {'author': {'first_name': 'Natalie', 'initials': 'C', 'last_name': 'Strynadka', 'id': 667}, 'first_author': False, 'id': 911}, {'author': {'first_name': '', 'initials': 'RJ', 'last_name': 'Andersen', 'id': 580}, 'first_author': False, 'id': 912}, {'author': {'first_name': 'Neil', 'initials': 'E', 'last_name': 'Reiner', 'id': 668}, 'first_author': False, 'id': 913}], 'id': 310}]

>  <classifications>  (311) 
[{'classification': 'Alkaloid', 'id': 738}, {'classification': 'Indole', 'id': 786}, {'classification': 'Indoles and derivatives (Classyfire)', 'id': 947}]

>  <molecular_mass>  (311) 
421.25

$$$$
SANC00414_minRM1.pdb
     RDKit          3D

 41 45  0  0  1  0  0  0  0  0999 V2000
    7.9070    0.3390   -0.5790 C   0  0  0  0  0  0  0  0  0  0  0  0
    8.0330    1.6600   -0.1110 C   0  0  0  0  0  0  0  0  0  0  0  0
    6.9570    2.3390    0.4170 C   0  0  0  0  0  0  0  0  0  0  0  0
    5.7410    1.6530    0.4620 C   0  0  0  0  0  0  0  0  0  0  0  0
    5.5950    0.3220   -0.0040 C   0  0  0  0  0  0  0  0  0  0  0  0
    6.7050   -0.3380   -0.5320 C   0  0  0  0  0  0  0  0  0  0  0  0
    4.2180   -0.0440    0.2080 C   0  0  0  0  0  0  0  0  0  0  0  0
    3.5820    1.0480    0.7890 C   0  0  0  0  0  0  0  0  0  0  0  0
    4.4930    2.0810    0.9370 N   0  0  0  0  0  0  0  0  0  0  0  0
    4.3070    2.9870    1.3380 H   0  0  0  0  0  0  0  0  0  0  0  0
    3.6520   -1.3230   -0.1320 C   0  0  0  0  0  0  0  0  0  0  0  0
    4.2900   -2.2320   -0.6420 O   0  0  0  0  0  0  0  0  0  0  0  0
    2.1900   -1.5530    0.1410 C   0  0  0  0  0  0  0  0  0  0  0  0
    1.3700   -0.6610    0.6570 N   0  0  0  0  0  0  0  0  0  0  0  0
    0.0130   -1.2860    0.7270 C   0  0  2  0  0  0  0  0  0  0  0  0
   -0.3140   -1.3020    1.7990 H   0  0  0  0  0  0  0  0  0  0  0  0
    0.1820   -2.7400    0.1680 C   0  0  0  0  0  0  0  0  0  0  0  0
    1.6160   -2.7870   -0.1540 N   0  0  0  0  0  0  0  0  0  0  0  0
   -0.9420   -0.4990   -0.0810 C   0  0  0  0  0  0  0  0  0  0  0  0
   -0.6460    0.2850   -1.1790 C   0  0  0  0  0  0  0  0  0  0  0  0
   -1.8200    0.8890   -1.6440 N   0  0  0  0  0  0  0  0  0  0  0  0
   -1.8940    1.5190   -2.4250 H   0  0  0  0  0  0  0  0  0  0  0  0
   -2.8740    0.4810   -0.8290 C   0  0  0  0  0  0  0  0  0  0  0  0
   -2.3510   -0.3940    0.1620 C   0  0  0  0  0  0  0  0  0  0  0  0
   -3.2010   -0.9480    1.1210 C   0  0  0  0  0  0  0  0  0  0  0  0
   -4.5430   -0.6280    1.0780 C   0  0  0  0  0  0  0  0  0  0  0  0
   -5.0120    0.2320    0.0800 C   0  0  0  0  0  0  0  0  0  0  0  0
   -4.2350    0.8120   -0.8860 C   0  0  0  0  0  0  0  0  0  0  0  0
   -6.9170    0.6350    0.0760 Br  0  0  0  0  0  0  0  0  0  0  0  0
    8.7900   -0.1540   -0.9970 H   0  0  0  0  0  0  0  0  0  0  0  0
    9.0050    2.1570   -0.1800 H   0  0  0  0  0  0  0  0  0  0  0  0
    7.0370    3.3680    0.7730 H   0  0  0  0  0  0  0  0  0  0  0  0
    6.6210   -1.3650   -0.8980 H   0  0  0  0  0  0  0  0  0  0  0  0
    2.5420    1.1580    1.1150 H   0  0  0  0  0  0  0  0  0  0  0  0
   -0.0900   -3.5170    0.9140 H   0  0  0  0  0  0  0  0  0  0  0  0
   -0.4550   -2.9430   -0.7210 H   0  0  0  0  0  0  0  0  0  0  0  0
    2.0710   -3.5590   -0.6130 H   0  0  0  0  0  0  0  0  0  0  0  0
    0.3150    0.4590   -1.6610 H   0  0  0  0  0  0  0  0  0  0  0  0
   -2.8040   -1.6160    1.8890 H   0  0  0  0  0  0  0  0  0  0  0  0
   -5.2400   -1.0390    1.8130 H   0  0  0  0  0  0  0  0  0  0  0  0
   -4.6370    1.4830   -1.6470 H   0  0  0  0  0  0  0  0  0  0  0  0
  1 30  1  0
  1  6  2  0
  1  2  1  0
  2 31  1  0
  2  3  2  0
  3  4  1  0
  3 32  1  0
  4  5  2  0
  4  9  1  0
  5  6  1  0
  5  7  1  0
  6 33  1  0
  7 11  1  0
  7  8  2  0
  8  9  1  0
  8 34  1  0
  9 10  1  0
 11 12  2  0
 11 13  1  0
 13 18  1  0
 13 14  2  0
 14 15  1  0
 15 19  1  0
 15 17  1  0
 15 16  1  1
 17 36  1  0
 17 18  1  0
 17 35  1  0
 18 37  1  0
 19 20  2  0
 19 24  1  0
 20 38  1  0
 20 21  1  0
 21 22  1  0
 21 23  1  0
 23 28  2  0
 23 24  1  0
 24 25  2  0
 25 26  1  0
 25 39  1  0
 26 27  2  0
 26 40  1  0
 27 28  1  0
 27 29  1  0
 28 41  1  0
M  END
>  <id>  (312) 
414

>  <scaffolds>  (312) 
['c1ccccc1', 'c1ccc2[nH]ccc2c1']

>  <name>  (312) 
Spongotine A

>  <formula>  (312) 
C20H15BrN4O

>  <SMILES>  (312) 
c1ccc2c(c1)c(c[nH]2)C(=O)C3=N[C@H](CN3)c4c[nH]c5c4ccc(c5)Br

>  <ChEMBL_id>  (312) 


>  <ZINC_id>  (312) 


>  <PubChem_id>  (312) 


>  <DrugBank_id>  (312) 


>  <CAS_no>  (312) 
116747-40-1

>  <references>  (312) 
[{'journal': {'name': 'The Journal of Biological Chemistry', 'id': 29}, 'title': 'Methicillin-resistant Staphylococcus aureus (MRSA) Pyruvate Kinase as a Target for Bis-indole Alkaloids with Antibacterial Activities', 'year': 2011, 'start_page': 44716, 'volume': 286, 'issue': 52, 'doi': '10.1074/jbc.M111.289033', 'isbn': '', 'despositor': {'code': 'TMM', 'first_name': 'Thommas', 'last_name': 'Musyoka', 'id': 22}, 'refauthors_set': [{'author': {'first_name': '', 'initials': 'R', 'last_name': 'Zoraghi', 'id': 656}, 'first_author': True, 'id': 897}, {'author': {'first_name': '', 'initials': 'L', 'last_name': 'Worrall', 'id': 657}, 'first_author': False, 'id': 898}, {'author': {'first_name': 'Raymond', 'initials': 'H', 'last_name': 'See', 'id': 658}, 'first_author': False, 'id': 899}, {'author': {'first_name': '', 'initials': 'W', 'last_name': 'Strangman', 'id': 659}, 'first_author': False, 'id': 900}, {'author': {'first_name': 'Wendy', 'initials': 'WL', 'last_name': 'Popplewell', 'id': 455}, 'first_author': False, 'id': 901}, {'author': {'first_name': '', 'initials': 'H', 'last_name': 'Gong', 'id': 660}, 'first_author': False, 'id': 902}, {'author': {'first_name': 'Toufiek', 'initials': 'T', 'last_name': 'Samaai', 'id': 517}, 'first_author': False, 'id': 903}, {'author': {'first_name': 'Richard', 'initials': 'D', 'last_name': 'Swayze', 'id': 661}, 'first_author': False, 'id': 904}, {'author': {'first_name': '', 'initials': 'S', 'last_name': 'Kaur', 'id': 662}, 'first_author': False, 'id': 905}, {'author': {'first_name': '', 'initials': 'M', 'last_name': 'Vuckovic', 'id': 663}, 'first_author': False, 'id': 906}, {'author': {'first_name': 'Brett', 'initials': 'B', 'last_name': 'Finlay', 'id': 664}, 'first_author': False, 'id': 907}, {'author': {'first_name': 'Robert', 'initials': 'C', 'last_name': 'Brunham', 'id': 665}, 'first_author': False, 'id': 908}, {'author': {'first_name': 'William', 'initials': 'R', 'last_name': 'McMaster', 'id': 666}, 'first_author': False, 'id': 909}, {'author': {'first_name': 'Michael', 'initials': 'MT', 'last_name': 'Davies-Coleman', 'id': 449}, 'first_author': False, 'id': 910}, {'author': {'first_name': 'Natalie', 'initials': 'C', 'last_name': 'Strynadka', 'id': 667}, 'first_author': False, 'id': 911}, {'author': {'first_name': '', 'initials': 'RJ', 'last_name': 'Andersen', 'id': 580}, 'first_author': False, 'id': 912}, {'author': {'first_name': 'Neil', 'initials': 'E', 'last_name': 'Reiner', 'id': 668}, 'first_author': False, 'id': 913}], 'id': 310}]

>  <classifications>  (312) 
[{'classification': 'Alkaloid', 'id': 738}, {'classification': 'Indole', 'id': 786}, {'classification': 'Indoles and derivatives (Classyfire)', 'id': 947}]

>  <molecular_mass>  (312) 
407.26

$$$$
SANC00415_minRM1.pdb
     RDKit          3D

 39 43  0  0  0  0  0  0  0  0999 V2000
    8.0650   -0.6790    1.0360 C   0  0  0  0  0  0  0  0  0  0  0  0
    8.7000    0.4840    0.5640 C   0  0  0  0  0  0  0  0  0  0  0  0
    7.9900    1.4890   -0.0540 C   0  0  0  0  0  0  0  0  0  0  0  0
    6.6190    1.2800   -0.2160 C   0  0  0  0  0  0  0  0  0  0  0  0
    5.9630    0.1010    0.2250 C   0  0  0  0  0  0  0  0  0  0  0  0
    6.7110   -0.8890    0.8640 C   0  0  0  0  0  0  0  0  0  0  0  0
    4.5700    0.2500   -0.1080 C   0  0  0  0  0  0  0  0  0  0  0  0
    4.4200    1.4880   -0.7240 C   0  0  0  0  0  0  0  0  0  0  0  0
    5.6520    2.1190   -0.7870 N   0  0  0  0  0  0  0  0  0  0  0  0
    3.5450   -0.7230    0.1800 C   0  0  0  0  0  0  0  0  0  0  0  0
    3.7610   -1.7890    0.7370 O   0  0  0  0  0  0  0  0  0  0  0  0
    2.1510   -0.4060   -0.2140 C   0  0  0  0  0  0  0  0  0  0  0  0
    1.7130    0.6970   -0.8750 N   0  0  0  0  0  0  0  0  0  0  0  0
    0.3480    0.5350   -1.0320 C   0  0  0  0  0  0  0  0  0  0  0  0
   -0.0600   -0.6790   -0.4620 C   0  0  0  0  0  0  0  0  0  0  0  0
    1.0870   -1.2700    0.0580 N   0  0  0  0  0  0  0  0  0  0  0  0
   -1.3670   -1.2540   -0.4020 C   0  0  0  0  0  0  0  0  0  0  0  0
   -1.7140   -2.5780   -0.6100 C   0  0  0  0  0  0  0  0  0  0  0  0
   -3.1050   -2.7010   -0.5320 N   0  0  0  0  0  0  0  0  0  0  0  0
   -3.6460   -1.4390   -0.2770 C   0  0  0  0  0  0  0  0  0  0  0  0
   -2.5740   -0.5130   -0.1820 C   0  0  0  0  0  0  0  0  0  0  0  0
   -2.8340    0.8310    0.0960 C   0  0  0  0  0  0  0  0  0  0  0  0
   -4.1450    1.2310    0.2520 C   0  0  0  0  0  0  0  0  0  0  0  0
   -5.1700    0.2840    0.1360 C   0  0  0  0  0  0  0  0  0  0  0  0
   -4.9840   -1.0470   -0.1260 C   0  0  0  0  0  0  0  0  0  0  0  0
   -6.9930    0.9170    0.3840 Br  0  0  0  0  0  0  0  0  0  0  0  0
    8.6760   -1.4520    1.5120 H   0  0  0  0  0  0  0  0  0  0  0  0
    9.7780    0.5990    0.7160 H   0  0  0  0  0  0  0  0  0  0  0  0
    8.4700    2.4000   -0.4170 H   0  0  0  0  0  0  0  0  0  0  0  0
    6.2270   -1.7970    1.2320 H   0  0  0  0  0  0  0  0  0  0  0  0
    3.5210    1.9690   -1.1190 H   0  0  0  0  0  0  0  0  0  0  0  0
    5.8400    3.0150   -1.2090 H   0  0  0  0  0  0  0  0  0  0  0  0
   -0.2660    1.2750   -1.5360 H   0  0  0  0  0  0  0  0  0  0  0  0
    1.1470   -2.1640    0.5300 H   0  0  0  0  0  0  0  0  0  0  0  0
   -1.0730   -3.4320   -0.8200 H   0  0  0  0  0  0  0  0  0  0  0  0
   -3.6320   -3.5480   -0.6620 H   0  0  0  0  0  0  0  0  0  0  0  0
   -2.0080    1.5420    0.1910 H   0  0  0  0  0  0  0  0  0  0  0  0
   -4.3910    2.2730    0.4690 H   0  0  0  0  0  0  0  0  0  0  0  0
   -5.8110   -1.7540   -0.2070 H   0  0  0  0  0  0  0  0  0  0  0  0
  1  2  2  0
  1  6  1  0
  1 27  1  0
  2  3  1  0
  2 28  1  0
  3 29  1  0
  3  4  2  0
  4  9  1  0
  4  5  1  0
  5  7  1  0
  5  6  2  0
  6 30  1  0
  7  8  2  0
  7 10  1  0
  8 31  1  0
  8  9  1  0
  9 32  1  0
 10 12  1  0
 10 11  2  0
 12 13  2  0
 12 16  1  0
 13 14  1  0
 14 33  1  0
 14 15  2  0
 15 17  1  0
 15 16  1  0
 16 34  1  0
 17 18  2  0
 17 21  1  0
 18 35  1  0
 18 19  1  0
 19 36  1  0
 19 20  1  0
 20 21  2  0
 20 25  1  0
 21 22  1  0
 22 37  1  0
 22 23  2  0
 23 24  1  0
 23 38  1  0
 24 25  2  0
 24 26  1  0
 25 39  1  0
M  END
>  <id>  (313) 
415

>  <scaffolds>  (313) 
['c1ccccc1', 'c1ccc2[nH]ccc2c1', 'O=C(c1nc(-c2c[nH]c3ccccc23)c[nH]1)c1c[nH]c2ccccc12', 'c1ccc2c(Cc3nc(-c4c[nH]c5ccccc45)c[nH]3)c[nH]c2c1']

>  <name>  (313) 
Bromodeoxytopsentin

>  <formula>  (313) 
C20H13BrN4O

>  <SMILES>  (313) 
C1=CC=C2C(=C1)C(=CN2)C(=O)C3=NC=C(N3)C4=CNC5=C4C=CC(=C5)Br

>  <ChEMBL_id>  (313) 
CHEMBL198814

>  <ZINC_id>  (313) 


>  <PubChem_id>  (313) 
 400452

>  <DrugBank_id>  (313) 


>  <CAS_no>  (313) 
180633-55-0

>  <references>  (313) 
[{'journal': {'name': 'The Journal of Biological Chemistry', 'id': 29}, 'title': 'Methicillin-resistant Staphylococcus aureus (MRSA) Pyruvate Kinase as a Target for Bis-indole Alkaloids with Antibacterial Activities', 'year': 2011, 'start_page': 44716, 'volume': 286, 'issue': 52, 'doi': '10.1074/jbc.M111.289033', 'isbn': '', 'despositor': {'code': 'TMM', 'first_name': 'Thommas', 'last_name': 'Musyoka', 'id': 22}, 'refauthors_set': [{'author': {'first_name': '', 'initials': 'R', 'last_name': 'Zoraghi', 'id': 656}, 'first_author': True, 'id': 897}, {'author': {'first_name': '', 'initials': 'L', 'last_name': 'Worrall', 'id': 657}, 'first_author': False, 'id': 898}, {'author': {'first_name': 'Raymond', 'initials': 'H', 'last_name': 'See', 'id': 658}, 'first_author': False, 'id': 899}, {'author': {'first_name': '', 'initials': 'W', 'last_name': 'Strangman', 'id': 659}, 'first_author': False, 'id': 900}, {'author': {'first_name': 'Wendy', 'initials': 'WL', 'last_name': 'Popplewell', 'id': 455}, 'first_author': False, 'id': 901}, {'author': {'first_name': '', 'initials': 'H', 'last_name': 'Gong', 'id': 660}, 'first_author': False, 'id': 902}, {'author': {'first_name': 'Toufiek', 'initials': 'T', 'last_name': 'Samaai', 'id': 517}, 'first_author': False, 'id': 903}, {'author': {'first_name': 'Richard', 'initials': 'D', 'last_name': 'Swayze', 'id': 661}, 'first_author': False, 'id': 904}, {'author': {'first_name': '', 'initials': 'S', 'last_name': 'Kaur', 'id': 662}, 'first_author': False, 'id': 905}, {'author': {'first_name': '', 'initials': 'M', 'last_name': 'Vuckovic', 'id': 663}, 'first_author': False, 'id': 906}, {'author': {'first_name': 'Brett', 'initials': 'B', 'last_name': 'Finlay', 'id': 664}, 'first_author': False, 'id': 907}, {'author': {'first_name': 'Robert', 'initials': 'C', 'last_name': 'Brunham', 'id': 665}, 'first_author': False, 'id': 908}, {'author': {'first_name': 'William', 'initials': 'R', 'last_name': 'McMaster', 'id': 666}, 'first_author': False, 'id': 909}, {'author': {'first_name': 'Michael', 'initials': 'MT', 'last_name': 'Davies-Coleman', 'id': 449}, 'first_author': False, 'id': 910}, {'author': {'first_name': 'Natalie', 'initials': 'C', 'last_name': 'Strynadka', 'id': 667}, 'first_author': False, 'id': 911}, {'author': {'first_name': '', 'initials': 'RJ', 'last_name': 'Andersen', 'id': 580}, 'first_author': False, 'id': 912}, {'author': {'first_name': 'Neil', 'initials': 'E', 'last_name': 'Reiner', 'id': 668}, 'first_author': False, 'id': 913}], 'id': 310}]

>  <classifications>  (313) 
[{'classification': 'Alkaloid', 'id': 738}, {'classification': 'Indole', 'id': 786}, {'classification': 'Indoles and derivatives (Classyfire)', 'id': 947}]

>  <molecular_mass>  (313) 
405.25

$$$$
SANC00416_minRM1.pdb
     RDKit          3D

 43 47  0  0  1  0  0  0  0  0999 V2000
   -1.2820    1.4710   -1.6810 C   0  0  0  0  0  0  0  0  0  0  0  0
   -1.2900    0.5360   -0.4470 C   0  0  2  0  0  0  0  0  0  0  0  0
   -1.3870    1.1560    0.4930 H   0  0  0  0  0  0  0  0  0  0  0  0
   -0.0360   -0.2440   -0.5010 N   0  0  0  0  0  0  0  0  0  0  0  0
    1.1510    0.6100   -0.2730 C   0  0  2  0  0  0  0  0  0  0  0  0
    1.2450    0.9600    0.7990 H   0  0  0  0  0  0  0  0  0  0  0  0
    1.1110    1.8900   -1.1130 C   0  0  0  0  0  0  0  0  0  0  0  0
    2.1020    2.6080   -1.2210 O   0  0  0  0  0  0  0  0  0  0  0  0
   -0.0790    2.2930   -1.6900 N   0  0  0  0  0  0  0  0  0  0  0  0
    2.3580   -0.1690   -0.6380 C   0  0  0  0  0  0  0  0  0  0  0  0
    2.4340   -1.1780   -1.5800 C   0  0  0  0  0  0  0  0  0  0  0  0
    3.7450   -1.6620   -1.6260 N   0  0  0  0  0  0  0  0  0  0  0  0
    4.5120   -0.9460   -0.7080 C   0  0  0  0  0  0  0  0  0  0  0  0
    3.6650    0.0060   -0.0770 C   0  0  0  0  0  0  0  0  0  0  0  0
    4.1920    0.8820    0.8750 C   0  0  0  0  0  0  0  0  0  0  0  0
    5.5320    0.7860    1.1920 C   0  0  0  0  0  0  0  0  0  0  0  0
    6.3220   -0.1740    0.5530 C   0  0  0  0  0  0  0  0  0  0  0  0
    5.8740   -1.0530   -0.3960 C   0  0  0  0  0  0  0  0  0  0  0  0
    8.2030   -0.2540    1.0500 Br  0  0  0  0  0  0  0  0  0  0  0  0
   -2.4610   -0.3660   -0.5470 C   0  0  0  0  0  0  0  0  0  0  0  0
   -2.4980   -1.6290   -1.1060 C   0  0  0  0  0  0  0  0  0  0  0  0
   -3.8010   -2.1320   -1.0160 N   0  0  0  0  0  0  0  0  0  0  0  0
   -4.6020   -1.1690   -0.4040 C   0  0  0  0  0  0  0  0  0  0  0  0
   -3.7850   -0.0480   -0.0990 C   0  0  0  0  0  0  0  0  0  0  0  0
   -4.3450    1.0740    0.5180 C   0  0  0  0  0  0  0  0  0  0  0  0
   -5.6920    1.0630    0.8140 C   0  0  0  0  0  0  0  0  0  0  0  0
   -6.4570   -0.0640    0.4910 C   0  0  0  0  0  0  0  0  0  0  0  0
   -5.9720   -1.1960   -0.1060 C   0  0  0  0  0  0  0  0  0  0  0  0
   -8.3500   -0.0080    0.9310 Br  0  0  0  0  0  0  0  0  0  0  0  0
   -1.3650    0.8740   -2.6220 H   0  0  0  0  0  0  0  0  0  0  0  0
   -2.1890    2.1210   -1.6660 H   0  0  0  0  0  0  0  0  0  0  0  0
   -0.0440   -1.0260    0.1680 H   0  0  0  0  0  0  0  0  0  0  0  0
   -0.0920    3.1470   -2.2410 H   0  0  0  0  0  0  0  0  0  0  0  0
    1.6470   -1.5830   -2.2140 H   0  0  0  0  0  0  0  0  0  0  0  0
    4.0890   -2.3870   -2.2330 H   0  0  0  0  0  0  0  0  0  0  0  0
    3.5540    1.6380    1.3390 H   0  0  0  0  0  0  0  0  0  0  0  0
    5.9820    1.4590    1.9260 H   0  0  0  0  0  0  0  0  0  0  0  0
    6.5270   -1.7780   -0.8860 H   0  0  0  0  0  0  0  0  0  0  0  0
   -1.6920   -2.2030   -1.5600 H   0  0  0  0  0  0  0  0  0  0  0  0
   -4.1130   -3.0330   -1.3400 H   0  0  0  0  0  0  0  0  0  0  0  0
   -3.7220    1.9410    0.7520 H   0  0  0  0  0  0  0  0  0  0  0  0
   -6.1680    1.9230    1.2910 H   0  0  0  0  0  0  0  0  0  0  0  0
   -6.6000   -2.0570   -0.3390 H   0  0  0  0  0  0  0  0  0  0  0  0
  1 30  1  0
  1  9  1  0
  1 31  1  0
  1  2  1  0
  2 20  1  0
  2  4  1  0
  2  3  1  1
  4  5  1  0
  4 32  1  0
  5  7  1  0
  5 10  1  0
  5  6  1  1
  7  9  1  0
  7  8  2  0
  9 33  1  0
 10 11  2  0
 10 14  1  0
 11 34  1  0
 11 12  1  0
 12 35  1  0
 12 13  1  0
 13 18  2  0
 13 14  1  0
 14 15  2  0
 15 16  1  0
 15 36  1  0
 16 17  2  0
 16 37  1  0
 17 18  1  0
 17 19  1  0
 18 38  1  0
 20 21  2  0
 20 24  1  0
 21 39  1  0
 21 22  1  0
 22 40  1  0
 22 23  1  0
 23 28  2  0
 23 24  1  0
 24 25  2  0
 25 41  1  0
 25 26  1  0
 26 27  2  0
 26 42  1  0
 27 28  1  0
 27 29  1  0
 28 43  1  0
M  END
>  <id>  (314) 
416

>  <scaffolds>  (314) 
['c1ccccc1', 'c1ccc2[nH]ccc2c1', 'O=C1NCC(c2c[nH]c3ccccc23)NC1c1c[nH]c2ccccc12']

>  <name>  (314) 
Cis-3,4-dihydrohamacanthin b

>  <formula>  (314) 
C20H16Br2N4O

>  <SMILES>  (314) 
C1[C@H](N[C@H](C(=O)N1)C2=CNC3=C2C=CC(=C3)Br)C4=CNC5=C4C=CC(=C5)Br

>  <ChEMBL_id>  (314) 
CHEMBL541209

>  <ZINC_id>  (314) 


>  <PubChem_id>  (314) 
 10624851

>  <DrugBank_id>  (314) 


>  <CAS_no>  (314) 
264624-39-7

>  <references>  (314) 
[{'journal': {'name': 'The Journal of Biological Chemistry', 'id': 29}, 'title': 'Methicillin-resistant Staphylococcus aureus (MRSA) Pyruvate Kinase as a Target for Bis-indole Alkaloids with Antibacterial Activities', 'year': 2011, 'start_page': 44716, 'volume': 286, 'issue': 52, 'doi': '10.1074/jbc.M111.289033', 'isbn': '', 'despositor': {'code': 'TMM', 'first_name': 'Thommas', 'last_name': 'Musyoka', 'id': 22}, 'refauthors_set': [{'author': {'first_name': '', 'initials': 'R', 'last_name': 'Zoraghi', 'id': 656}, 'first_author': True, 'id': 897}, {'author': {'first_name': '', 'initials': 'L', 'last_name': 'Worrall', 'id': 657}, 'first_author': False, 'id': 898}, {'author': {'first_name': 'Raymond', 'initials': 'H', 'last_name': 'See', 'id': 658}, 'first_author': False, 'id': 899}, {'author': {'first_name': '', 'initials': 'W', 'last_name': 'Strangman', 'id': 659}, 'first_author': False, 'id': 900}, {'author': {'first_name': 'Wendy', 'initials': 'WL', 'last_name': 'Popplewell', 'id': 455}, 'first_author': False, 'id': 901}, {'author': {'first_name': '', 'initials': 'H', 'last_name': 'Gong', 'id': 660}, 'first_author': False, 'id': 902}, {'author': {'first_name': 'Toufiek', 'initials': 'T', 'last_name': 'Samaai', 'id': 517}, 'first_author': False, 'id': 903}, {'author': {'first_name': 'Richard', 'initials': 'D', 'last_name': 'Swayze', 'id': 661}, 'first_author': False, 'id': 904}, {'author': {'first_name': '', 'initials': 'S', 'last_name': 'Kaur', 'id': 662}, 'first_author': False, 'id': 905}, {'author': {'first_name': '', 'initials': 'M', 'last_name': 'Vuckovic', 'id': 663}, 'first_author': False, 'id': 906}, {'author': {'first_name': 'Brett', 'initials': 'B', 'last_name': 'Finlay', 'id': 664}, 'first_author': False, 'id': 907}, {'author': {'first_name': 'Robert', 'initials': 'C', 'last_name': 'Brunham', 'id': 665}, 'first_author': False, 'id': 908}, {'author': {'first_name': 'William', 'initials': 'R', 'last_name': 'McMaster', 'id': 666}, 'first_author': False, 'id': 909}, {'author': {'first_name': 'Michael', 'initials': 'MT', 'last_name': 'Davies-Coleman', 'id': 449}, 'first_author': False, 'id': 910}, {'author': {'first_name': 'Natalie', 'initials': 'C', 'last_name': 'Strynadka', 'id': 667}, 'first_author': False, 'id': 911}, {'author': {'first_name': '', 'initials': 'RJ', 'last_name': 'Andersen', 'id': 580}, 'first_author': False, 'id': 912}, {'author': {'first_name': 'Neil', 'initials': 'E', 'last_name': 'Reiner', 'id': 668}, 'first_author': False, 'id': 913}], 'id': 310}]

>  <classifications>  (314) 
[{'classification': 'Alkaloid', 'id': 738}, {'classification': 'Indole', 'id': 786}, {'classification': 'Carboxylic acids and derivatives (Classyfire)', 'id': 950}]

>  <molecular_mass>  (314) 
488.17

$$$$
SANC00417_minRM1.pdb
     RDKit          3D

 83 88  0  0  1  0  0  0  0  0999 V2000
    5.9060   -3.7320    0.0340 O   0  0  0  0  0  0  0  0  0  0  0  0
    4.7310   -3.0560    0.0180 C   0  0  0  0  0  0  0  0  0  0  0  0
    4.2270   -2.3110    1.1210 C   0  0  0  0  0  0  0  0  0  0  0  0
    4.9670   -2.3070    2.2950 N   0  0  0  0  0  0  0  0  0  0  0  0
    4.4710   -1.6320    3.3180 C   0  0  0  0  0  0  0  0  0  0  0  0
    3.2340   -0.9240    3.2810 C   0  0  0  0  0  0  0  0  0  0  0  0
    2.5150   -0.9200    2.1210 C   0  0  0  0  0  0  0  0  0  0  0  0
    3.0040   -1.6240    0.9880 C   0  0  0  0  0  0  0  0  0  0  0  0
    2.3090   -1.6640   -0.2480 C   0  0  0  0  0  0  0  0  0  0  0  0
    2.7900   -2.4050   -1.2970 C   0  0  0  0  0  0  0  0  0  0  0  0
    4.0140   -3.1030   -1.1650 C   0  0  0  0  0  0  0  0  0  0  0  0
    4.3790   -3.8210   -2.2550 O   0  0  0  0  0  0  0  0  0  0  0  0
    1.0770   -0.9250   -0.4200 C   0  0  0  0  0  0  0  0  0  0  0  0
   -0.1640   -1.4950   -0.6800 C   0  0  0  0  0  0  0  0  0  0  0  0
   -1.0810   -0.4550   -0.8250 N   0  0  0  0  0  0  0  0  0  0  0  0
   -0.4280    0.7650   -0.6500 C   0  0  0  0  0  0  0  0  0  0  0  0
    0.9160    0.4900   -0.4100 C   0  0  0  0  0  0  0  0  0  0  0  0
    1.9400    1.4860   -0.1820 C   0  0  0  0  0  0  0  0  0  0  0  0
    1.8690    2.2700    0.9400 C   0  0  0  0  0  0  0  0  0  0  0  0
    2.8980    3.2040    1.2140 C   0  0  0  0  0  0  0  0  0  0  0  0
    2.7100    3.9380    2.3390 O   0  0  0  0  0  0  0  0  0  0  0  0
    3.9740    3.3480    0.3560 C   0  0  0  0  0  0  0  0  0  0  0  0
    4.9180    4.2490    0.7150 O   0  0  0  0  0  0  0  0  0  0  0  0
    4.0410    2.5590   -0.8270 C   0  0  0  0  0  0  0  0  0  0  0  0
    5.1160    2.7550   -1.6810 N   0  0  0  0  0  0  0  0  0  0  0  0
    5.1530    2.0330   -2.7850 C   0  0  0  0  0  0  0  0  0  0  0  0
    4.1500    1.0870   -3.1500 C   0  0  0  0  0  0  0  0  0  0  0  0
    3.0970    0.8880   -2.3050 C   0  0  0  0  0  0  0  0  0  0  0  0
    3.0150    1.6320   -1.0970 C   0  0  0  0  0  0  0  0  0  0  0  0
   -2.5150   -0.6210   -1.0540 C   0  0  0  0  0  0  0  0  0  0  0  0
   -3.2790   -0.7240    0.2750 C   0  0  0  0  0  0  0  0  0  0  0  0
   -4.7810   -0.8150   -0.0370 C   0  0  0  0  0  0  0  0  0  0  0  0
   -5.5530   -0.8830    1.2160 N   0  0  0  0  0  0  0  0  0  0  0  0
   -5.5250    0.3540    2.0210 C   0  0  0  0  0  0  0  0  0  0  0  0
   -5.9880    1.7110    1.4370 C   0  0  1  0  0  0  0  0  0  0  0  0
   -4.8750    2.4160    0.6740 C   0  0  0  0  0  0  0  0  0  0  0  0
   -7.3020    1.6530    0.6510 C   0  0  0  0  0  0  0  0  0  0  0  0
   -7.1570    1.5820   -0.8680 C   0  0  0  0  0  0  0  0  0  0  0  0
   -8.3200    0.8570   -1.5470 C   0  0  0  0  0  0  0  0  0  0  0  0
   -8.0050   -0.5970   -1.9160 C   0  0  0  0  0  0  0  0  0  0  0  0
   -8.4460   -1.6370   -0.8840 C   0  0  0  0  0  0  0  0  0  0  0  0
   -7.3090   -2.2850   -0.0910 C   0  0  0  0  0  0  0  0  0  0  0  0
   -6.9050   -1.5040    1.1660 C   0  0  0  0  0  0  0  0  0  0  0  0
    6.3580   -3.5630    0.8730 H   0  0  0  0  0  0  0  0  0  0  0  0
    5.0720   -1.6520    4.2370 H   0  0  0  0  0  0  0  0  0  0  0  0
    2.8880   -0.3980    4.1730 H   0  0  0  0  0  0  0  0  0  0  0  0
    1.5660   -0.3790    2.0500 H   0  0  0  0  0  0  0  0  0  0  0  0
    2.2400   -2.4700   -2.2420 H   0  0  0  0  0  0  0  0  0  0  0  0
    5.3310   -3.9630   -2.2320 H   0  0  0  0  0  0  0  0  0  0  0  0
   -0.4360   -2.5430   -0.7580 H   0  0  0  0  0  0  0  0  0  0  0  0
   -0.9360    1.7230   -0.7040 H   0  0  0  0  0  0  0  0  0  0  0  0
    1.0310    2.1830    1.6400 H   0  0  0  0  0  0  0  0  0  0  0  0
    3.5630    4.2910    2.6330 H   0  0  0  0  0  0  0  0  0  0  0  0
    5.6410    4.2250    0.0780 H   0  0  0  0  0  0  0  0  0  0  0  0
    6.0230    2.1990   -3.4360 H   0  0  0  0  0  0  0  0  0  0  0  0
    4.2500    0.5310   -4.0850 H   0  0  0  0  0  0  0  0  0  0  0  0
    2.3090    0.1670   -2.5490 H   0  0  0  0  0  0  0  0  0  0  0  0
   -2.8820    0.2400   -1.6630 H   0  0  0  0  0  0  0  0  0  0  0  0
   -2.6830   -1.5250   -1.6840 H   0  0  0  0  0  0  0  0  0  0  0  0
   -2.9420   -1.6040    0.8620 H   0  0  0  0  0  0  0  0  0  0  0  0
   -3.0400    0.1480    0.9210 H   0  0  0  0  0  0  0  0  0  0  0  0
   -5.0770    0.0290   -0.7130 H   0  0  0  0  0  0  0  0  0  0  0  0
   -4.9620   -1.7380   -0.6410 H   0  0  0  0  0  0  0  0  0  0  0  0
   -6.1160    0.1530    2.9480 H   0  0  0  0  0  0  0  0  0  0  0  0
   -4.4800    0.4640    2.3990 H   0  0  0  0  0  0  0  0  0  0  0  0
   -6.1940    2.3500    2.3430 H   0  0  0  0  0  0  0  0  0  0  0  0
   -4.5130    1.8540   -0.1990 H   0  0  0  0  0  0  0  0  0  0  0  0
   -5.1960    3.4000    0.3030 H   0  0  0  0  0  0  0  0  0  0  0  0
   -3.9920    2.5970    1.3070 H   0  0  0  0  0  0  0  0  0  0  0  0
   -7.9290    0.8170    1.0340 H   0  0  0  0  0  0  0  0  0  0  0  0
   -7.9090    2.5530    0.8980 H   0  0  0  0  0  0  0  0  0  0  0  0
   -7.0690    2.6140   -1.2730 H   0  0  0  0  0  0  0  0  0  0  0  0
   -6.1950    1.1130   -1.1700 H   0  0  0  0  0  0  0  0  0  0  0  0
   -9.2500    0.9270   -0.9440 H   0  0  0  0  0  0  0  0  0  0  0  0
   -8.5840    1.4050   -2.4790 H   0  0  0  0  0  0  0  0  0  0  0  0
   -8.5110   -0.8270   -2.8810 H   0  0  0  0  0  0  0  0  0  0  0  0
   -6.9300   -0.7160   -2.1690 H   0  0  0  0  0  0  0  0  0  0  0  0
   -9.2170   -1.2260   -0.1990 H   0  0  0  0  0  0  0  0  0  0  0  0
   -8.9940   -2.4470   -1.4180 H   0  0  0  0  0  0  0  0  0  0  0  0
   -7.6440   -3.2970    0.2330 H   0  0  0  0  0  0  0  0  0  0  0  0
   -6.4470   -2.5180   -0.7530 H   0  0  0  0  0  0  0  0  0  0  0  0
   -6.8980   -2.2030    2.0390 H   0  0  0  0  0  0  0  0  0  0  0  0
   -7.7200   -0.7780    1.4170 H   0  0  0  0  0  0  0  0  0  0  0  0
  1  2  1  0
  1 44  1  0
  2 11  2  0
  2  3  1  0
  3  8  2  0
  3  4  1  0
  4  5  2  0
  5  6  1  0
  5 45  1  0
  6  7  2  0
  6 46  1  0
  7  8  1  0
  7 47  1  0
  8  9  1  0
  9 10  2  0
  9 13  1  0
 10 48  1  0
 10 11  1  0
 11 12  1  0
 12 49  1  0
 13 14  2  0
 13 17  1  0
 14 15  1  0
 14 50  1  0
 15 30  1  0
 15 16  1  0
 16 51  1  0
 16 17  2  0
 17 18  1  0
 18 29  2  0
 18 19  1  0
 19 20  2  0
 19 52  1  0
 20 22  1  0
 20 21  1  0
 21 53  1  0
 22 24  2  0
 22 23  1  0
 23 54  1  0
 24 25  1  0
 24 29  1  0
 25 26  2  0
 26 55  1  0
 26 27  1  0
 27 56  1  0
 27 28  2  0
 28 57  1  0
 28 29  1  0
 30 59  1  0
 30 58  1  0
 30 31  1  0
 31 32  1  0
 31 60  1  0
 31 61  1  0
 32 62  1  0
 32 63  1  0
 32 33  1  0
 33 43  1  0
 33 34  1  0
 34 35  1  0
 34 65  1  0
 34 64  1  0
 35 37  1  0
 35 36  1  0
 35 66  1  1
 36 67  1  0
 36 68  1  0
 36 69  1  0
 37 38  1  0
 37 71  1  0
 37 70  1  0
 38 39  1  0
 38 72  1  0
 38 73  1  0
 39 75  1  0
 39 40  1  0
 39 74  1  0
 40 76  1  0
 40 77  1  0
 40 41  1  0
 41 79  1  0
 41 78  1  0
 41 42  1  0
 42 81  1  0
 42 80  1  0
 42 43  1  0
 43 83  1  0
 43 82  1  0
M  END
>  <id>  (315) 
417

>  <scaffolds>  (315) 
['c1ccccc1', 'c1cc(-c2cn(CCCN3CCCCCCCCC3)cc2-c2cccc3ncccc23)c2cccnc2c1']

>  <name>  (315) 
Halitulin

>  <formula>  (315) 
C35H40N4O4

>  <SMILES>  (315) 
Oc2c1ncccc1c(cc2O)c5cn(cc5c4cc(O)c(O)c3ncccc34)CCCN6CC(C)CCCCCCC6

>  <ChEMBL_id>  (315) 


>  <ZINC_id>  (315) 


>  <PubChem_id>  (315) 


>  <DrugBank_id>  (315) 


>  <CAS_no>  (315) 
221367-90-4

>  <references>  (315) 
[{'journal': {'name': 'Tetrahedron Letters', 'id': 3}, 'title': 'Halitulin, a new cytotoxic alkaloid from the marine sponge Haliclona tulearensis', 'year': 1999, 'start_page': 997, 'volume': 40, 'issue': 5, 'doi': '10.1016/S0040-4039(98)02467-8', 'isbn': '', 'despositor': {'code': 'TMM', 'first_name': 'Thommas', 'last_name': 'Musyoka', 'id': 22}, 'refauthors_set': [{'author': {'first_name': 'Yoel', 'initials': 'Y', 'last_name': 'Kashman', 'id': 536}, 'first_author': True, 'id': 914}, {'author': {'first_name': '', 'initials': 'G', 'last_name': 'Koren-Goldshlager', 'id': 532}, 'first_author': False, 'id': 915}, {'author': {'first_name': 'Garcia', 'initials': 'MD', 'last_name': 'Gravalos', 'id': 669}, 'first_author': False, 'id': 916}, {'author': {'first_name': 'Michael', 'initials': 'M', 'last_name': 'Schleyer', 'id': 452}, 'first_author': False, 'id': 917}], 'id': 311}]

>  <classifications>  (315) 
[{'classification': 'Alkaloid', 'id': 738}, {'classification': 'Bisquinolinylpyrrole', 'id': 751}, {'classification': 'Quinolines and derivatives (Classyfire)', 'id': 948}]

>  <molecular_mass>  (315) 
580.71

$$$$
SANC00418_minRM1.pdb
     RDKit          3D

 88 91  0  0  1  0  0  0  0  0999 V2000
    6.9330    1.1670    0.1540 C   0  0  0  0  0  0  0  0  0  0  0  0
    5.9080    1.3370   -0.9700 C   0  0  1  0  0  0  0  0  0  0  0  0
    6.1570    2.6690   -1.6880 C   0  0  0  0  0  0  0  0  0  0  0  0
    6.1110    0.2490   -1.8230 O   0  0  0  0  0  0  0  0  0  0  0  0
    4.4430    1.3070   -0.4290 C   0  0  1  0  0  0  0  0  0  0  0  0
    3.5730    1.3690   -1.5170 O   0  0  0  0  0  0  0  0  0  0  0  0
    4.1810    0.0790    0.4550 C   0  0  0  0  0  0  0  0  0  0  0  0
    2.7400    0.0710    0.9620 C   0  0  0  0  0  0  0  0  0  0  0  0
    2.2620   -1.3270    1.3900 C   0  0  2  0  0  0  0  0  0  0  0  0
    3.2860   -1.9250    2.3530 C   0  0  0  0  0  0  0  0  0  0  0  0
    2.0960   -2.2420    0.1920 C   0  0  0  0  0  0  0  0  0  0  0  0
    2.3300   -1.8930   -0.9500 O   0  0  0  0  0  0  0  0  0  0  0  0
    1.5890   -3.6290    0.4930 C   0  0  0  0  0  0  0  0  0  0  0  0
    0.2710   -3.5360    1.2500 C   0  0  0  0  0  0  0  0  0  0  0  0
    0.4210   -2.6450    2.4820 C   0  0  2  0  0  0  0  0  0  0  0  0
    1.2090   -3.0930    3.1490 H   0  0  0  0  0  0  0  0  0  0  0  0
   -0.8760   -2.6100    3.2780 C   0  0  0  0  0  0  0  0  0  0  0  0
    0.8700   -1.2320    2.0660 C   0  0  2  0  0  0  0  0  0  0  0  0
    0.9920   -0.6170    2.9950 H   0  0  0  0  0  0  0  0  0  0  0  0
   -0.1540   -0.5700    1.1270 C   0  0  0  0  0  0  0  0  0  0  0  0
   -1.1900    0.2540    1.8870 C   0  0  0  0  0  0  0  0  0  0  0  0
   -1.9550    1.2840    1.0300 C   0  0  2  0  0  0  0  0  0  0  0  0
   -0.9490    2.2710    0.4430 C   0  0  0  0  0  0  0  0  0  0  0  0
   -2.9760    2.0010    1.9500 C   0  0  1  0  0  0  0  0  0  0  0  0
   -3.6720    1.2160    2.3600 H   0  0  0  0  0  0  0  0  0  0  0  0
   -2.3090    2.7000    3.1310 C   0  0  0  0  0  0  0  0  0  0  0  0
   -3.8230    3.0310    1.2010 C   0  0  0  0  0  0  0  0  0  0  0  0
   -4.5890    2.3900    0.0530 C   0  0  0  0  0  0  0  0  0  0  0  0
   -3.5840    1.7050   -0.8670 C   0  0  2  0  0  0  0  0  0  0  0  0
   -2.8910    2.4700   -1.3170 H   0  0  0  0  0  0  0  0  0  0  0  0
   -4.2780    1.1290   -1.9500 O   0  0  0  0  0  0  0  0  0  0  0  0
   -4.0320   -0.2550   -2.0490 C   0  0  2  0  0  0  0  0  0  0  0  0
   -4.7440   -0.6950   -3.1460 O   0  0  0  0  0  0  0  0  0  0  0  0
   -4.5800   -0.9470   -0.7910 C   0  0  0  0  0  0  0  0  0  0  0  0
   -3.6930   -0.5050    0.3720 C   0  0  0  0  0  0  0  0  0  0  0  0
   -2.7630    0.6240   -0.1110 C   0  0  2  0  0  0  0  0  0  0  0  0
   -1.8570    0.0830   -1.0440 O   0  0  0  0  0  0  0  0  0  0  0  0
   -2.4930   -0.4770   -2.1760 C   0  0  2  0  0  0  0  0  0  0  0  0
   -1.9220    0.2310   -3.4060 C   0  0  0  0  0  0  0  0  0  0  0  0
   -2.1480   -1.9630   -2.2310 C   0  0  0  0  0  0  0  0  0  0  0  0
    6.7170    1.8340    1.0000 H   0  0  0  0  0  0  0  0  0  0  0  0
    6.9770    0.1380    0.5410 H   0  0  0  0  0  0  0  0  0  0  0  0
    7.9520    1.3980   -0.1880 H   0  0  0  0  0  0  0  0  0  0  0  0
    7.1310    2.6840   -2.1970 H   0  0  0  0  0  0  0  0  0  0  0  0
    5.3970    2.8920   -2.4520 H   0  0  0  0  0  0  0  0  0  0  0  0
    6.1500    3.5140   -0.9840 H   0  0  0  0  0  0  0  0  0  0  0  0
    5.7040    0.4470   -2.6720 H   0  0  0  0  0  0  0  0  0  0  0  0
    4.2370    2.2510    0.1380 H   0  0  0  0  0  0  0  0  0  0  0  0
    3.4130    0.4760   -1.8450 H   0  0  0  0  0  0  0  0  0  0  0  0
    4.4400   -0.8450   -0.1040 H   0  0  0  0  0  0  0  0  0  0  0  0
    4.8750    0.0840    1.3210 H   0  0  0  0  0  0  0  0  0  0  0  0
    2.6430    0.7800    1.8110 H   0  0  0  0  0  0  0  0  0  0  0  0
    2.0360    0.4730    0.1980 H   0  0  0  0  0  0  0  0  0  0  0  0
    3.6120   -1.1920    3.1060 H   0  0  0  0  0  0  0  0  0  0  0  0
    2.8990   -2.7850    2.9250 H   0  0  0  0  0  0  0  0  0  0  0  0
    4.1900   -2.2840    1.8410 H   0  0  0  0  0  0  0  0  0  0  0  0
    1.4630   -4.2220   -0.4380 H   0  0  0  0  0  0  0  0  0  0  0  0
    2.3540   -4.1910    1.0690 H   0  0  0  0  0  0  0  0  0  0  0  0
   -0.5280   -3.1400    0.5810 H   0  0  0  0  0  0  0  0  0  0  0  0
   -0.0770   -4.5500    1.5360 H   0  0  0  0  0  0  0  0  0  0  0  0
   -1.1860   -3.6150    3.6020 H   0  0  0  0  0  0  0  0  0  0  0  0
   -0.7800   -2.0040    4.1900 H   0  0  0  0  0  0  0  0  0  0  0  0
   -1.7200   -2.1890    2.7090 H   0  0  0  0  0  0  0  0  0  0  0  0
    0.3530    0.0820    0.3750 H   0  0  0  0  0  0  0  0  0  0  0  0
   -0.6500   -1.3460    0.5010 H   0  0  0  0  0  0  0  0  0  0  0  0
   -1.8990   -0.4240    2.4110 H   0  0  0  0  0  0  0  0  0  0  0  0
   -0.6910    0.8050    2.7190 H   0  0  0  0  0  0  0  0  0  0  0  0
   -0.1490    1.7520   -0.1140 H   0  0  0  0  0  0  0  0  0  0  0  0
   -1.3990    2.9780   -0.2700 H   0  0  0  0  0  0  0  0  0  0  0  0
   -0.4410    2.8690    1.2110 H   0  0  0  0  0  0  0  0  0  0  0  0
   -1.7950    3.6310    2.8510 H   0  0  0  0  0  0  0  0  0  0  0  0
   -3.0430    2.9790    3.9020 H   0  0  0  0  0  0  0  0  0  0  0  0
   -1.5580    2.0680    3.6310 H   0  0  0  0  0  0  0  0  0  0  0  0
   -4.5370    3.5150    1.9030 H   0  0  0  0  0  0  0  0  0  0  0  0
   -3.2010    3.8740    0.8330 H   0  0  0  0  0  0  0  0  0  0  0  0
   -5.3640    1.6860    0.4180 H   0  0  0  0  0  0  0  0  0  0  0  0
   -5.1690    3.1520   -0.5100 H   0  0  0  0  0  0  0  0  0  0  0  0
   -4.6070   -0.0840   -3.8800 H   0  0  0  0  0  0  0  0  0  0  0  0
   -5.6430   -0.6670   -0.6340 H   0  0  0  0  0  0  0  0  0  0  0  0
   -4.6080   -2.0470   -0.9130 H   0  0  0  0  0  0  0  0  0  0  0  0
   -4.2900   -0.1840    1.2510 H   0  0  0  0  0  0  0  0  0  0  0  0
   -3.0990   -1.3630    0.7480 H   0  0  0  0  0  0  0  0  0  0  0  0
   -0.8220    0.2330   -3.3950 H   0  0  0  0  0  0  0  0  0  0  0  0
   -2.2270   -0.2640   -4.3380 H   0  0  0  0  0  0  0  0  0  0  0  0
   -2.2300    1.2840   -3.4740 H   0  0  0  0  0  0  0  0  0  0  0  0
   -2.3090   -2.4790   -1.2740 H   0  0  0  0  0  0  0  0  0  0  0  0
   -2.7480   -2.4840   -2.9890 H   0  0  0  0  0  0  0  0  0  0  0  0
   -1.0890   -2.1240   -2.4830 H   0  0  0  0  0  0  0  0  0  0  0  0
  1  2  1  0
  1 43  1  0
  1 42  1  0
  1 41  1  0
  2  4  1  6
  2  3  1  0
  2  5  1  0
  3 45  1  0
  3 44  1  0
  3 46  1  0
  4 47  1  0
  5  6  1  0
  5 48  1  1
  5  7  1  0
  6 49  1  0
  7 50  1  0
  7  8  1  0
  7 51  1  0
  8 53  1  0
  8 52  1  0
  9  8  1  6
  9 11  1  0
  9 18  1  0
  9 10  1  0
 10 56  1  0
 10 55  1  0
 10 54  1  0
 11 12  2  0
 11 13  1  0
 13 57  1  0
 13 58  1  0
 13 14  1  0
 14 59  1  0
 14 60  1  0
 14 15  1  0
 15 18  1  0
 15 16  1  1
 15 17  1  0
 17 63  1  0
 17 61  1  0
 17 62  1  0
 18 20  1  0
 18 19  1  1
 20 64  1  0
 20 65  1  0
 20 21  1  0
 21 66  1  0
 21 67  1  0
 22 21  1  1
 22 36  1  0
 22 23  1  0
 22 24  1  0
 23 69  1  0
 23 68  1  0
 23 70  1  0
 24 27  1  0
 24 25  1  1
 24 26  1  0
 26 71  1  0
 26 73  1  0
 26 72  1  0
 27 28  1  0
 27 75  1  0
 27 74  1  0
 28 29  1  0
 28 77  1  0
 28 76  1  0
 29 31  1  0
 29 30  1  6
 29 36  1  0
 31 32  1  0
 32 33  1  6
 32 38  1  0
 32 34  1  0
 33 78  1  0
 34 80  1  0
 34 79  1  0
 34 35  1  0
 35 36  1  0
 35 82  1  0
 35 81  1  0
 36 37  1  6
 37 38  1  0
 38 39  1  6
 38 40  1  0
 39 84  1  0
 39 85  1  0
 39 83  1  0
 40 87  1  0
 40 88  1  0
 40 86  1  0
M  END
>  <id>  (316) 
418

>  <scaffolds>  (316) 
['C1CCOCC1', 'C1CCCCC1', 'O=C1CCCC(CCC2CCCC3OC4CCC23OC4)C1']

>  <name>  (316) 
Sodwanone N

>  <formula>  (316) 
C30H52O6

>  <SMILES>  (316) 
CC(C)(O)C(O)CC[C@]4(C)C(=O)CC[C@H](C)[C@@H]4CC[C@]3(C)[C@@H](C)CC[C@@H]2OC1(O)CCC23O[C@@]1(C)C

>  <ChEMBL_id>  (316) 


>  <ZINC_id>  (316) 


>  <PubChem_id>  (316) 


>  <DrugBank_id>  (316) 


>  <CAS_no>  (316) 
233607-68-6

>  <references>  (316) 
[{'journal': {'name': 'Tetrahedron', 'id': 4}, 'title': 'Several new isoprenoids from two marine sponges of the family Axinellidae', 'year': 1999, 'start_page': 5555, 'volume': 55, 'issue': 17, 'doi': '10.1016/S0040-4020(99)00221-5', 'isbn': '', 'despositor': {'code': 'TMM', 'first_name': 'Thommas', 'last_name': 'Musyoka', 'id': 22}, 'refauthors_set': [{'author': {'first_name': 'Amira', 'initials': 'A', 'last_name': 'Rudi', 'id': 534}, 'first_author': True, 'id': 918}, {'author': {'first_name': '', 'initials': 'T', 'last_name': 'Yosief', 'id': 670}, 'first_author': False, 'id': 919}, {'author': {'first_name': 'Michael', 'initials': 'M', 'last_name': 'Schleyer', 'id': 452}, 'first_author': False, 'id': 920}, {'author': {'first_name': 'Yoel', 'initials': 'Y', 'last_name': 'Kashman', 'id': 536}, 'first_author': False, 'id': 921}], 'id': 312}]

>  <classifications>  (316) 
[{'classification': 'Terpenoid', 'id': 839}, {'classification': 'Triterpene', 'id': 842}, {'classification': 'Phenol lipids (Classyfire)', 'id': 951}]

>  <molecular_mass>  (316) 
508.73

$$$$
SANC00419_minRM1.pdb
     RDKit          3D

 83 87  0  0  1  0  0  0  0  0999 V2000
    2.7190   -1.1920   -1.2550 C   0  0  0  0  0  0  0  0  0  0  0  0
    2.6130    0.0440   -0.3610 C   0  0  1  0  0  0  0  0  0  0  0  0
    2.5630   -0.3980    1.1100 C   0  0  0  0  0  0  0  0  0  0  0  0
    3.7800   -1.2070    1.5420 C   0  0  0  0  0  0  0  0  0  0  0  0
    4.8930   -0.2760    1.9370 C   0  0  0  0  0  0  0  0  0  0  0  0
    5.1770   -0.0770    3.1020 O   0  0  0  0  0  0  0  0  0  0  0  0
    5.6970    0.3820    0.8150 C   0  0  2  0  0  0  0  0  0  0  0  0
    6.9900   -0.4260    0.6310 C   0  0  0  0  0  0  0  0  0  0  0  0
    6.0320    1.8340    1.1720 C   0  0  0  0  0  0  0  0  0  0  0  0
    5.0390    0.2670   -0.4200 O   0  0  0  0  0  0  0  0  0  0  0  0
    3.8310    0.9780   -0.5580 C   0  0  1  0  0  0  0  0  0  0  0  0
    3.7450    1.8490    0.1480 H   0  0  0  0  0  0  0  0  0  0  0  0
    3.8510    1.4950   -2.0010 C   0  0  0  0  0  0  0  0  0  0  0  0
    2.6300    2.3740   -2.2180 C   0  0  0  0  0  0  0  0  0  0  0  0
    1.3870    1.8290   -1.5980 C   0  0  0  0  0  0  0  0  0  0  0  0
    0.1580    2.5780   -1.9900 C   0  0  0  0  0  0  0  0  0  0  0  0
    1.3590    0.7960   -0.7440 C   0  0  0  0  0  0  0  0  0  0  0  0
    0.0560    0.3430   -0.1480 C   0  0  0  0  0  0  0  0  0  0  0  0
   -0.6260   -0.7020   -1.0290 C   0  0  0  0  0  0  0  0  0  0  0  0
   -1.8200   -1.4290   -0.3760 C   0  0  2  0  0  0  0  0  0  0  0  0
   -1.3440   -2.1780    0.8690 C   0  0  0  0  0  0  0  0  0  0  0  0
   -2.3760   -2.4520   -1.4040 C   0  0  1  0  0  0  0  0  0  0  0  0
   -2.6880   -1.8910   -2.3260 H   0  0  0  0  0  0  0  0  0  0  0  0
   -1.3230   -3.4820   -1.8020 C   0  0  0  0  0  0  0  0  0  0  0  0
   -3.5950   -3.1980   -0.8560 C   0  0  0  0  0  0  0  0  0  0  0  0
   -4.7250   -2.2420   -0.5060 C   0  0  0  0  0  0  0  0  0  0  0  0
   -4.1970   -1.2480    0.5220 C   0  0  2  0  0  0  0  0  0  0  0  0
   -3.9320   -1.7740    1.4770 H   0  0  0  0  0  0  0  0  0  0  0  0
   -5.2320   -0.3590    0.8800 O   0  0  0  0  0  0  0  0  0  0  0  0
   -4.8800    0.9840    0.6380 C   0  0  2  0  0  0  0  0  0  0  0  0
   -5.9540    1.7470    1.0460 O   0  0  0  0  0  0  0  0  0  0  0  0
   -4.6770    1.1710   -0.8730 C   0  0  0  0  0  0  0  0  0  0  0  0
   -3.4080    0.4030   -1.2340 C   0  0  0  0  0  0  0  0  0  0  0  0
   -2.9780   -0.4630   -0.0320 C   0  0  2  0  0  0  0  0  0  0  0  0
   -2.5590    0.3930    1.0070 O   0  0  0  0  0  0  0  0  0  0  0  0
   -3.5640    1.3010    1.4170 C   0  0  2  0  0  0  0  0  0  0  0  0
   -3.7510    1.1110    2.9230 C   0  0  0  0  0  0  0  0  0  0  0  0
   -3.0620    2.7150    1.1320 C   0  0  0  0  0  0  0  0  0  0  0  0
    2.7550   -0.9330   -2.3240 H   0  0  0  0  0  0  0  0  0  0  0  0
    3.6230   -1.7870   -1.0410 H   0  0  0  0  0  0  0  0  0  0  0  0
    1.8530   -1.8630   -1.1220 H   0  0  0  0  0  0  0  0  0  0  0  0
    2.4260    0.4810    1.7780 H   0  0  0  0  0  0  0  0  0  0  0  0
    1.6480   -1.0100    1.2840 H   0  0  0  0  0  0  0  0  0  0  0  0
    3.5180   -1.8730    2.3930 H   0  0  0  0  0  0  0  0  0  0  0  0
    4.1200   -1.8990    0.7370 H   0  0  0  0  0  0  0  0  0  0  0  0
    6.8040   -1.4480    0.2640 H   0  0  0  0  0  0  0  0  0  0  0  0
    7.6600    0.0500   -0.1030 H   0  0  0  0  0  0  0  0  0  0  0  0
    7.5460   -0.5100    1.5750 H   0  0  0  0  0  0  0  0  0  0  0  0
    6.6780    1.8880    2.0610 H   0  0  0  0  0  0  0  0  0  0  0  0
    6.5580    2.3420    0.3530 H   0  0  0  0  0  0  0  0  0  0  0  0
    5.1380    2.4280    1.4030 H   0  0  0  0  0  0  0  0  0  0  0  0
    4.7840    2.0600   -2.2080 H   0  0  0  0  0  0  0  0  0  0  0  0
    3.8750    0.6540   -2.7270 H   0  0  0  0  0  0  0  0  0  0  0  0
    2.8090    3.3930   -1.8090 H   0  0  0  0  0  0  0  0  0  0  0  0
    2.4770    2.5360   -3.3080 H   0  0  0  0  0  0  0  0  0  0  0  0
    0.3580    3.4440   -2.6400 H   0  0  0  0  0  0  0  0  0  0  0  0
   -0.5480    1.9420   -2.5440 H   0  0  0  0  0  0  0  0  0  0  0  0
   -0.3810    2.9840   -1.1180 H   0  0  0  0  0  0  0  0  0  0  0  0
    0.1980   -0.0560    0.8800 H   0  0  0  0  0  0  0  0  0  0  0  0
   -0.6040    1.2220    0.0220 H   0  0  0  0  0  0  0  0  0  0  0  0
   -0.9200   -0.2490   -1.9980 H   0  0  0  0  0  0  0  0  0  0  0  0
    0.1350   -1.4660   -1.3280 H   0  0  0  0  0  0  0  0  0  0  0  0
   -1.2710   -1.5440    1.7640 H   0  0  0  0  0  0  0  0  0  0  0  0
   -2.0070   -3.0160    1.1430 H   0  0  0  0  0  0  0  0  0  0  0  0
   -0.3470   -2.6240    0.7300 H   0  0  0  0  0  0  0  0  0  0  0  0
   -1.1130   -4.2140   -1.0090 H   0  0  0  0  0  0  0  0  0  0  0  0
   -1.6370   -4.0630   -2.6810 H   0  0  0  0  0  0  0  0  0  0  0  0
   -0.3560   -3.0200   -2.0610 H   0  0  0  0  0  0  0  0  0  0  0  0
   -3.9480   -3.9490   -1.5950 H   0  0  0  0  0  0  0  0  0  0  0  0
   -3.3110   -3.7970    0.0390 H   0  0  0  0  0  0  0  0  0  0  0  0
   -5.1330   -1.7360   -1.4040 H   0  0  0  0  0  0  0  0  0  0  0  0
   -5.5970   -2.7940   -0.0950 H   0  0  0  0  0  0  0  0  0  0  0  0
   -6.2830    1.4110    1.8910 H   0  0  0  0  0  0  0  0  0  0  0  0
   -5.5640    0.7980   -1.4260 H   0  0  0  0  0  0  0  0  0  0  0  0
   -4.6240    2.2420   -1.1470 H   0  0  0  0  0  0  0  0  0  0  0  0
   -3.5450   -0.2160   -2.1450 H   0  0  0  0  0  0  0  0  0  0  0  0
   -2.6000    1.1120   -1.5080 H   0  0  0  0  0  0  0  0  0  0  0  0
   -2.7910    1.1560    3.4610 H   0  0  0  0  0  0  0  0  0  0  0  0
   -4.3910    1.8950    3.3530 H   0  0  0  0  0  0  0  0  0  0  0  0
   -4.2000    0.1400    3.1750 H   0  0  0  0  0  0  0  0  0  0  0  0
   -2.7220    2.8560    0.0960 H   0  0  0  0  0  0  0  0  0  0  0  0
   -3.8430    3.4640    1.3240 H   0  0  0  0  0  0  0  0  0  0  0  0
   -2.1970    2.9720    1.7640 H   0  0  0  0  0  0  0  0  0  0  0  0
  1 39  1  0
  1 41  1  0
  1 40  1  0
  2  1  1  6
  2 17  1  0
  2 11  1  0
  2  3  1  0
  3 43  1  0
  3  4  1  0
  3 42  1  0
  4 45  1  0
  4  5  1  0
  4 44  1  0
  5  7  1  0
  5  6  2  0
  7 10  1  0
  7  8  1  6
  7  9  1  0
  8 47  1  0
  8 46  1  0
  8 48  1  0
  9 50  1  0
  9 51  1  0
  9 49  1  0
 10 11  1  0
 11 13  1  0
 11 12  1  1
 13 53  1  0
 13 14  1  0
 13 52  1  0
 14 55  1  0
 14 54  1  0
 14 15  1  0
 15 16  1  0
 15 17  2  0
 16 56  1  0
 16 57  1  0
 16 58  1  0
 17 18  1  0
 18 19  1  0
 18 60  1  0
 18 59  1  0
 19 61  1  0
 19 62  1  0
 20 19  1  6
 20 22  1  0
 20 34  1  0
 20 21  1  0
 21 65  1  0
 21 64  1  0
 21 63  1  0
 22 23  1  6
 22 24  1  0
 22 25  1  0
 24 67  1  0
 24 68  1  0
 24 66  1  0
 25 69  1  0
 25 26  1  0
 25 70  1  0
 26 71  1  0
 26 72  1  0
 26 27  1  0
 27 34  1  0
 27 29  1  0
 27 28  1  1
 29 30  1  0
 30 32  1  0
 30 31  1  1
 30 36  1  0
 31 73  1  0
 32 74  1  0
 32 33  1  0
 32 75  1  0
 33 76  1  0
 33 77  1  0
 33 34  1  0
 34 35  1  1
 35 36  1  0
 36 38  1  1
 36 37  1  0
 37 80  1  0
 37 79  1  0
 37 78  1  0
 38 81  1  0
 38 82  1  0
 38 83  1  0
M  END
>  <id>  (317) 
419

>  <scaffolds>  (317) 
['C1=CCCCC1', 'C1CCOCC1', 'C1CCCCC1', 'O=C1CCC2C(CCC3CCCC4OC5CCC34OC5)=CCCC2OC1']

>  <name>  (317) 
Sodwanone O

>  <formula>  (317) 
C30H48O5

>  <SMILES>  (317) 
C[C@]45CCC(=O)[C@](C)(C)O[C@H]5CCC(\C)=C4\CC[C@]3(C)[C@@H](C)CC[C@@H]2OC1(O)CCC23O[C@@]1(C)C

>  <ChEMBL_id>  (317) 


>  <ZINC_id>  (317) 


>  <PubChem_id>  (317) 


>  <DrugBank_id>  (317) 


>  <CAS_no>  (317) 
233607-69-7

>  <references>  (317) 
[{'journal': {'name': 'Tetrahedron', 'id': 4}, 'title': 'Several new isoprenoids from two marine sponges of the family Axinellidae', 'year': 1999, 'start_page': 5555, 'volume': 55, 'issue': 17, 'doi': '10.1016/S0040-4020(99)00221-5', 'isbn': '', 'despositor': {'code': 'TMM', 'first_name': 'Thommas', 'last_name': 'Musyoka', 'id': 22}, 'refauthors_set': [{'author': {'first_name': 'Amira', 'initials': 'A', 'last_name': 'Rudi', 'id': 534}, 'first_author': True, 'id': 918}, {'author': {'first_name': '', 'initials': 'T', 'last_name': 'Yosief', 'id': 670}, 'first_author': False, 'id': 919}, {'author': {'first_name': 'Michael', 'initials': 'M', 'last_name': 'Schleyer', 'id': 452}, 'first_author': False, 'id': 920}, {'author': {'first_name': 'Yoel', 'initials': 'Y', 'last_name': 'Kashman', 'id': 536}, 'first_author': False, 'id': 921}], 'id': 312}]

>  <classifications>  (317) 
[{'classification': 'Terpenoid', 'id': 839}, {'classification': 'Triterpene', 'id': 842}, {'classification': 'Oxepanes (Classyfire)', 'id': 981}]

>  <molecular_mass>  (317) 
488.7

$$$$
SANC00420_minRM1.pdb
     RDKit          3D

 85 90  0  0  1  0  0  0  0  0999 V2000
    0.4720    3.6520   -1.1220 C   0  0  0  0  0  0  0  0  0  0  0  0
    1.6690    2.7320   -0.8970 C   0  0  1  0  0  0  0  0  0  0  0  0
    2.1100    2.4760   -1.8980 H   0  0  0  0  0  0  0  0  0  0  0  0
    2.7160    3.5070   -0.0920 C   0  0  0  0  0  0  0  0  0  0  0  0
    3.9830    2.6930    0.1100 C   0  0  0  0  0  0  0  0  0  0  0  0
    3.6070    1.3900    0.8080 C   0  0  2  0  0  0  0  0  0  0  0  0
    3.2250    1.5960    1.8430 H   0  0  0  0  0  0  0  0  0  0  0  0
    4.7790    0.6260    0.9960 O   0  0  0  0  0  0  0  0  0  0  0  0
    4.6680   -0.6530    0.4160 C   0  0  2  0  0  0  0  0  0  0  0  0
    5.8470   -1.3090    0.7020 O   0  0  0  0  0  0  0  0  0  0  0  0
    4.5400   -0.4950   -1.1070 C   0  0  0  0  0  0  0  0  0  0  0  0
    3.1830    0.1570   -1.3630 C   0  0  0  0  0  0  0  0  0  0  0  0
    2.5650    0.5880   -0.0160 C   0  0  1  0  0  0  0  0  0  0  0  0
    2.2670   -0.5730    0.7230 O   0  0  0  0  0  0  0  0  0  0  0  0
    3.4080   -1.3600    1.0040 C   0  0  2  0  0  0  0  0  0  0  0  0
    3.5000   -1.4960    2.5250 C   0  0  0  0  0  0  0  0  0  0  0  0
    3.2040   -2.7360    0.3760 C   0  0  0  0  0  0  0  0  0  0  0  0
    1.2610    1.4060   -0.1960 C   0  0  1  0  0  0  0  0  0  0  0  0
    0.6280    1.7230    1.1540 C   0  0  0  0  0  0  0  0  0  0  0  0
    0.2530    0.6750   -1.1120 C   0  0  0  0  0  0  0  0  0  0  0  0
   -0.4560   -0.5320   -0.4990 C   0  0  0  0  0  0  0  0  0  0  0  0
   -1.5800   -1.1450   -1.3620 C   0  0  1  0  0  0  0  0  0  0  0  0
   -1.2890   -0.9690   -2.8590 C   0  0  0  0  0  0  0  0  0  0  0  0
   -1.6810   -2.6710   -1.0980 C   0  0  1  0  0  0  0  0  0  0  0  0
   -2.4610   -3.1020   -1.7820 H   0  0  0  0  0  0  0  0  0  0  0  0
   -0.3750   -3.4020   -1.3890 C   0  0  0  0  0  0  0  0  0  0  0  0
   -2.1130   -2.9480    0.3410 C   0  0  0  0  0  0  0  0  0  0  0  0
   -3.5380   -2.4640    0.5460 C   0  0  0  0  0  0  0  0  0  0  0  0
   -3.6240   -0.9740    0.2370 C   0  0  1  0  0  0  0  0  0  0  0  0
   -3.1000   -0.2450    1.3200 O   0  0  0  0  0  0  0  0  0  0  0  0
   -3.7050    1.0260    1.2140 C   0  0  1  0  0  0  0  0  0  0  0  0
   -2.9990    1.7720    0.0860 C   0  0  0  0  0  0  0  0  0  0  0  0
   -3.0370    0.9870   -1.2260 C   0  0  0  0  0  0  0  0  0  0  0  0
   -2.9810   -0.5420   -1.0970 C   0  0  1  0  0  0  0  0  0  0  0  0
   -5.1690    0.6220    0.8720 C   0  0  2  0  0  0  0  0  0  0  0  0
   -5.9310    1.5860   -0.0220 C   0  0  0  0  0  0  0  0  0  0  0  0
   -5.9540    0.3520    2.1560 C   0  0  0  0  0  0  0  0  0  0  0  0
   -4.9980   -0.6080    0.1970 O   0  0  0  0  0  0  0  0  0  0  0  0
    0.0710    4.0760   -0.1900 H   0  0  0  0  0  0  0  0  0  0  0  0
    0.7330    4.5070   -1.7630 H   0  0  0  0  0  0  0  0  0  0  0  0
   -0.3670    3.1370   -1.6180 H   0  0  0  0  0  0  0  0  0  0  0  0
    2.9590    4.4630   -0.6030 H   0  0  0  0  0  0  0  0  0  0  0  0
    2.2990    3.8170    0.8930 H   0  0  0  0  0  0  0  0  0  0  0  0
    4.5160    2.5120   -0.8460 H   0  0  0  0  0  0  0  0  0  0  0  0
    4.7220    3.2560    0.7190 H   0  0  0  0  0  0  0  0  0  0  0  0
    6.0800   -1.1560    1.6260 H   0  0  0  0  0  0  0  0  0  0  0  0
    5.3770    0.1200   -1.4970 H   0  0  0  0  0  0  0  0  0  0  0  0
    4.6550   -1.4650   -1.6280 H   0  0  0  0  0  0  0  0  0  0  0  0
    3.2670    1.0180   -2.0590 H   0  0  0  0  0  0  0  0  0  0  0  0
    2.4950   -0.5420   -1.8850 H   0  0  0  0  0  0  0  0  0  0  0  0
    2.5410   -1.8150    2.9600 H   0  0  0  0  0  0  0  0  0  0  0  0
    4.2460   -2.2470    2.8210 H   0  0  0  0  0  0  0  0  0  0  0  0
    3.7650   -0.5550    3.0250 H   0  0  0  0  0  0  0  0  0  0  0  0
    2.9140   -2.6860   -0.6830 H   0  0  0  0  0  0  0  0  0  0  0  0
    4.1190   -3.3420    0.4360 H   0  0  0  0  0  0  0  0  0  0  0  0
    2.4060   -3.2990    0.8820 H   0  0  0  0  0  0  0  0  0  0  0  0
    1.1350    2.5440    1.6870 H   0  0  0  0  0  0  0  0  0  0  0  0
   -0.4240    2.0430    1.0510 H   0  0  0  0  0  0  0  0  0  0  0  0
    0.6210    0.8690    1.8470 H   0  0  0  0  0  0  0  0  0  0  0  0
   -0.5160    1.4070   -1.4610 H   0  0  0  0  0  0  0  0  0  0  0  0
    0.7760    0.3750   -2.0460 H   0  0  0  0  0  0  0  0  0  0  0  0
    0.3060   -1.3180   -0.2950 H   0  0  0  0  0  0  0  0  0  0  0  0
   -0.8590   -0.2800    0.5000 H   0  0  0  0  0  0  0  0  0  0  0  0
   -0.2590   -1.2440   -3.1270 H   0  0  0  0  0  0  0  0  0  0  0  0
   -1.9400   -1.5870   -3.4960 H   0  0  0  0  0  0  0  0  0  0  0  0
   -1.4370    0.0640   -3.2090 H   0  0  0  0  0  0  0  0  0  0  0  0
    0.4740   -2.9770   -0.8270 H   0  0  0  0  0  0  0  0  0  0  0  0
   -0.4280   -4.4680   -1.1200 H   0  0  0  0  0  0  0  0  0  0  0  0
   -0.1000   -3.3790   -2.4520 H   0  0  0  0  0  0  0  0  0  0  0  0
   -2.0590   -4.0350    0.5660 H   0  0  0  0  0  0  0  0  0  0  0  0
   -1.4260   -2.4880    1.0790 H   0  0  0  0  0  0  0  0  0  0  0  0
   -4.2510   -3.0210   -0.0990 H   0  0  0  0  0  0  0  0  0  0  0  0
   -3.8850   -2.6660    1.5820 H   0  0  0  0  0  0  0  0  0  0  0  0
   -3.5920    1.5320    2.1990 H   0  0  0  0  0  0  0  0  0  0  0  0
   -3.4360    2.7820   -0.0490 H   0  0  0  0  0  0  0  0  0  0  0  0
   -1.9460    1.9710    0.3970 H   0  0  0  0  0  0  0  0  0  0  0  0
   -3.9730    1.2580   -1.7710 H   0  0  0  0  0  0  0  0  0  0  0  0
   -2.2210    1.3510   -1.8920 H   0  0  0  0  0  0  0  0  0  0  0  0
   -3.6540   -0.9610   -1.8970 H   0  0  0  0  0  0  0  0  0  0  0  0
   -5.5060    1.6600   -1.0360 H   0  0  0  0  0  0  0  0  0  0  0  0
   -6.9770    1.2730   -0.1560 H   0  0  0  0  0  0  0  0  0  0  0  0
   -5.9470    2.5980    0.4070 H   0  0  0  0  0  0  0  0  0  0  0  0
   -6.1520    1.2800    2.7100 H   0  0  0  0  0  0  0  0  0  0  0  0
   -6.9260   -0.1180    1.9500 H   0  0  0  0  0  0  0  0  0  0  0  0
   -5.4170   -0.3270    2.8330 H   0  0  0  0  0  0  0  0  0  0  0  0
  1 40  1  0
  1 41  1  0
  1  2  1  0
  1 39  1  0
  2  3  1  6
  2 18  1  0
  2  4  1  0
  4 42  1  0
  4  5  1  0
  4 43  1  0
  5 44  1  0
  5 45  1  0
  5  6  1  0
  6 13  1  0
  6  8  1  0
  6  7  1  1
  8  9  1  0
  9 11  1  0
  9 10  1  6
  9 15  1  0
 10 46  1  0
 11 48  1  0
 11 47  1  0
 11 12  1  0
 12 49  1  0
 12 50  1  0
 12 13  1  0
 13 18  1  0
 13 14  1  1
 14 15  1  0
 15 17  1  6
 15 16  1  0
 16 52  1  0
 16 51  1  0
 16 53  1  0
 17 54  1  0
 17 55  1  0
 17 56  1  0
 18 20  1  6
 18 19  1  0
 19 58  1  0
 19 57  1  0
 19 59  1  0
 20 61  1  0
 20 60  1  0
 20 21  1  0
 21 62  1  0
 21 63  1  0
 22 21  1  1
 22 23  1  0
 22 24  1  0
 22 34  1  0
 23 65  1  0
 23 66  1  0
 23 64  1  0
 24 25  1  6
 24 26  1  0
 24 27  1  0
 26 69  1  0
 26 68  1  0
 26 67  1  0
 27 28  1  0
 27 70  1  0
 27 71  1  0
 28 72  1  0
 28 29  1  0
 28 73  1  0
 29 34  1  0
 29 38  1  6
 29 30  1  0
 30 31  1  0
 31 32  1  0
 31 35  1  0
 31 74  1  1
 32 33  1  0
 32 75  1  0
 32 76  1  0
 33 78  1  0
 33 77  1  0
 33 34  1  0
 34 79  1  6
 35 36  1  6
 35 38  1  0
 35 37  1  0
 36 80  1  0
 36 81  1  0
 36 82  1  0
 37 84  1  0
 37 83  1  0
 37 85  1  0
M  END
>  <id>  (318) 
420

>  <scaffolds>  (318) 
['C1CCOCC1', 'C1CCCCC1', 'C1CC(CCC2CCCC34OCC(CCC23)O4)C23CCC(CO2)OC3C1']

>  <name>  (318) 
Sodwanone P

>  <formula>  (318) 
C30H50O5

>  <SMILES>  (318) 
C[C@H]6CC[C@@H]2OC1(O)CCC2(O[C@@]1(C)C)[C@]6(C)CC[C@@]3(C)[C@@H](C)CCC54OC(CCC34)[C@](C)(C)O5

>  <ChEMBL_id>  (318) 


>  <ZINC_id>  (318) 


>  <PubChem_id>  (318) 


>  <DrugBank_id>  (318) 


>  <CAS_no>  (318) 
233607-70-0

>  <references>  (318) 
[{'journal': {'name': 'Tetrahedron', 'id': 4}, 'title': 'Several new isoprenoids from two marine sponges of the family Axinellidae', 'year': 1999, 'start_page': 5555, 'volume': 55, 'issue': 17, 'doi': '10.1016/S0040-4020(99)00221-5', 'isbn': '', 'despositor': {'code': 'TMM', 'first_name': 'Thommas', 'last_name': 'Musyoka', 'id': 22}, 'refauthors_set': [{'author': {'first_name': 'Amira', 'initials': 'A', 'last_name': 'Rudi', 'id': 534}, 'first_author': True, 'id': 918}, {'author': {'first_name': '', 'initials': 'T', 'last_name': 'Yosief', 'id': 670}, 'first_author': False, 'id': 919}, {'author': {'first_name': 'Michael', 'initials': 'M', 'last_name': 'Schleyer', 'id': 452}, 'first_author': False, 'id': 920}, {'author': {'first_name': 'Yoel', 'initials': 'Y', 'last_name': 'Kashman', 'id': 536}, 'first_author': False, 'id': 921}], 'id': 312}]

>  <classifications>  (318) 
[{'classification': 'Terpenoid', 'id': 839}, {'classification': 'Triterpene', 'id': 842}, {'classification': 'Oxepanes (Classyfire)', 'id': 981}]

>  <molecular_mass>  (318) 
490.71

$$$$
SANC00421_minRM1.pdb
     RDKit          3D

 80 83  0  0  1  0  0  0  0  0999 V2000
   -4.1490    0.3580   -1.9800 C   0  0  0  0  0  0  0  0  0  0  0  0
   -3.1820   -0.0060   -0.8540 C   0  0  2  0  0  0  0  0  0  0  0  0
   -2.6150   -1.4110   -1.0830 C   0  0  0  0  0  0  0  0  0  0  0  0
   -3.6700   -2.4850   -0.8920 C   0  0  0  0  0  0  0  0  0  0  0  0
   -4.1900   -2.4120    0.5160 C   0  0  0  0  0  0  0  0  0  0  0  0
   -4.1740   -3.3850    1.2450 O   0  0  0  0  0  0  0  0  0  0  0  0
   -4.7610   -1.0750    0.9520 C   0  0  1  0  0  0  0  0  0  0  0  0
   -6.1530   -0.9790    0.3350 C   0  0  0  0  0  0  0  0  0  0  0  0
   -4.9200   -1.0690    2.4780 C   0  0  0  0  0  0  0  0  0  0  0  0
   -3.7990    0.0610    0.5580 C   0  0  2  0  0  0  0  0  0  0  0  0
   -2.9300   -0.0060    1.2720 H   0  0  0  0  0  0  0  0  0  0  0  0
   -4.4600    1.4210    0.7490 C   0  0  0  0  0  0  0  0  0  0  0  0
   -3.5380    2.5520    0.3710 C   0  0  0  0  0  0  0  0  0  0  0  0
   -3.8680    3.7030    0.6030 O   0  0  0  0  0  0  0  0  0  0  0  0
   -2.2620    2.2240   -0.2960 C   0  0  0  0  0  0  0  0  0  0  0  0
   -1.2400    3.3040   -0.2970 C   0  0  0  0  0  0  0  0  0  0  0  0
   -2.0850    1.0370   -0.8960 C   0  0  0  0  0  0  0  0  0  0  0  0
   -0.8320    0.7310   -1.6520 C   0  0  0  0  0  0  0  0  0  0  0  0
    0.2120    0.1300   -0.7040 C   0  0  0  0  0  0  0  0  0  0  0  0
    1.6390    0.2590   -1.2480 C   0  0  2  0  0  0  0  0  0  0  0  0
    1.8000    1.3390   -1.5280 H   0  0  0  0  0  0  0  0  0  0  0  0
    1.7980   -0.5300   -2.5570 C   0  0  2  0  0  0  0  0  0  0  0  0
    1.1580   -0.0170   -3.3290 H   0  0  0  0  0  0  0  0  0  0  0  0
    1.3390   -1.9810   -2.5120 C   0  0  0  0  0  0  0  0  0  0  0  0
    3.2410   -0.4520   -3.0550 C   0  0  0  0  0  0  0  0  0  0  0  0
    4.2200   -0.8960   -1.9850 C   0  0  0  0  0  0  0  0  0  0  0  0
    4.0870    0.0420   -0.7750 C   0  0  2  0  0  0  0  0  0  0  0  0
    4.2780    1.0920   -1.1300 H   0  0  0  0  0  0  0  0  0  0  0  0
    5.0990   -0.4070    0.0880 O   0  0  0  0  0  0  0  0  0  0  0  0
    5.5050    0.4010    1.1580 C   0  0  1  0  0  0  0  0  0  0  0  0
    6.8970   -0.1620    1.5040 C   0  0  0  0  0  0  0  0  0  0  0  0
    5.6460    1.8900    0.8560 C   0  0  0  0  0  0  0  0  0  0  0  0
    4.5370    0.1770    2.3200 C   0  0  0  0  0  0  0  0  0  0  0  0
    4.8920   -0.4480    3.3030 O   0  0  0  0  0  0  0  0  0  0  0  0
    3.1520    0.7610    2.2860 C   0  0  0  0  0  0  0  0  0  0  0  0
    2.5700    1.0760    0.9180 C   0  0  0  0  0  0  0  0  0  0  0  0
    2.6830   -0.0440   -0.1360 C   0  0  1  0  0  0  0  0  0  0  0  0
    2.4390   -1.3920    0.5240 C   0  0  0  0  0  0  0  0  0  0  0  0
   -3.7300    0.1270   -2.9710 H   0  0  0  0  0  0  0  0  0  0  0  0
   -5.1090   -0.1750   -1.9120 H   0  0  0  0  0  0  0  0  0  0  0  0
   -4.3950    1.4300   -2.0040 H   0  0  0  0  0  0  0  0  0  0  0  0
   -2.1770   -1.4980   -2.1020 H   0  0  0  0  0  0  0  0  0  0  0  0
   -1.7540   -1.5970   -0.3990 H   0  0  0  0  0  0  0  0  0  0  0  0
   -4.5070   -2.3880   -1.6130 H   0  0  0  0  0  0  0  0  0  0  0  0
   -3.2440   -3.4890   -1.1110 H   0  0  0  0  0  0  0  0  0  0  0  0
   -6.7280   -1.9080    0.4800 H   0  0  0  0  0  0  0  0  0  0  0  0
   -6.7610   -0.1820    0.7870 H   0  0  0  0  0  0  0  0  0  0  0  0
   -6.1330   -0.7870   -0.7490 H   0  0  0  0  0  0  0  0  0  0  0  0
   -3.9740   -1.2760    3.0000 H   0  0  0  0  0  0  0  0  0  0  0  0
   -5.2930   -0.1070    2.8570 H   0  0  0  0  0  0  0  0  0  0  0  0
   -5.6300   -1.8380    2.8180 H   0  0  0  0  0  0  0  0  0  0  0  0
   -5.3930    1.5260    0.1540 H   0  0  0  0  0  0  0  0  0  0  0  0
   -4.7940    1.5570    1.8010 H   0  0  0  0  0  0  0  0  0  0  0  0
   -1.3920    4.0400    0.5080 H   0  0  0  0  0  0  0  0  0  0  0  0
   -0.2130    2.9330   -0.1650 H   0  0  0  0  0  0  0  0  0  0  0  0
   -1.2670    3.8690   -1.2410 H   0  0  0  0  0  0  0  0  0  0  0  0
   -1.0450    0.0440   -2.5010 H   0  0  0  0  0  0  0  0  0  0  0  0
   -0.4510    1.6420   -2.1640 H   0  0  0  0  0  0  0  0  0  0  0  0
    0.1460    0.6300    0.2910 H   0  0  0  0  0  0  0  0  0  0  0  0
   -0.0580   -0.9250   -0.4810 H   0  0  0  0  0  0  0  0  0  0  0  0
    0.2600   -2.0840   -2.3240 H   0  0  0  0  0  0  0  0  0  0  0  0
    1.5210   -2.4960   -3.4680 H   0  0  0  0  0  0  0  0  0  0  0  0
    1.8490   -2.5780   -1.7410 H   0  0  0  0  0  0  0  0  0  0  0  0
    3.3730   -1.0630   -3.9740 H   0  0  0  0  0  0  0  0  0  0  0  0
    3.4760    0.5820   -3.3920 H   0  0  0  0  0  0  0  0  0  0  0  0
    4.0750   -1.9570   -1.7000 H   0  0  0  0  0  0  0  0  0  0  0  0
    5.2600   -0.8700   -2.3780 H   0  0  0  0  0  0  0  0  0  0  0  0
    7.6130   -0.0010    0.6860 H   0  0  0  0  0  0  0  0  0  0  0  0
    7.3090    0.3090    2.4060 H   0  0  0  0  0  0  0  0  0  0  0  0
    6.8690   -1.2450    1.6960 H   0  0  0  0  0  0  0  0  0  0  0  0
    4.6890    2.4190    0.7270 H   0  0  0  0  0  0  0  0  0  0  0  0
    6.1680    2.4100    1.6730 H   0  0  0  0  0  0  0  0  0  0  0  0
    6.2340    2.0670   -0.0550 H   0  0  0  0  0  0  0  0  0  0  0  0
    2.4630    0.0940    2.8520 H   0  0  0  0  0  0  0  0  0  0  0  0
    3.1790    1.6910    2.9000 H   0  0  0  0  0  0  0  0  0  0  0  0
    1.4970    1.3420    1.0760 H   0  0  0  0  0  0  0  0  0  0  0  0
    3.0130    2.0220    0.5290 H   0  0  0  0  0  0  0  0  0  0  0  0
    1.5440   -1.3910    1.1650 H   0  0  0  0  0  0  0  0  0  0  0  0
    2.2930   -2.2070   -0.2000 H   0  0  0  0  0  0  0  0  0  0  0  0
    3.2700   -1.7200    1.1660 H   0  0  0  0  0  0  0  0  0  0  0  0
  1 39  1  0
  1 41  1  0
  1 40  1  0
  2  1  1  6
  2  3  1  0
  2 17  1  0
  2 10  1  0
  3 42  1  0
  3  4  1  0
  3 43  1  0
  4 44  1  0
  4 45  1  0
  4  5  1  0
  5  7  1  0
  5  6  2  0
  7  8  1  6
  7 10  1  0
  7  9  1  0
  8 48  1  0
  8 46  1  0
  8 47  1  0
  9 51  1  0
  9 50  1  0
  9 49  1  0
 10 12  1  0
 10 11  1  1
 12 52  1  0
 12 13  1  0
 12 53  1  0
 13 15  1  0
 13 14  2  0
 15 17  2  0
 15 16  1  0
 16 56  1  0
 16 55  1  0
 16 54  1  0
 17 18  1  0
 18 57  1  0
 18 58  1  0
 18 19  1  0
 19 20  1  0
 19 60  1  0
 19 59  1  0
 20 22  1  0
 20 21  1  6
 20 37  1  0
 22 23  1  6
 22 25  1  0
 22 24  1  0
 24 62  1  0
 24 61  1  0
 24 63  1  0
 25 64  1  0
 25 65  1  0
 25 26  1  0
 26 67  1  0
 26 66  1  0
 26 27  1  0
 27 28  1  6
 27 37  1  0
 27 29  1  0
 29 30  1  0
 30 32  1  6
 30 31  1  0
 30 33  1  0
 31 68  1  0
 31 70  1  0
 31 69  1  0
 32 73  1  0
 32 71  1  0
 32 72  1  0
 33 35  1  0
 33 34  2  0
 35 36  1  0
 35 74  1  0
 35 75  1  0
 36 37  1  0
 36 77  1  0
 36 76  1  0
 37 38  1  1
 38 79  1  0
 38 78  1  0
 38 80  1  0
M  END
>  <id>  (319) 
421

>  <scaffolds>  (319) 
['C1=CC2CCCCC2CC1', 'C1=CCCCC1', 'C1CCCCC1', 'O=C1C=CCCC1', 'O=C1C=C(CCC2CCCC3OCC(=O)CCC23)C2CCC(=O)CC2C1']

>  <name>  (319) 
Sodwanone R

>  <formula>  (319) 
C30H46O4

>  <SMILES>  (319) 
C[C@@]34CCC(=O)[C@@](C)(C)[C@@H]4CC(=O)C(\C)=C3\CC[C@@H]1[C@H](C)CC[C@@H]2O[C@@](C)(C)C(=O)CC[C@@]12C

>  <ChEMBL_id>  (319) 


>  <ZINC_id>  (319) 


>  <PubChem_id>  (319) 


>  <DrugBank_id>  (319) 


>  <CAS_no>  (319) 
233607-72-2

>  <references>  (319) 
[{'journal': {'name': 'Tetrahedron', 'id': 4}, 'title': 'Several new isoprenoids from two marine sponges of the family Axinellidae', 'year': 1999, 'start_page': 5555, 'volume': 55, 'issue': 17, 'doi': '10.1016/S0040-4020(99)00221-5', 'isbn': '', 'despositor': {'code': 'TMM', 'first_name': 'Thommas', 'last_name': 'Musyoka', 'id': 22}, 'refauthors_set': [{'author': {'first_name': 'Amira', 'initials': 'A', 'last_name': 'Rudi', 'id': 534}, 'first_author': True, 'id': 918}, {'author': {'first_name': '', 'initials': 'T', 'last_name': 'Yosief', 'id': 670}, 'first_author': False, 'id': 919}, {'author': {'first_name': 'Michael', 'initials': 'M', 'last_name': 'Schleyer', 'id': 452}, 'first_author': False, 'id': 920}, {'author': {'first_name': 'Yoel', 'initials': 'Y', 'last_name': 'Kashman', 'id': 536}, 'first_author': False, 'id': 921}], 'id': 312}]

>  <classifications>  (319) 
[{'classification': 'Terpenoid', 'id': 839}, {'classification': 'Triterpene', 'id': 842}, {'classification': 'Phenol lipids (Classyfire)', 'id': 951}]

>  <molecular_mass>  (319) 
470.68

$$$$
SANC00422_minRM1.pdb
     RDKit          3D

 81 84  0  0  1  0  0  0  0  0999 V2000
    4.2400   -1.4440   -1.1830 C   0  0  0  0  0  0  0  0  0  0  0  0
    3.2670   -0.5370   -0.4300 C   0  0  2  0  0  0  0  0  0  0  0  0
    2.7890    0.5960   -1.3410 C   0  0  0  0  0  0  0  0  0  0  0  0
    3.8800    1.6190   -1.6140 C   0  0  0  0  0  0  0  0  0  0  0  0
    4.3980    2.2140   -0.3000 C   0  0  2  0  0  0  0  0  0  0  0  0
    3.5500    2.7500    0.2160 H   0  0  0  0  0  0  0  0  0  0  0  0
    5.4510    3.1000   -0.5570 O   0  0  0  0  0  0  0  0  0  0  0  0
    4.9600    1.1270    0.6470 C   0  0  1  0  0  0  0  0  0  0  0  0
    6.2590    0.5350    0.1150 C   0  0  0  0  0  0  0  0  0  0  0  0
    5.2650    1.7950    1.9960 C   0  0  0  0  0  0  0  0  0  0  0  0
    3.8550    0.0770    0.8560 C   0  0  2  0  0  0  0  0  0  0  0  0
    2.9970    0.6000    1.3730 H   0  0  0  0  0  0  0  0  0  0  0  0
    4.2660   -1.0290    1.7730 C   0  0  0  0  0  0  0  0  0  0  0  0
    3.4800   -2.1040    1.8870 C   0  0  0  0  0  0  0  0  0  0  0  0
    2.2640   -2.2000    1.0900 C   0  0  0  0  0  0  0  0  0  0  0  0
    1.2360   -3.1660    1.5560 C   0  0  0  0  0  0  0  0  0  0  0  0
    2.1280   -1.4460   -0.0140 C   0  0  0  0  0  0  0  0  0  0  0  0
    0.9190   -1.5410   -0.8850 C   0  0  0  0  0  0  0  0  0  0  0  0
   -0.1370   -0.5350   -0.4150 C   0  0  0  0  0  0  0  0  0  0  0  0
   -1.5420   -0.8780   -0.9240 C   0  0  2  0  0  0  0  0  0  0  0  0
   -1.7420   -1.9570   -0.6650 H   0  0  0  0  0  0  0  0  0  0  0  0
   -1.6030   -0.8120   -2.4580 C   0  0  2  0  0  0  0  0  0  0  0  0
   -0.9580   -1.6490   -2.8470 H   0  0  0  0  0  0  0  0  0  0  0  0
   -1.0690    0.4670   -3.0880 C   0  0  0  0  0  0  0  0  0  0  0  0
   -3.0240   -1.0880   -2.9480 C   0  0  0  0  0  0  0  0  0  0  0  0
   -4.0270   -0.1600   -2.2870 C   0  0  0  0  0  0  0  0  0  0  0  0
   -3.9970   -0.4060   -0.7720 C   0  0  2  0  0  0  0  0  0  0  0  0
   -4.2250   -1.4930   -0.5960 H   0  0  0  0  0  0  0  0  0  0  0  0
   -5.0240    0.4230   -0.2940 O   0  0  0  0  0  0  0  0  0  0  0  0
   -5.5180    0.2370    1.0040 C   0  0  1  0  0  0  0  0  0  0  0  0
   -6.8940    0.9280    0.9500 C   0  0  0  0  0  0  0  0  0  0  0  0
   -5.7190   -1.2100    1.4440 C   0  0  0  0  0  0  0  0  0  0  0  0
   -4.5930    0.9690    1.9770 C   0  0  0  0  0  0  0  0  0  0  0  0
   -4.9560    2.0010    2.5120 O   0  0  0  0  0  0  0  0  0  0  0  0
   -3.2410    0.4050    2.3160 C   0  0  0  0  0  0  0  0  0  0  0  0
   -2.6150   -0.5400    1.3040 C   0  0  0  0  0  0  0  0  0  0  0  0
   -2.6200   -0.0580   -0.1620 C   0  0  1  0  0  0  0  0  0  0  0  0
   -2.3350    1.4360   -0.2070 C   0  0  0  0  0  0  0  0  0  0  0  0
    3.7410   -1.9740   -2.0080 H   0  0  0  0  0  0  0  0  0  0  0  0
    5.0850   -0.9010   -1.6350 H   0  0  0  0  0  0  0  0  0  0  0  0
    4.6810   -2.2150   -0.5360 H   0  0  0  0  0  0  0  0  0  0  0  0
    2.4210    0.1860   -2.3080 H   0  0  0  0  0  0  0  0  0  0  0  0
    1.8970    1.0940   -0.8960 H   0  0  0  0  0  0  0  0  0  0  0  0
    4.7080    1.1900   -2.2140 H   0  0  0  0  0  0  0  0  0  0  0  0
    3.4780    2.4250   -2.2670 H   0  0  0  0  0  0  0  0  0  0  0  0
    5.0950    3.8300   -1.0720 H   0  0  0  0  0  0  0  0  0  0  0  0
    7.0780    1.2710    0.1190 H   0  0  0  0  0  0  0  0  0  0  0  0
    6.6100   -0.3200    0.7090 H   0  0  0  0  0  0  0  0  0  0  0  0
    6.1830    0.1790   -0.9230 H   0  0  0  0  0  0  0  0  0  0  0  0
    4.3680    2.2050    2.4830 H   0  0  0  0  0  0  0  0  0  0  0  0
    5.7210    1.1020    2.7170 H   0  0  0  0  0  0  0  0  0  0  0  0
    5.9700    2.6320    1.8930 H   0  0  0  0  0  0  0  0  0  0  0  0
    5.1760   -0.9230    2.3680 H   0  0  0  0  0  0  0  0  0  0  0  0
    3.7200   -2.9280    2.5640 H   0  0  0  0  0  0  0  0  0  0  0  0
    1.3900   -3.4900    2.5970 H   0  0  0  0  0  0  0  0  0  0  0  0
    0.2160   -2.7540    1.5210 H   0  0  0  0  0  0  0  0  0  0  0  0
    1.2370   -4.0800    0.9420 H   0  0  0  0  0  0  0  0  0  0  0  0
    1.1890   -1.3750   -1.9510 H   0  0  0  0  0  0  0  0  0  0  0  0
    0.5180   -2.5790   -0.8910 H   0  0  0  0  0  0  0  0  0  0  0  0
   -0.1400   -0.5010    0.7000 H   0  0  0  0  0  0  0  0  0  0  0  0
    0.1770    0.4920   -0.7040 H   0  0  0  0  0  0  0  0  0  0  0  0
    0.0140    0.5920   -2.9430 H   0  0  0  0  0  0  0  0  0  0  0  0
   -1.2210    0.4790   -4.1790 H   0  0  0  0  0  0  0  0  0  0  0  0
   -1.5470    1.3800   -2.7030 H   0  0  0  0  0  0  0  0  0  0  0  0
   -3.0860   -0.9950   -4.0530 H   0  0  0  0  0  0  0  0  0  0  0  0
   -3.2950   -2.1500   -2.7610 H   0  0  0  0  0  0  0  0  0  0  0  0
   -3.8380    0.9020   -2.5380 H   0  0  0  0  0  0  0  0  0  0  0  0
   -5.0480   -0.3470   -2.6870 H   0  0  0  0  0  0  0  0  0  0  0  0
   -7.5810    0.4150    0.2610 H   0  0  0  0  0  0  0  0  0  0  0  0
   -7.3700    0.9520    1.9400 H   0  0  0  0  0  0  0  0  0  0  0  0
   -6.8200    1.9720    0.6080 H   0  0  0  0  0  0  0  0  0  0  0  0
   -4.7850   -1.7610    1.6310 H   0  0  0  0  0  0  0  0  0  0  0  0
   -6.2890   -1.2590    2.3840 H   0  0  0  0  0  0  0  0  0  0  0  0
   -6.2870   -1.7870    0.7010 H   0  0  0  0  0  0  0  0  0  0  0  0
   -2.5440    1.2450    2.5370 H   0  0  0  0  0  0  0  0  0  0  0  0
   -3.3420   -0.1140    3.2970 H   0  0  0  0  0  0  0  0  0  0  0  0
   -1.5660   -0.7250    1.6390 H   0  0  0  0  0  0  0  0  0  0  0  0
   -3.0900   -1.5450    1.3850 H   0  0  0  0  0  0  0  0  0  0  0  0
   -1.4730    1.7160    0.4160 H   0  0  0  0  0  0  0  0  0  0  0  0
   -2.1090    1.8030   -1.2190 H   0  0  0  0  0  0  0  0  0  0  0  0
   -3.1770    2.0510    0.1420 H   0  0  0  0  0  0  0  0  0  0  0  0
  1 39  1  0
  1 40  1  0
  1 41  1  0
  2  1  1  6
  2  3  1  0
  2 17  1  0
  2 11  1  0
  3 42  1  0
  3  4  1  0
  3 43  1  0
  4 45  1  0
  4 44  1  0
  4  5  1  0
  5  7  1  0
  5  6  1  1
  5  8  1  0
  7 46  1  0
  8  9  1  6
  8 11  1  0
  8 10  1  0
  9 49  1  0
  9 47  1  0
  9 48  1  0
 10 52  1  0
 10 50  1  0
 10 51  1  0
 11 12  1  1
 11 13  1  0
 13 14  2  0
 13 53  1  0
 14 15  1  0
 14 54  1  0
 15 17  2  0
 15 16  1  0
 16 57  1  0
 16 56  1  0
 16 55  1  0
 17 18  1  0
 18 58  1  0
 18 59  1  0
 18 19  1  0
 19 20  1  0
 19 61  1  0
 19 60  1  0
 20 22  1  0
 20 21  1  6
 20 37  1  0
 22 24  1  0
 22 25  1  0
 22 23  1  6
 24 63  1  0
 24 62  1  0
 24 64  1  0
 25 65  1  0
 25 66  1  0
 25 26  1  0
 26 68  1  0
 26 67  1  0
 26 27  1  0
 27 28  1  6
 27 29  1  0
 27 37  1  0
 29 30  1  0
 30 31  1  6
 30 32  1  0
 30 33  1  0
 31 69  1  0
 31 71  1  0
 31 70  1  0
 32 74  1  0
 32 72  1  0
 32 73  1  0
 33 35  1  0
 33 34  2  0
 35 36  1  0
 35 75  1  0
 35 76  1  0
 36 37  1  0
 36 78  1  0
 36 77  1  0
 37 38  1  1
 38 80  1  0
 38 81  1  0
 38 79  1  0
M  END
>  <id>  (320) 
422

>  <scaffolds>  (320) 
['C1CCCCC1', 'O=C1CCC2C(CCC3=CC=CC4CCCCC34)CCCC2OC1']

>  <name>  (320) 
Sodwanone Q

>  <formula>  (320) 
C30H48O3

>  <SMILES>  (320) 
C[C@@]34CC[C@H](O)[C@@](C)(C)[C@@H]4/C=C\C(\C)=C3\CC[C@@H]1[C@H](C)CC[C@@H]2O[C@@](C)(C)C(=O)CC[C@@]12C

>  <ChEMBL_id>  (320) 


>  <ZINC_id>  (320) 


>  <PubChem_id>  (320) 


>  <DrugBank_id>  (320) 


>  <CAS_no>  (320) 
233607-71-1

>  <references>  (320) 
[{'journal': {'name': 'Tetrahedron', 'id': 4}, 'title': 'Several new isoprenoids from two marine sponges of the family Axinellidae', 'year': 1999, 'start_page': 5555, 'volume': 55, 'issue': 17, 'doi': '10.1016/S0040-4020(99)00221-5', 'isbn': '', 'despositor': {'code': 'TMM', 'first_name': 'Thommas', 'last_name': 'Musyoka', 'id': 22}, 'refauthors_set': [{'author': {'first_name': 'Amira', 'initials': 'A', 'last_name': 'Rudi', 'id': 534}, 'first_author': True, 'id': 918}, {'author': {'first_name': '', 'initials': 'T', 'last_name': 'Yosief', 'id': 670}, 'first_author': False, 'id': 919}, {'author': {'first_name': 'Michael', 'initials': 'M', 'last_name': 'Schleyer', 'id': 452}, 'first_author': False, 'id': 920}, {'author': {'first_name': 'Yoel', 'initials': 'Y', 'last_name': 'Kashman', 'id': 536}, 'first_author': False, 'id': 921}], 'id': 312}]

>  <classifications>  (320) 
[{'classification': 'Terpenoid', 'id': 839}, {'classification': 'Triterpene', 'id': 842}, {'classification': 'Phenol lipids (Classyfire)', 'id': 951}]

>  <molecular_mass>  (320) 
456.7

$$$$
SANC00423_minRM1.pdb
     RDKit          3D

 97 97  0  0  1  0  0  0  0  0999 V2000
  -18.9500    1.0980    0.1600 C   0  0  0  0  0  0  0  0  0  0  0  0
  -17.6840    0.6980   -0.5790 C   0  0  0  0  0  0  0  0  0  0  0  0
  -16.4500    0.9460    0.2860 C   0  0  0  0  0  0  0  0  0  0  0  0
  -15.1790    0.5420   -0.4590 C   0  0  0  0  0  0  0  0  0  0  0  0
  -13.9430    0.7890    0.4030 C   0  0  0  0  0  0  0  0  0  0  0  0
  -12.6770    0.3820   -0.3480 C   0  0  0  0  0  0  0  0  0  0  0  0
  -11.4330    0.6250    0.5030 C   0  0  0  0  0  0  0  0  0  0  0  0
  -10.1770    0.2140   -0.2620 C   0  0  0  0  0  0  0  0  0  0  0  0
   -8.9200    0.4530    0.5730 C   0  0  0  0  0  0  0  0  0  0  0  0
   -7.6780    0.0430   -0.2150 C   0  0  0  0  0  0  0  0  0  0  0  0
   -6.4050    0.2670    0.6000 C   0  0  0  0  0  0  0  0  0  0  0  0
   -5.1840   -0.1320   -0.2250 C   0  0  0  0  0  0  0  0  0  0  0  0
   -3.8970    0.0720    0.5710 C   0  0  0  0  0  0  0  0  0  0  0  0
   -2.7140   -0.3260   -0.2630 C   0  0  0  0  0  0  0  0  0  0  0  0
   -2.7120   -0.7520   -1.4040 O   0  0  0  0  0  0  0  0  0  0  0  0
   -1.5440   -0.1630    0.4120 O   0  0  0  0  0  0  0  0  0  0  0  0
   -0.3340   -0.4400   -0.2730 C   0  0  1  0  0  0  0  0  0  0  0  0
   -0.3520   -0.0160   -1.3150 H   0  0  0  0  0  0  0  0  0  0  0  0
    0.7440    0.2600    0.5590 C   0  0  0  0  0  0  0  0  0  0  0  0
    2.1010    0.2100   -0.1310 C   0  0  0  0  0  0  0  0  0  0  0  0
    2.6870   -1.2160   -0.1900 C   0  0  1  0  0  0  0  0  0  0  0  0
    2.4320   -1.7830    0.7490 H   0  0  0  0  0  0  0  0  0  0  0  0
    2.1060   -1.9410   -1.4100 C   0  0  0  0  0  0  0  0  0  0  0  0
    2.7730   -2.1930   -2.4130 O   0  0  0  0  0  0  0  0  0  0  0  0
    0.7830   -2.3390   -1.3760 N   0  0  0  0  0  0  0  0  0  0  0  0
   -0.1260   -1.9750   -0.3020 C   0  0  0  0  0  0  0  0  0  0  0  0
    4.1410   -1.1580   -0.3440 N   0  0  0  0  0  0  0  0  0  0  0  0
    5.0180   -1.5820    0.6400 C   0  0  0  0  0  0  0  0  0  0  0  0
    4.6290   -2.0030    1.7240 O   0  0  0  0  0  0  0  0  0  0  0  0
    6.5120   -1.5070    0.2940 C   0  0  1  0  0  0  0  0  0  0  0  0
    6.7040   -1.8330   -0.7630 H   0  0  0  0  0  0  0  0  0  0  0  0
    7.0490   -0.0710    0.5270 C   0  0  1  0  0  0  0  0  0  0  0  0
    6.8890    0.2430    1.5930 H   0  0  0  0  0  0  0  0  0  0  0  0
    8.5590   -0.0180    0.1500 C   0  0  2  0  0  0  0  0  0  0  0  0
    9.0580   -0.9970    0.3760 H   0  0  0  0  0  0  0  0  0  0  0  0
    9.2900    1.0970    0.9450 C   0  0  1  0  0  0  0  0  0  0  0  0
    9.4120    0.7710    2.0110 H   0  0  0  0  0  0  0  0  0  0  0  0
   10.6450    1.3420    0.3470 C   0  0  0  0  0  0  0  0  0  0  0  0
   11.1960    2.5440    0.2340 C   0  0  0  0  0  0  0  0  0  0  0  0
   12.5530    2.7370   -0.3710 C   0  0  1  0  0  0  0  0  0  0  0  0
   12.3800    3.0360   -1.8580 C   0  0  0  0  0  0  0  0  0  0  0  0
   13.2790    3.8860    0.3220 C   0  0  0  0  0  0  0  0  0  0  0  0
    8.5310    2.2500    1.0660 O   0  0  0  0  0  0  0  0  0  0  0  0
    8.6270    0.1130   -1.2380 O   0  0  0  0  0  0  0  0  0  0  0  0
    6.3150    0.8520   -0.2070 O   0  0  0  0  0  0  0  0  0  0  0  0
    7.1800   -2.2960    1.2480 O   0  0  0  0  0  0  0  0  0  0  0  0
    7.3270   -3.6420    0.8620 C   0  0  0  0  0  0  0  0  0  0  0  0
  -18.9530    2.1630    0.4360 H   0  0  0  0  0  0  0  0  0  0  0  0
  -19.8500    0.9270   -0.4480 H   0  0  0  0  0  0  0  0  0  0  0  0
  -19.0870    0.5300    1.0930 H   0  0  0  0  0  0  0  0  0  0  0  0
  -17.7390   -0.3690   -0.8830 H   0  0  0  0  0  0  0  0  0  0  0  0
  -17.6070    1.2580   -1.5370 H   0  0  0  0  0  0  0  0  0  0  0  0
  -16.4000    2.0140    0.5870 H   0  0  0  0  0  0  0  0  0  0  0  0
  -16.5330    0.3870    1.2430 H   0  0  0  0  0  0  0  0  0  0  0  0
  -15.2330   -0.5260   -0.7600 H   0  0  0  0  0  0  0  0  0  0  0  0
  -15.1000    1.1010   -1.4170 H   0  0  0  0  0  0  0  0  0  0  0  0
  -13.8870    1.8570    0.7030 H   0  0  0  0  0  0  0  0  0  0  0  0
  -14.0210    0.2320    1.3610 H   0  0  0  0  0  0  0  0  0  0  0  0
  -12.7350   -0.6870   -0.6480 H   0  0  0  0  0  0  0  0  0  0  0  0
  -12.6030    0.9380   -1.3080 H   0  0  0  0  0  0  0  0  0  0  0  0
  -11.3710    1.6930    0.8020 H   0  0  0  0  0  0  0  0  0  0  0  0
  -11.5040    0.0680    1.4620 H   0  0  0  0  0  0  0  0  0  0  0  0
  -10.2420   -0.8540   -0.5610 H   0  0  0  0  0  0  0  0  0  0  0  0
  -10.1130    0.7710   -1.2220 H   0  0  0  0  0  0  0  0  0  0  0  0
   -8.8530    1.5180    0.8770 H   0  0  0  0  0  0  0  0  0  0  0  0
   -8.9770   -0.1100    1.5280 H   0  0  0  0  0  0  0  0  0  0  0  0
   -7.7520   -1.0210   -0.5240 H   0  0  0  0  0  0  0  0  0  0  0  0
   -7.6260    0.6090   -1.1700 H   0  0  0  0  0  0  0  0  0  0  0  0
   -6.3290    1.3270    0.9190 H   0  0  0  0  0  0  0  0  0  0  0  0
   -6.4440   -0.3110    1.5470 H   0  0  0  0  0  0  0  0  0  0  0  0
   -5.2620   -1.1920   -0.5510 H   0  0  0  0  0  0  0  0  0  0  0  0
   -5.1440    0.4490   -1.1700 H   0  0  0  0  0  0  0  0  0  0  0  0
   -3.7840    1.1300    0.8910 H   0  0  0  0  0  0  0  0  0  0  0  0
   -3.9040   -0.5130    1.5150 H   0  0  0  0  0  0  0  0  0  0  0  0
    0.4570    1.3220    0.7270 H   0  0  0  0  0  0  0  0  0  0  0  0
    0.7990   -0.1640    1.5840 H   0  0  0  0  0  0  0  0  0  0  0  0
    2.0490    0.6580   -1.1450 H   0  0  0  0  0  0  0  0  0  0  0  0
    2.8010    0.8770    0.4220 H   0  0  0  0  0  0  0  0  0  0  0  0
    0.3890   -2.7870   -2.2010 H   0  0  0  0  0  0  0  0  0  0  0  0
    0.2280   -2.3500    0.6860 H   0  0  0  0  0  0  0  0  0  0  0  0
   -1.0930   -2.5110   -0.4560 H   0  0  0  0  0  0  0  0  0  0  0  0
    4.4870   -0.8070   -1.2290 H   0  0  0  0  0  0  0  0  0  0  0  0
   11.1750    0.4350    0.0380 H   0  0  0  0  0  0  0  0  0  0  0  0
   10.6850    3.4580    0.5750 H   0  0  0  0  0  0  0  0  0  0  0  0
   13.1700    1.8070   -0.2520 H   0  0  0  0  0  0  0  0  0  0  0  0
   13.3480    3.1900   -2.3590 H   0  0  0  0  0  0  0  0  0  0  0  0
   11.8800    2.2100   -2.3850 H   0  0  0  0  0  0  0  0  0  0  0  0
   11.7830    3.9410   -2.0370 H   0  0  0  0  0  0  0  0  0  0  0  0
   13.3740    3.7180    1.4050 H   0  0  0  0  0  0  0  0  0  0  0  0
   14.2970    4.0200   -0.0700 H   0  0  0  0  0  0  0  0  0  0  0  0
   12.7630    4.8500    0.1970 H   0  0  0  0  0  0  0  0  0  0  0  0
    8.2610    2.5440    0.1920 H   0  0  0  0  0  0  0  0  0  0  0  0
    9.0170    0.9590   -1.4730 H   0  0  0  0  0  0  0  0  0  0  0  0
    6.3840    0.6490   -1.1470 H   0  0  0  0  0  0  0  0  0  0  0  0
    7.6680   -4.1570    1.7710 H   0  0  0  0  0  0  0  0  0  0  0  0
    6.3930   -4.1200    0.5210 H   0  0  0  0  0  0  0  0  0  0  0  0
    8.0960   -3.7590    0.0740 H   0  0  0  0  0  0  0  0  0  0  0  0
  1  2  1  0
  1 49  1  0
  1 48  1  0
  1 50  1  0
  2 52  1  0
  2 51  1  0
  2  3  1  0
  3  4  1  0
  3 53  1  0
  3 54  1  0
  4 56  1  0
  4 55  1  0
  4  5  1  0
  5  6  1  0
  5 57  1  0
  5 58  1  0
  6 60  1  0
  6 59  1  0
  6  7  1  0
  7  8  1  0
  7 61  1  0
  7 62  1  0
  8 64  1  0
  8 63  1  0
  8  9  1  0
  9 10  1  0
  9 65  1  0
  9 66  1  0
 10 68  1  0
 10 67  1  0
 10 11  1  0
 11 12  1  0
 11 69  1  0
 11 70  1  0
 12 72  1  0
 12 71  1  0
 12 13  1  0
 13 14  1  0
 13 73  1  0
 13 74  1  0
 14 15  2  0
 14 16  1  0
 16 17  1  0
 17 18  1  6
 17 26  1  0
 17 19  1  0
 19 20  1  0
 19 75  1  0
 19 76  1  0
 20 77  1  0
 20 21  1  0
 20 78  1  0
 21 23  1  0
 21 27  1  0
 21 22  1  1
 23 24  2  0
 23 25  1  0
 25 79  1  0
 25 26  1  0
 26 81  1  0
 26 80  1  0
 27 82  1  0
 27 28  1  0
 28 30  1  0
 28 29  2  0
 30 31  1  6
 30 32  1  0
 30 46  1  0
 32 45  1  0
 32 34  1  0
 32 33  1  1
 34 44  1  0
 34 35  1  6
 34 36  1  0
 36 38  1  0
 36 43  1  0
 36 37  1  1
 38 83  1  0
 38 39  2  0
 39 40  1  0
 39 84  1  0
 40 41  1  0
 40 85  1  6
 40 42  1  0
 41 87  1  0
 41 86  1  0
 41 88  1  0
 42 90  1  0
 42 91  1  0
 42 89  1  0
 43 92  1  0
 44 93  1  0
 45 94  1  0
 46 47  1  0
 47 97  1  0
 47 96  1  0
 47 95  1  0
M  END
>  <id>  (321) 
423

>  <scaffolds>  (321) 
['O=C1CCCCCN1']

>  <name>  (321) 
Bengamide A

>  <formula>  (321) 
C31H56N2O8

>  <SMILES>  (321) 
CCCCCCCCCCCCCC(=O)O[C@H]1CC[C@@H](C(=O)NC1)NC(=O)[C@@H]([C@@H]([C@H]([C@@H](/C=C/C(C)C)O)O)O)OC

>  <ChEMBL_id>  (321) 
CHEMBL256279

>  <ZINC_id>  (321) 


>  <PubChem_id>  (321) 
 10077016

>  <DrugBank_id>  (321) 


>  <CAS_no>  (321) 
104947-68-4

>  <references>  (321) 
[{'journal': {'name': 'Journal of Natural Products', 'id': 5}, 'title': 'Amino Acid Derivatives from the Marine Sponge Jaspis digonoxea', 'year': 1994, 'start_page': 829, 'volume': 57, 'issue': 6, 'doi': '10.1021/np50108a023', 'isbn': '', 'despositor': {'code': 'TMM', 'first_name': 'Thommas', 'last_name': 'Musyoka', 'id': 22}, 'refauthors_set': [{'author': {'first_name': 'Amira', 'initials': 'A', 'last_name': 'Rudi', 'id': 534}, 'first_author': True, 'id': 922}, {'author': {'first_name': 'Yoel', 'initials': 'Y', 'last_name': 'Kashman', 'id': 536}, 'first_author': False, 'id': 923}, {'author': {'first_name': 'Yehuda', 'initials': 'Y', 'last_name': 'Benayahu', 'id': 535}, 'first_author': False, 'id': 924}, {'author': {'first_name': 'Michael', 'initials': 'M', 'last_name': 'Schleyer', 'id': 452}, 'first_author': False, 'id': 925}], 'id': 313}]

>  <classifications>  (321) 
[{'classification': 'Cyclic peptide', 'id': 765}, {'classification': 'Carboxylic acids and derivatives (Classyfire)', 'id': 950}]

>  <molecular_mass>  (321) 
584.78

$$$$
SANC00424_minRM1.pdb
     RDKit          3D

100100  0  0  1  0  0  0  0  0999 V2000
   18.9480   -1.1420    0.0090 C   0  0  0  0  0  0  0  0  0  0  0  0
   17.6700   -0.7010   -0.6880 C   0  0  0  0  0  0  0  0  0  0  0  0
   16.4480   -1.0200    0.1710 C   0  0  0  0  0  0  0  0  0  0  0  0
   15.1660   -0.5730   -0.5300 C   0  0  0  0  0  0  0  0  0  0  0  0
   13.9410   -0.8900    0.3270 C   0  0  0  0  0  0  0  0  0  0  0  0
   12.6630   -0.4350   -0.3770 C   0  0  0  0  0  0  0  0  0  0  0  0
   11.4320   -0.7460    0.4720 C   0  0  0  0  0  0  0  0  0  0  0  0
   10.1630   -0.2770   -0.2390 C   0  0  0  0  0  0  0  0  0  0  0  0
    8.9200   -0.5830    0.5960 C   0  0  0  0  0  0  0  0  0  0  0  0
    7.6650   -0.1000   -0.1280 C   0  0  0  0  0  0  0  0  0  0  0  0
    6.4070   -0.3970    0.6850 C   0  0  0  0  0  0  0  0  0  0  0  0
    5.1720    0.0920   -0.0670 C   0  0  0  0  0  0  0  0  0  0  0  0
    3.9000   -0.1980    0.7250 C   0  0  0  0  0  0  0  0  0  0  0  0
    2.7050    0.3100   -0.0290 C   0  0  0  0  0  0  0  0  0  0  0  0
    2.6870    0.9090   -1.0890 O   0  0  0  0  0  0  0  0  0  0  0  0
    1.5440    0.0290    0.6210 O   0  0  0  0  0  0  0  0  0  0  0  0
    0.3240    0.3980    0.0010 C   0  0  1  0  0  0  0  0  0  0  0  0
    0.3340    0.1370   -1.0940 H   0  0  0  0  0  0  0  0  0  0  0  0
   -0.7370   -0.4380    0.7260 C   0  0  0  0  0  0  0  0  0  0  0  0
   -2.0920   -0.3340    0.0390 C   0  0  0  0  0  0  0  0  0  0  0  0
   -2.6590    1.0990    0.0750 C   0  0  1  0  0  0  0  0  0  0  0  0
   -2.4430    1.5820    1.0690 H   0  0  0  0  0  0  0  0  0  0  0  0
   -2.0130    1.9010   -1.0680 C   0  0  0  0  0  0  0  0  0  0  0  0
   -2.5940    2.0850   -2.1330 O   0  0  0  0  0  0  0  0  0  0  0  0
   -0.7600    2.4770   -0.8350 N   0  0  0  0  0  0  0  0  0  0  0  0
    0.1020    1.9160    0.2110 C   0  0  0  0  0  0  0  0  0  0  0  0
   -0.0630    3.1220   -1.9670 C   0  0  0  0  0  0  0  0  0  0  0  0
   -4.1060    1.0740   -0.1520 N   0  0  0  0  0  0  0  0  0  0  0  0
   -5.0240    1.4500    0.8210 C   0  0  0  0  0  0  0  0  0  0  0  0
   -4.6820    1.8030    1.9400 O   0  0  0  0  0  0  0  0  0  0  0  0
   -6.5010    1.4110    0.4030 C   0  0  1  0  0  0  0  0  0  0  0  0
   -6.6410    1.7670   -0.6550 H   0  0  0  0  0  0  0  0  0  0  0  0
   -7.0620   -0.0270    0.5700 C   0  0  1  0  0  0  0  0  0  0  0  0
   -6.9320   -0.3830    1.6260 H   0  0  0  0  0  0  0  0  0  0  0  0
   -8.5590   -0.0590    0.1530 C   0  0  2  0  0  0  0  0  0  0  0  0
   -9.0640    0.9020    0.4290 H   0  0  0  0  0  0  0  0  0  0  0  0
   -9.3070   -1.2220    0.8580 C   0  0  1  0  0  0  0  0  0  0  0  0
   -9.4490   -0.9670    1.9410 H   0  0  0  0  0  0  0  0  0  0  0  0
  -10.6520   -1.4170    0.2150 C   0  0  0  0  0  0  0  0  0  0  0  0
  -11.2020   -2.6070    0.0100 C   0  0  0  0  0  0  0  0  0  0  0  0
  -12.5570   -2.7620   -0.6090 C   0  0  1  0  0  0  0  0  0  0  0  0
  -12.3830   -3.0340   -2.1010 C   0  0  0  0  0  0  0  0  0  0  0  0
  -13.3080   -3.9110    0.0550 C   0  0  0  0  0  0  0  0  0  0  0  0
   -8.5500   -2.3820    0.9140 O   0  0  0  0  0  0  0  0  0  0  0  0
   -8.6030   -0.0990   -1.2390 O   0  0  0  0  0  0  0  0  0  0  0  0
   -6.3200   -0.9260   -0.1840 O   0  0  0  0  0  0  0  0  0  0  0  0
   -7.1940    2.1920    1.3400 O   0  0  0  0  0  0  0  0  0  0  0  0
   -7.3480    3.5390    0.9700 C   0  0  0  0  0  0  0  0  0  0  0  0
   19.0920   -0.6370    0.9780 H   0  0  0  0  0  0  0  0  0  0  0  0
   18.9620   -2.2240    0.2110 H   0  0  0  0  0  0  0  0  0  0  0  0
   19.8400   -0.9190   -0.5960 H   0  0  0  0  0  0  0  0  0  0  0  0
   17.7140    0.3860   -0.9180 H   0  0  0  0  0  0  0  0  0  0  0  0
   17.5860   -1.1940   -1.6830 H   0  0  0  0  0  0  0  0  0  0  0  0
   16.4080   -2.1070    0.3980 H   0  0  0  0  0  0  0  0  0  0  0  0
   16.5390   -0.5280    1.1660 H   0  0  0  0  0  0  0  0  0  0  0  0
   15.2080    0.5140   -0.7570 H   0  0  0  0  0  0  0  0  0  0  0  0
   15.0780   -1.0650   -1.5250 H   0  0  0  0  0  0  0  0  0  0  0  0
   13.8930   -1.9780    0.5490 H   0  0  0  0  0  0  0  0  0  0  0  0
   14.0300   -0.4030    1.3240 H   0  0  0  0  0  0  0  0  0  0  0  0
   12.7130    0.6530   -0.5990 H   0  0  0  0  0  0  0  0  0  0  0  0
   12.5770   -0.9220   -1.3740 H   0  0  0  0  0  0  0  0  0  0  0  0
   11.3740   -1.8350    0.6880 H   0  0  0  0  0  0  0  0  0  0  0  0
   11.5190   -0.2650    1.4710 H   0  0  0  0  0  0  0  0  0  0  0  0
   10.2230    0.8120   -0.4540 H   0  0  0  0  0  0  0  0  0  0  0  0
   10.0830   -0.7570   -1.2390 H   0  0  0  0  0  0  0  0  0  0  0  0
    8.8520   -1.6710    0.8080 H   0  0  0  0  0  0  0  0  0  0  0  0
    8.9990   -0.1060    1.5970 H   0  0  0  0  0  0  0  0  0  0  0  0
    7.7370    0.9890   -0.3390 H   0  0  0  0  0  0  0  0  0  0  0  0
    7.5950   -0.5760   -1.1300 H   0  0  0  0  0  0  0  0  0  0  0  0
    6.3280   -1.4840    0.8990 H   0  0  0  0  0  0  0  0  0  0  0  0
    6.4700    0.0820    1.6860 H   0  0  0  0  0  0  0  0  0  0  0  0
    5.2490    1.1800   -0.2790 H   0  0  0  0  0  0  0  0  0  0  0  0
    5.1120   -0.3840   -1.0690 H   0  0  0  0  0  0  0  0  0  0  0  0
    3.7840   -1.2840    0.9230 H   0  0  0  0  0  0  0  0  0  0  0  0
    3.9310    0.2740    1.7300 H   0  0  0  0  0  0  0  0  0  0  0  0
   -0.4240   -1.5060    0.7610 H   0  0  0  0  0  0  0  0  0  0  0  0
   -0.8080   -0.1510    1.7980 H   0  0  0  0  0  0  0  0  0  0  0  0
   -2.0380   -0.7120   -1.0060 H   0  0  0  0  0  0  0  0  0  0  0  0
   -2.8010   -1.0300    0.5430 H   0  0  0  0  0  0  0  0  0  0  0  0
   -0.3320    2.1250    1.2180 H   0  0  0  0  0  0  0  0  0  0  0  0
    1.0730    2.4650    0.2340 H   0  0  0  0  0  0  0  0  0  0  0  0
   -0.7620    3.6910   -2.5980 H   0  0  0  0  0  0  0  0  0  0  0  0
    0.6870    3.8420   -1.6000 H   0  0  0  0  0  0  0  0  0  0  0  0
    0.4590    2.4070   -2.6240 H   0  0  0  0  0  0  0  0  0  0  0  0
   -4.4140    0.7770   -1.0700 H   0  0  0  0  0  0  0  0  0  0  0  0
  -11.1750   -0.4850   -0.0480 H   0  0  0  0  0  0  0  0  0  0  0  0
  -10.6940   -3.5430    0.2780 H   0  0  0  0  0  0  0  0  0  0  0  0
  -13.1580   -1.8240   -0.4770 H   0  0  0  0  0  0  0  0  0  0  0  0
  -11.8620   -2.2100   -2.6080 H   0  0  0  0  0  0  0  0  0  0  0  0
  -11.8010   -3.9470   -2.2940 H   0  0  0  0  0  0  0  0  0  0  0  0
  -13.3500   -3.1610   -2.6080 H   0  0  0  0  0  0  0  0  0  0  0  0
  -13.4050   -3.7640    1.1400 H   0  0  0  0  0  0  0  0  0  0  0  0
  -14.3270   -4.0170   -0.3440 H   0  0  0  0  0  0  0  0  0  0  0  0
  -12.8120   -4.8820   -0.0920 H   0  0  0  0  0  0  0  0  0  0  0  0
   -8.2660   -2.6200    0.0270 H   0  0  0  0  0  0  0  0  0  0  0  0
   -8.9190   -0.9570   -1.5310 H   0  0  0  0  0  0  0  0  0  0  0  0
   -6.3420   -0.6770   -1.1090 H   0  0  0  0  0  0  0  0  0  0  0  0
   -7.7210    4.0400    1.8740 H   0  0  0  0  0  0  0  0  0  0  0  0
   -6.4110    4.0250    0.6610 H   0  0  0  0  0  0  0  0  0  0  0  0
   -8.0860    3.6510    0.1710 H   0  0  0  0  0  0  0  0  0  0  0  0
  1  2  1  0
  1 51  1  0
  1 50  1  0
  1 49  1  0
  2 53  1  0
  2 52  1  0
  2  3  1  0
  3  4  1  0
  3 54  1  0
  3 55  1  0
  4 57  1  0
  4 56  1  0
  4  5  1  0
  5  6  1  0
  5 58  1  0
  5 59  1  0
  6 61  1  0
  6 60  1  0
  6  7  1  0
  7  8  1  0
  7 62  1  0
  7 63  1  0
  8 65  1  0
  8 64  1  0
  8  9  1  0
  9 10  1  0
  9 66  1  0
  9 67  1  0
 10 69  1  0
 10 68  1  0
 10 11  1  0
 11 12  1  0
 11 70  1  0
 11 71  1  0
 12 73  1  0
 12 72  1  0
 12 13  1  0
 13 14  1  0
 13 74  1  0
 13 75  1  0
 14 15  2  0
 14 16  1  0
 16 17  1  0
 17 18  1  6
 17 26  1  0
 17 19  1  0
 19 20  1  0
 19 76  1  0
 19 77  1  0
 20 78  1  0
 20 21  1  0
 20 79  1  0
 21 23  1  0
 21 28  1  0
 21 22  1  1
 23 24  2  0
 23 25  1  0
 25 27  1  0
 25 26  1  0
 26 81  1  0
 26 80  1  0
 27 84  1  0
 27 82  1  0
 27 83  1  0
 28 85  1  0
 28 29  1  0
 29 31  1  0
 29 30  2  0
 31 32  1  6
 31 33  1  0
 31 47  1  0
 33 46  1  0
 33 35  1  0
 33 34  1  1
 35 45  1  0
 35 36  1  1
 35 37  1  0
 37 39  1  0
 37 44  1  0
 37 38  1  1
 39 86  1  0
 39 40  2  0
 40 41  1  0
 40 87  1  0
 41 42  1  0
 41 88  1  6
 41 43  1  0
 42 89  1  0
 42 91  1  0
 42 90  1  0
 43 93  1  0
 43 94  1  0
 43 92  1  0
 44 95  1  0
 45 96  1  0
 46 97  1  0
 47 48  1  0
 48100  1  0
 48 99  1  0
 48 98  1  0
M  END
>  <id>  (322) 
424

>  <scaffolds>  (322) 
['O=C1CCCCCN1']

>  <name>  (322) 
Bengamide B

>  <formula>  (322) 
C32H58N2O8

>  <SMILES>  (322) 
CCCCCCCCCCCCCC(=O)O[C@H]1CC[C@@H](C(=O)N(C1)C)NC(=O)[C@@H]([C@@H]([C@H]([C@@H](/C=C/C(C)C)O)O)O)OC

>  <ChEMBL_id>  (322) 
CHEMBL446079

>  <ZINC_id>  (322) 


>  <PubChem_id>  (322) 
 6444128

>  <DrugBank_id>  (322) 


>  <CAS_no>  (322) 
104947-69-5

>  <references>  (322) 
[{'journal': {'name': 'Journal of Natural Products', 'id': 5}, 'title': 'Amino Acid Derivatives from the Marine Sponge Jaspis digonoxea', 'year': 1994, 'start_page': 829, 'volume': 57, 'issue': 6, 'doi': '10.1021/np50108a023', 'isbn': '', 'despositor': {'code': 'TMM', 'first_name': 'Thommas', 'last_name': 'Musyoka', 'id': 22}, 'refauthors_set': [{'author': {'first_name': 'Amira', 'initials': 'A', 'last_name': 'Rudi', 'id': 534}, 'first_author': True, 'id': 922}, {'author': {'first_name': 'Yoel', 'initials': 'Y', 'last_name': 'Kashman', 'id': 536}, 'first_author': False, 'id': 923}, {'author': {'first_name': 'Yehuda', 'initials': 'Y', 'last_name': 'Benayahu', 'id': 535}, 'first_author': False, 'id': 924}, {'author': {'first_name': 'Michael', 'initials': 'M', 'last_name': 'Schleyer', 'id': 452}, 'first_author': False, 'id': 925}], 'id': 313}]

>  <classifications>  (322) 
[{'classification': 'Cyclic peptide', 'id': 765}, {'classification': 'Carboxylic acids and derivatives (Classyfire)', 'id': 950}]

>  <molecular_mass>  (322) 
598.81

$$$$
SANC00425_minRM1.pdb
     RDKit          3D

 35 37  0  0  1  0  0  0  0  0999 V2000
    0.8990   -2.4070   -0.8490 O   0  0  0  0  0  0  0  0  0  0  0  0
    0.8620   -1.3360   -0.2550 C   0  0  0  0  0  0  0  0  0  0  0  0
    2.0210   -0.7310    0.2060 N   0  0  0  0  0  0  0  0  0  0  0  0
    2.0210    0.6180    0.7880 C   0  0  2  0  0  0  0  0  0  0  0  0
    1.8370    0.5430    1.8970 H   0  0  0  0  0  0  0  0  0  0  0  0
    0.8930    1.4750    0.2170 C   0  0  0  0  0  0  0  0  0  0  0  0
    0.9800    2.6910    0.0750 O   0  0  0  0  0  0  0  0  0  0  0  0
   -0.2810    0.8230   -0.1160 N   0  0  0  0  0  0  0  0  0  0  0  0
   -0.4410   -0.6130    0.1060 C   0  0  1  0  0  0  0  0  0  0  0  0
   -0.6470   -0.8180    1.1970 H   0  0  0  0  0  0  0  0  0  0  0  0
   -1.5970   -1.1640   -0.7490 C   0  0  0  0  0  0  0  0  0  0  0  0
   -2.8790   -0.5030   -0.3660 C   0  0  0  0  0  0  0  0  0  0  0  0
   -3.4770   -0.8220    0.8500 C   0  0  0  0  0  0  0  0  0  0  0  0
   -4.6700   -0.2140    1.2180 C   0  0  0  0  0  0  0  0  0  0  0  0
   -5.2710    0.7110    0.3720 C   0  0  0  0  0  0  0  0  0  0  0  0
   -4.6780    1.0240   -0.8440 C   0  0  0  0  0  0  0  0  0  0  0  0
   -3.4830    0.4190   -1.2140 C   0  0  0  0  0  0  0  0  0  0  0  0
    3.4150    1.2100    0.5100 C   0  0  0  0  0  0  0  0  0  0  0  0
    4.2070    0.1340   -0.2610 C   0  0  1  0  0  0  0  0  0  0  0  0
    4.3550    0.4440   -1.3310 H   0  0  0  0  0  0  0  0  0  0  0  0
    5.4270   -0.0170    0.3970 O   0  0  0  0  0  0  0  0  0  0  0  0
    3.3660   -1.1670   -0.1880 C   0  0  0  0  0  0  0  0  0  0  0  0
   -1.0730    1.3520   -0.4730 H   0  0  0  0  0  0  0  0  0  0  0  0
   -1.3720   -1.0500   -1.8310 H   0  0  0  0  0  0  0  0  0  0  0  0
   -1.6740   -2.2650   -0.6060 H   0  0  0  0  0  0  0  0  0  0  0  0
   -3.0160   -1.5580    1.5160 H   0  0  0  0  0  0  0  0  0  0  0  0
   -5.1390   -0.4660    2.1740 H   0  0  0  0  0  0  0  0  0  0  0  0
   -6.2110    1.1900    0.6630 H   0  0  0  0  0  0  0  0  0  0  0  0
   -5.1530    1.7480   -1.5130 H   0  0  0  0  0  0  0  0  0  0  0  0
   -3.0310    0.6670   -2.1790 H   0  0  0  0  0  0  0  0  0  0  0  0
    3.3770    2.1570   -0.0640 H   0  0  0  0  0  0  0  0  0  0  0  0
    3.9130    1.4960    1.4610 H   0  0  0  0  0  0  0  0  0  0  0  0
    5.9620   -0.6240   -0.1240 H   0  0  0  0  0  0  0  0  0  0  0  0
    3.7620   -1.8850    0.5680 H   0  0  0  0  0  0  0  0  0  0  0  0
    3.3600   -1.7260   -1.1520 H   0  0  0  0  0  0  0  0  0  0  0  0
  1  2  2  0
  2  9  1  0
  2  3  1  0
  3 22  1  0
  3  4  1  0
  4  6  1  0
  4 18  1  0
  4  5  1  1
  6  8  1  0
  6  7  2  0
  8 23  1  0
  8  9  1  0
  9 11  1  0
  9 10  1  1
 11 24  1  0
 11 25  1  0
 11 12  1  0
 12 17  2  0
 12 13  1  0
 13 14  2  0
 13 26  1  0
 14 15  1  0
 14 27  1  0
 15 16  2  0
 15 28  1  0
 16 29  1  0
 16 17  1  0
 17 30  1  0
 18 19  1  0
 18 31  1  0
 18 32  1  0
 19 20  1  6
 19 22  1  0
 19 21  1  0
 21 33  1  0
 22 35  1  0
 22 34  1  0
M  END
>  <id>  (323) 
425

>  <scaffolds>  (323) 
['c1ccccc1', 'O=C1NC(Cc2ccccc2)C(=O)N2CCCC12', 'C1CCNC1']

>  <name>  (323) 
Cyclo(L-trans-(4-hydroxyprolinyl)-L-phenylalanine)

>  <formula>  (323) 
C14H16N2O3

>  <SMILES>  (323) 
O=C1N3[C@H](C(=O)N[C@H]1Cc2ccccc2)C[C@@H](O)C3

>  <ChEMBL_id>  (323) 


>  <ZINC_id>  (323) 


>  <PubChem_id>  (323) 
 10467786

>  <DrugBank_id>  (323) 


>  <CAS_no>  (323) 
118477-06-8

>  <references>  (323) 
[{'journal': {'name': 'Journal of Natural Products', 'id': 5}, 'title': 'Amino Acid Derivatives from the Marine Sponge Jaspis digonoxea', 'year': 1994, 'start_page': 829, 'volume': 57, 'issue': 6, 'doi': '10.1021/np50108a023', 'isbn': '', 'despositor': {'code': 'TMM', 'first_name': 'Thommas', 'last_name': 'Musyoka', 'id': 22}, 'refauthors_set': [{'author': {'first_name': 'Amira', 'initials': 'A', 'last_name': 'Rudi', 'id': 534}, 'first_author': True, 'id': 922}, {'author': {'first_name': 'Yoel', 'initials': 'Y', 'last_name': 'Kashman', 'id': 536}, 'first_author': False, 'id': 923}, {'author': {'first_name': 'Yehuda', 'initials': 'Y', 'last_name': 'Benayahu', 'id': 535}, 'first_author': False, 'id': 924}, {'author': {'first_name': 'Michael', 'initials': 'M', 'last_name': 'Schleyer', 'id': 452}, 'first_author': False, 'id': 925}], 'id': 313}]

>  <classifications>  (323) 
[{'classification': 'Cyclic peptide', 'id': 765}, {'classification': 'Carboxylic acids and derivatives (Classyfire)', 'id': 950}]

>  <molecular_mass>  (323) 
260.29

$$$$
SANC00426_minRM1.pdb
     RDKit          3D

 34 34  0  0  1  0  0  0  0  0999 V2000
   -4.4650    1.6680   -0.8860 C   0  0  0  0  0  0  0  0  0  0  0  0
   -4.2840    0.5640    0.1520 C   0  0  1  0  0  0  0  0  0  0  0  0
   -5.5060   -0.3490    0.1770 C   0  0  0  0  0  0  0  0  0  0  0  0
   -3.0710   -0.2370   -0.2060 C   0  0  0  0  0  0  0  0  0  0  0  0
   -1.9500   -0.1980    0.5100 C   0  0  0  0  0  0  0  0  0  0  0  0
   -0.7490   -1.0180    0.1210 C   0  0  2  0  0  0  0  0  0  0  0  0
   -0.8980   -2.0900    0.4220 H   0  0  0  0  0  0  0  0  0  0  0  0
    0.5130   -0.4790    0.8360 C   0  0  1  0  0  0  0  0  0  0  0  0
    0.3440   -0.4640    1.9450 H   0  0  0  0  0  0  0  0  0  0  0  0
    1.8290   -1.2510    0.5290 C   0  0  2  0  0  0  0  0  0  0  0  0
    2.0270   -2.0500    1.2870 H   0  0  0  0  0  0  0  0  0  0  0  0
    2.8870   -0.1090    0.6060 C   0  0  2  0  0  0  0  0  0  0  0  0
    3.3080    0.0010    1.6390 H   0  0  0  0  0  0  0  0  0  0  0  0
    2.0490    1.1140    0.2660 C   0  0  0  0  0  0  0  0  0  0  0  0
    2.3700    2.2280   -0.0730 O   0  0  0  0  0  0  0  0  0  0  0  0
    0.7140    0.8560    0.4070 O   0  0  0  0  0  0  0  0  0  0  0  0
    3.8610   -0.3840   -0.3510 O   0  0  0  0  0  0  0  0  0  0  0  0
    4.9500    0.5060   -0.3440 C   0  0  0  0  0  0  0  0  0  0  0  0
    1.7210   -1.7490   -0.7580 O   0  0  0  0  0  0  0  0  0  0  0  0
   -0.5920   -1.0850   -1.2560 O   0  0  0  0  0  0  0  0  0  0  0  0
   -5.3490    2.2870   -0.6730 H   0  0  0  0  0  0  0  0  0  0  0  0
   -3.6000    2.3460   -0.9160 H   0  0  0  0  0  0  0  0  0  0  0  0
   -4.5930    1.2710   -1.9030 H   0  0  0  0  0  0  0  0  0  0  0  0
   -4.1690    1.0340    1.1640 H   0  0  0  0  0  0  0  0  0  0  0  0
   -5.7060   -0.8130   -0.8000 H   0  0  0  0  0  0  0  0  0  0  0  0
   -5.3890   -1.1690    0.9000 H   0  0  0  0  0  0  0  0  0  0  0  0
   -6.4180    0.1970    0.4590 H   0  0  0  0  0  0  0  0  0  0  0  0
   -3.1580   -0.8530   -1.1080 H   0  0  0  0  0  0  0  0  0  0  0  0
   -1.8560    0.4180    1.4080 H   0  0  0  0  0  0  0  0  0  0  0  0
    4.6860    1.5220   -0.6770 H   0  0  0  0  0  0  0  0  0  0  0  0
    5.4560    0.5740    0.6340 H   0  0  0  0  0  0  0  0  0  0  0  0
    5.6470    0.0670   -1.0740 H   0  0  0  0  0  0  0  0  0  0  0  0
    2.5050   -2.2780   -0.9430 H   0  0  0  0  0  0  0  0  0  0  0  0
   -0.3900   -0.2020   -1.5860 H   0  0  0  0  0  0  0  0  0  0  0  0
  1 23  1  0
  1 22  1  0
  1 21  1  0
  1  2  1  0
  2  4  1  0
  2  3  1  0
  2 24  1  1
  3 25  1  0
  3 27  1  0
  3 26  1  0
  4 28  1  0
  4  5  2  0
  5  6  1  0
  5 29  1  0
  6 20  1  0
  6  7  1  1
  6  8  1  0
  8 16  1  0
  8 10  1  0
  8  9  1  1
 10 19  1  0
 10 12  1  0
 10 11  1  1
 12 17  1  0
 12 14  1  0
 12 13  1  1
 14 15  2  0
 14 16  1  0
 17 18  1  0
 18 32  1  0
 18 30  1  0
 18 31  1  0
 19 33  1  0
 20 34  1  0
M  END
>  <id>  (324) 
426

>  <scaffolds>  (324) 
['O=C1CCCO1']

>  <name>  (324) 
Non-6-enonic acid, 6,7,8,9-tetradeoxy-8-methyl-2-O-methyl-, [gamma]-lactone (9CI)

>  <formula>  (324) 
C11H18O5

>  <SMILES>  (324) 
CC(C)/C=C/[C@H]([C@H]1[C@H]([C@H](C(=O)O1)OC)O)O

>  <ChEMBL_id>  (324) 
CHEMBL464101

>  <ZINC_id>  (324) 


>  <PubChem_id>  (324) 


>  <DrugBank_id>  (324) 


>  <CAS_no>  (324) 
157544-69-9

>  <references>  (324) 
[{'journal': {'name': 'Journal of Natural Products', 'id': 5}, 'title': 'Amino Acid Derivatives from the Marine Sponge Jaspis digonoxea', 'year': 1994, 'start_page': 829, 'volume': 57, 'issue': 6, 'doi': '10.1021/np50108a023', 'isbn': '', 'despositor': {'code': 'TMM', 'first_name': 'Thommas', 'last_name': 'Musyoka', 'id': 22}, 'refauthors_set': [{'author': {'first_name': 'Amira', 'initials': 'A', 'last_name': 'Rudi', 'id': 534}, 'first_author': True, 'id': 922}, {'author': {'first_name': 'Yoel', 'initials': 'Y', 'last_name': 'Kashman', 'id': 536}, 'first_author': False, 'id': 923}, {'author': {'first_name': 'Yehuda', 'initials': 'Y', 'last_name': 'Benayahu', 'id': 535}, 'first_author': False, 'id': 924}, {'author': {'first_name': 'Michael', 'initials': 'M', 'last_name': 'Schleyer', 'id': 452}, 'first_author': False, 'id': 925}], 'id': 313}]

>  <classifications>  (324) 
[{'classification': 'Cyclic peptide', 'id': 765}, {'classification': 'Lactones (Classyfire)', 'id': 952}]

>  <molecular_mass>  (324) 
230.26

$$$$
SANC00427_minRM1.pdb
     RDKit          3D

101102  0  0  1  0  0  0  0  0999 V2000
    5.6640   -5.9530    1.3180 C   0  0  0  0  0  0  0  0  0  0  0  0
    5.3070   -4.8020    0.3780 C   0  0  2  0  0  0  0  0  0  0  0  0
    4.2880   -4.3970    0.6200 H   0  0  0  0  0  0  0  0  0  0  0  0
    5.1800   -5.2190   -0.9450 O   0  0  0  0  0  0  0  0  0  0  0  0
    6.3790   -3.6810    0.4840 C   0  0  1  0  0  0  0  0  0  0  0  0
    6.6410   -3.5000    1.5600 H   0  0  0  0  0  0  0  0  0  0  0  0
    7.5770   -4.1120   -0.0780 O   0  0  0  0  0  0  0  0  0  0  0  0
    5.8710   -2.3690   -0.1810 C   0  0  1  0  0  0  0  0  0  0  0  0
    5.5650   -2.5590   -1.2460 H   0  0  0  0  0  0  0  0  0  0  0  0
    4.6850   -1.9620    0.4230 O   0  0  0  0  0  0  0  0  0  0  0  0
    6.9470   -1.2760   -0.0830 C   0  0  0  0  0  0  0  0  0  0  0  0
    6.5360   -0.0420   -0.8980 C   0  0  1  0  0  0  0  0  0  0  0  0
    6.4770   -0.3050   -1.9900 H   0  0  0  0  0  0  0  0  0  0  0  0
    5.3270    0.4570   -0.3580 O   0  0  0  0  0  0  0  0  0  0  0  0
    4.1670    0.3140   -1.0570 C   0  0  0  0  0  0  0  0  0  0  0  0
    4.1700   -0.1370   -2.1870 O   0  0  0  0  0  0  0  0  0  0  0  0
    2.9950    0.8050   -0.2550 C   0  0  0  0  0  0  0  0  0  0  0  0
    1.6900    0.3660   -0.9130 C   0  0  0  0  0  0  0  0  0  0  0  0
    0.4920    0.8470   -0.0950 C   0  0  0  0  0  0  0  0  0  0  0  0
   -0.8090    0.3560   -0.7280 C   0  0  0  0  0  0  0  0  0  0  0  0
   -2.0200    0.8430    0.0650 C   0  0  0  0  0  0  0  0  0  0  0  0
   -3.3090    0.2990   -0.5490 C   0  0  0  0  0  0  0  0  0  0  0  0
   -4.5340    0.8040    0.2120 C   0  0  0  0  0  0  0  0  0  0  0  0
   -5.8110    0.2260   -0.3930 C   0  0  0  0  0  0  0  0  0  0  0  0
   -7.0470    0.7470    0.3380 C   0  0  0  0  0  0  0  0  0  0  0  0
   -8.3170    0.1550   -0.2710 C   0  0  0  0  0  0  0  0  0  0  0  0
   -9.5610    0.6920    0.4340 C   0  0  0  0  0  0  0  0  0  0  0  0
  -10.8250    0.0970   -0.1820 C   0  0  0  0  0  0  0  0  0  0  0  0
  -12.0750    0.6450    0.5030 C   0  0  0  0  0  0  0  0  0  0  0  0
  -13.3360    0.0500   -0.1210 C   0  0  0  0  0  0  0  0  0  0  0  0
  -14.5900    0.6060    0.5500 C   0  0  0  0  0  0  0  0  0  0  0  0
  -15.8470    0.0090   -0.0790 C   0  0  0  0  0  0  0  0  0  0  0  0
  -17.1040    0.5690    0.5830 C   0  0  0  0  0  0  0  0  0  0  0  0
  -18.3590   -0.0300   -0.0480 C   0  0  0  0  0  0  0  0  0  0  0  0
  -19.6180    0.5300    0.6090 C   0  0  0  0  0  0  0  0  0  0  0  0
  -20.8650   -0.0680   -0.0210 C   0  0  0  0  0  0  0  0  0  0  0  0
    7.5210    1.0640   -0.7370 C   0  0  0  0  0  0  0  0  0  0  0  0
    7.9500    1.9700   -1.6820 C   0  0  0  0  0  0  0  0  0  0  0  0
    8.8490    2.8170   -1.0930 O   0  0  0  0  0  0  0  0  0  0  0  0
    8.9410    2.4000    0.2170 C   0  0  0  0  0  0  0  0  0  0  0  0
    9.8720    3.1450    1.0990 C   0  0  0  0  0  0  0  0  0  0  0  0
   11.2250    2.5740    0.9460 C   0  0  0  0  0  0  0  0  0  0  0  0
   11.6060    1.6210    1.8580 O   0  0  0  0  0  0  0  0  0  0  0  0
   12.8800    1.2560    1.4940 C   0  0  0  0  0  0  0  0  0  0  0  0
   13.3240    1.9180    0.4200 N   0  0  0  0  0  0  0  0  0  0  0  0
   12.2590    2.7720    0.0560 C   0  0  0  0  0  0  0  0  0  0  0  0
    8.1640    1.3470    0.4900 N   0  0  0  0  0  0  0  0  0  0  0  0
    6.6850   -6.3320    1.1510 H   0  0  0  0  0  0  0  0  0  0  0  0
    5.6080   -5.6460    2.3740 H   0  0  0  0  0  0  0  0  0  0  0  0
    4.9790   -6.8040    1.1950 H   0  0  0  0  0  0  0  0  0  0  0  0
    5.8840   -5.8450   -1.1470 H   0  0  0  0  0  0  0  0  0  0  0  0
    7.4950   -4.0960   -1.0370 H   0  0  0  0  0  0  0  0  0  0  0  0
    4.8770   -1.6400    1.3110 H   0  0  0  0  0  0  0  0  0  0  0  0
    7.1410   -1.0090    0.9780 H   0  0  0  0  0  0  0  0  0  0  0  0
    7.9260   -1.6410   -0.4570 H   0  0  0  0  0  0  0  0  0  0  0  0
    3.0640    0.4210    0.7880 H   0  0  0  0  0  0  0  0  0  0  0  0
    3.0550    1.9110   -0.1610 H   0  0  0  0  0  0  0  0  0  0  0  0
    1.6350    0.7530   -1.9540 H   0  0  0  0  0  0  0  0  0  0  0  0
    1.6740   -0.7410   -1.0220 H   0  0  0  0  0  0  0  0  0  0  0  0
    0.5690    0.4910    0.9550 H   0  0  0  0  0  0  0  0  0  0  0  0
    0.4940    1.9560   -0.0190 H   0  0  0  0  0  0  0  0  0  0  0  0
   -0.8770    0.6990   -1.7840 H   0  0  0  0  0  0  0  0  0  0  0  0
   -0.8100   -0.7540   -0.7920 H   0  0  0  0  0  0  0  0  0  0  0  0
   -1.9380    0.5340    1.1300 H   0  0  0  0  0  0  0  0  0  0  0  0
   -2.0420    1.9550    0.0950 H   0  0  0  0  0  0  0  0  0  0  0  0
   -3.3770    0.5870   -1.6200 H   0  0  0  0  0  0  0  0  0  0  0  0
   -3.2920   -0.8130   -0.5570 H   0  0  0  0  0  0  0  0  0  0  0  0
   -4.4600    0.5370    1.2880 H   0  0  0  0  0  0  0  0  0  0  0  0
   -4.5670    1.9150    0.2000 H   0  0  0  0  0  0  0  0  0  0  0  0
   -5.8710    0.4730   -1.4750 H   0  0  0  0  0  0  0  0  0  0  0  0
   -5.7840   -0.8850   -0.3600 H   0  0  0  0  0  0  0  0  0  0  0  0
   -6.9880    0.5060    1.4200 H   0  0  0  0  0  0  0  0  0  0  0  0
   -7.0800    1.8570    0.2980 H   0  0  0  0  0  0  0  0  0  0  0  0
   -8.3640    0.3790   -1.3580 H   0  0  0  0  0  0  0  0  0  0  0  0
   -8.2900   -0.9540   -0.2140 H   0  0  0  0  0  0  0  0  0  0  0  0
   -9.5170    0.4670    1.5210 H   0  0  0  0  0  0  0  0  0  0  0  0
   -9.5890    1.8010    0.3770 H   0  0  0  0  0  0  0  0  0  0  0  0
  -10.8600    0.3080   -1.2720 H   0  0  0  0  0  0  0  0  0  0  0  0
  -10.8030   -1.0120   -0.1120 H   0  0  0  0  0  0  0  0  0  0  0  0
  -12.0450    0.4320    1.5920 H   0  0  0  0  0  0  0  0  0  0  0  0
  -12.0970    1.7540    0.4350 H   0  0  0  0  0  0  0  0  0  0  0  0
  -13.3600    0.2540   -1.2120 H   0  0  0  0  0  0  0  0  0  0  0  0
  -13.3170   -1.0590   -0.0440 H   0  0  0  0  0  0  0  0  0  0  0  0
  -14.5680    0.4000    1.6410 H   0  0  0  0  0  0  0  0  0  0  0  0
  -14.6090    1.7140    0.4740 H   0  0  0  0  0  0  0  0  0  0  0  0
  -15.8650    0.2110   -1.1710 H   0  0  0  0  0  0  0  0  0  0  0  0
  -15.8300   -1.0990    0.0020 H   0  0  0  0  0  0  0  0  0  0  0  0
  -17.0870    0.3670    1.6750 H   0  0  0  0  0  0  0  0  0  0  0  0
  -17.1220    1.6760    0.5020 H   0  0  0  0  0  0  0  0  0  0  0  0
  -18.3760    0.1700   -1.1410 H   0  0  0  0  0  0  0  0  0  0  0  0
  -18.3430   -1.1370    0.0340 H   0  0  0  0  0  0  0  0  0  0  0  0
  -19.6080    0.3310    1.7020 H   0  0  0  0  0  0  0  0  0  0  0  0
  -19.6410    1.6370    0.5260 H   0  0  0  0  0  0  0  0  0  0  0  0
  -20.9020   -1.1620    0.0840 H   0  0  0  0  0  0  0  0  0  0  0  0
  -21.7840    0.3230    0.4400 H   0  0  0  0  0  0  0  0  0  0  0  0
  -20.9350    0.1500   -1.0960 H   0  0  0  0  0  0  0  0  0  0  0  0
    7.7400    2.1450   -2.7290 H   0  0  0  0  0  0  0  0  0  0  0  0
    9.8840    4.2280    0.8360 H   0  0  0  0  0  0  0  0  0  0  0  0
    9.5190    3.0950    2.1560 H   0  0  0  0  0  0  0  0  0  0  0  0
   13.3670    0.4970    2.1070 H   0  0  0  0  0  0  0  0  0  0  0  0
   12.3250    3.4430   -0.7960 H   0  0  0  0  0  0  0  0  0  0  0  0
  1  2  1  0
  1 48  1  0
  1 50  1  0
  1 49  1  0
  2  4  1  0
  2  5  1  0
  2  3  1  1
  4 51  1  0
  5  8  1  0
  5  7  1  0
  5  6  1  1
  7 52  1  0
  8  9  1  6
  8 11  1  0
  8 10  1  0
 10 53  1  0
 11 12  1  0
 11 55  1  0
 11 54  1  0
 12 13  1  6
 12 37  1  0
 12 14  1  0
 14 15  1  0
 15 16  2  0
 15 17  1  0
 17 18  1  0
 17 57  1  0
 17 56  1  0
 18 58  1  0
 18 59  1  0
 18 19  1  0
 19 20  1  0
 19 61  1  0
 19 60  1  0
 20 62  1  0
 20 63  1  0
 20 21  1  0
 21 22  1  0
 21 65  1  0
 21 64  1  0
 22 66  1  0
 22 67  1  0
 22 23  1  0
 23 24  1  0
 23 69  1  0
 23 68  1  0
 24 70  1  0
 24 71  1  0
 24 25  1  0
 25 26  1  0
 25 73  1  0
 25 72  1  0
 26 74  1  0
 26 75  1  0
 26 27  1  0
 27 28  1  0
 27 77  1  0
 27 76  1  0
 28 78  1  0
 28 79  1  0
 28 29  1  0
 29 30  1  0
 29 81  1  0
 29 80  1  0
 30 82  1  0
 30 83  1  0
 30 31  1  0
 31 32  1  0
 31 85  1  0
 31 84  1  0
 32 86  1  0
 32 87  1  0
 32 33  1  0
 33 34  1  0
 33 89  1  0
 33 88  1  0
 34 90  1  0
 34 91  1  0
 34 35  1  0
 35 36  1  0
 35 93  1  0
 35 92  1  0
 36 96  1  0
 36 94  1  0
 36 95  1  0
 37 38  2  0
 37 47  1  0
 38 97  1  0
 38 39  1  0
 39 40  1  0
 40 47  2  0
 40 41  1  0
 41 98  1  0
 41 42  1  0
 41 99  1  0
 42 46  2  0
 42 43  1  0
 43 44  1  0
 44 45  2  0
 44100  1  0
 45 46  1  0
 46101  1  0
M  END
>  <id>  (325) 
427

>  <scaffolds>  (325) 
['c1coc(Cc2cnco2)n1']

>  <name>  (325) 
L-arabino-Hexitol, 1,5-dideoxy-6-C-[2-(5-oxazolylmethyl)-4-oxazolyl]-, 6-heneicosanoate, (6R)- (9CI)

>  <formula>  (325) 
C34H58N2O7

>  <SMILES>  (325) 
C[C@H](O)[C@@H](O)[C@@H](O)C[C@@H](OC(=O)CCCCCCCCCCCCCCCCCCCC)c2coc(Cc1ocnc1)n2

>  <ChEMBL_id>  (325) 


>  <ZINC_id>  (325) 


>  <PubChem_id>  (325) 


>  <DrugBank_id>  (325) 


>  <CAS_no>  (325) 
157536-06-6

>  <references>  (325) 
[{'journal': {'name': 'Journal of Natural Products', 'id': 5}, 'title': 'Amino Acid Derivatives from the Marine Sponge Jaspis digonoxea', 'year': 1994, 'start_page': 829, 'volume': 57, 'issue': 6, 'doi': '10.1021/np50108a023', 'isbn': '', 'despositor': {'code': 'TMM', 'first_name': 'Thommas', 'last_name': 'Musyoka', 'id': 22}, 'refauthors_set': [{'author': {'first_name': 'Amira', 'initials': 'A', 'last_name': 'Rudi', 'id': 534}, 'first_author': True, 'id': 922}, {'author': {'first_name': 'Yoel', 'initials': 'Y', 'last_name': 'Kashman', 'id': 536}, 'first_author': False, 'id': 923}, {'author': {'first_name': 'Yehuda', 'initials': 'Y', 'last_name': 'Benayahu', 'id': 535}, 'first_author': False, 'id': 924}, {'author': {'first_name': 'Michael', 'initials': 'M', 'last_name': 'Schleyer', 'id': 452}, 'first_author': False, 'id': 925}], 'id': 313}]

>  <classifications>  (325) 
[{'classification': 'Cyclic peptide', 'id': 765}, {'classification': 'Azoles (Classyfire)', 'id': 982}]

>  <molecular_mass>  (325) 
606.83

$$$$
SANC00428_minRM1.pdb
     RDKit          3D

 35 37  0  0  1  0  0  0  0  0999 V2000
    5.0170   -0.2100   -0.3140 C   0  0  0  0  0  0  0  0  0  0  0  0
    4.0460   -1.3770   -0.4440 C   0  0  0  0  0  0  0  0  0  0  0  0
    2.6810   -0.7340   -0.7480 C   0  0  1  0  0  0  0  0  0  0  0  0
    2.4770   -0.7090   -1.8570 H   0  0  0  0  0  0  0  0  0  0  0  0
    1.5260   -1.4900   -0.1020 C   0  0  0  0  0  0  0  0  0  0  0  0
    1.5580   -2.6980    0.1130 O   0  0  0  0  0  0  0  0  0  0  0  0
    0.3990   -0.7550    0.2160 N   0  0  0  0  0  0  0  0  0  0  0  0
    0.3300    0.6810   -0.0590 C   0  0  2  0  0  0  0  0  0  0  0  0
    0.1310    0.8480   -1.1610 H   0  0  0  0  0  0  0  0  0  0  0  0
    1.6840    1.3240    0.2630 C   0  0  0  0  0  0  0  0  0  0  0  0
    1.8060    2.3910    0.8490 O   0  0  0  0  0  0  0  0  0  0  0  0
    2.7890    0.6470   -0.2500 N   0  0  0  0  0  0  0  0  0  0  0  0
    4.1630    0.9700    0.1680 C   0  0  0  0  0  0  0  0  0  0  0  0
   -0.7880    1.3460    0.7650 C   0  0  0  0  0  0  0  0  0  0  0  0
   -2.1050    0.7470    0.4000 C   0  0  0  0  0  0  0  0  0  0  0  0
   -2.7000    1.0860   -0.8170 C   0  0  0  0  0  0  0  0  0  0  0  0
   -3.9070    0.5170   -1.1930 C   0  0  0  0  0  0  0  0  0  0  0  0
   -4.5170   -0.3970   -0.3300 C   0  0  0  0  0  0  0  0  0  0  0  0
   -3.9460   -0.7310    0.8950 C   0  0  0  0  0  0  0  0  0  0  0  0
   -2.7350   -0.1500    1.2560 C   0  0  0  0  0  0  0  0  0  0  0  0
   -5.7240   -0.8830   -0.7280 O   0  0  0  0  0  0  0  0  0  0  0  0
    5.8470   -0.4340    0.3810 H   0  0  0  0  0  0  0  0  0  0  0  0
    5.5130    0.0220   -1.2740 H   0  0  0  0  0  0  0  0  0  0  0  0
    4.3470   -2.0810   -1.2470 H   0  0  0  0  0  0  0  0  0  0  0  0
    4.0180   -1.9920    0.4780 H   0  0  0  0  0  0  0  0  0  0  0  0
   -0.4090   -1.2110    0.6310 H   0  0  0  0  0  0  0  0  0  0  0  0
    4.2310    1.1170    1.2660 H   0  0  0  0  0  0  0  0  0  0  0  0
    4.4660    1.9360   -0.2760 H   0  0  0  0  0  0  0  0  0  0  0  0
   -0.5710    1.2600    1.8500 H   0  0  0  0  0  0  0  0  0  0  0  0
   -0.7870    2.4410    0.5720 H   0  0  0  0  0  0  0  0  0  0  0  0
   -2.2130    1.8020   -1.4940 H   0  0  0  0  0  0  0  0  0  0  0  0
   -4.3750    0.7660   -2.1550 H   0  0  0  0  0  0  0  0  0  0  0  0
   -4.4400   -1.4290    1.5750 H   0  0  0  0  0  0  0  0  0  0  0  0
   -2.2890   -0.3960    2.2270 H   0  0  0  0  0  0  0  0  0  0  0  0
   -5.7680   -1.7880   -0.4630 H   0  0  0  0  0  0  0  0  0  0  0  0
  1 23  1  0
  1  2  1  0
  1 13  1  0
  1 22  1  0
  2 24  1  0
  2  3  1  0
  2 25  1  0
  3  4  1  6
  3 12  1  0
  3  5  1  0
  5  6  2  0
  5  7  1  0
  7  8  1  0
  7 26  1  0
  8  9  1  6
  8 10  1  0
  8 14  1  0
 10 12  1  0
 10 11  2  0
 12 13  1  0
 13 28  1  0
 13 27  1  0
 14 15  1  0
 14 30  1  0
 14 29  1  0
 15 16  2  0
 15 20  1  0
 16 31  1  0
 16 17  1  0
 17 32  1  0
 17 18  2  0
 18 21  1  0
 18 19  1  0
 19 20  2  0
 19 33  1  0
 20 34  1  0
 21 35  1  0
M  END
>  <id>  (326) 
428

>  <scaffolds>  (326) 
['c1ccccc1', 'O=C1NC(Cc2ccccc2)C(=O)N2CCCC12', 'C1CCNC1']

>  <name>  (326) 
Pyrrolo[1,2-a]pyrazine-1,4-dione, hexahydro-3-[(4-hydroxyphenyl)methyl]-, (3S,8aS)

>  <formula>  (326) 
C14H16N2O3

>  <SMILES>  (326) 
C1C[C@H]2C(=O)N[C@H](C(=O)N2C1)CC3=CC=C(C=C3)O

>  <ChEMBL_id>  (326) 
CHEMBL359788

>  <ZINC_id>  (326) 
ZINC01629943

>  <PubChem_id>  (326) 
 119404

>  <DrugBank_id>  (326) 
DB04520

>  <CAS_no>  (326) 
4549-02-4

>  <references>  (326) 
[{'journal': {'name': 'Journal of Natural Products', 'id': 5}, 'title': 'Amino Acid Derivatives from the Marine Sponge Jaspis digonoxea', 'year': 1994, 'start_page': 829, 'volume': 57, 'issue': 6, 'doi': '10.1021/np50108a023', 'isbn': '', 'despositor': {'code': 'TMM', 'first_name': 'Thommas', 'last_name': 'Musyoka', 'id': 22}, 'refauthors_set': [{'author': {'first_name': 'Amira', 'initials': 'A', 'last_name': 'Rudi', 'id': 534}, 'first_author': True, 'id': 922}, {'author': {'first_name': 'Yoel', 'initials': 'Y', 'last_name': 'Kashman', 'id': 536}, 'first_author': False, 'id': 923}, {'author': {'first_name': 'Yehuda', 'initials': 'Y', 'last_name': 'Benayahu', 'id': 535}, 'first_author': False, 'id': 924}, {'author': {'first_name': 'Michael', 'initials': 'M', 'last_name': 'Schleyer', 'id': 452}, 'first_author': False, 'id': 925}], 'id': 313}]

>  <classifications>  (326) 
[{'classification': 'Cyclic peptide', 'id': 765}, {'classification': 'Carboxylic acids and derivatives (Classyfire)', 'id': 950}]

>  <molecular_mass>  (326) 
260.29

$$$$
SANC00429_minRM1.pdb
     RDKit          3D

135143  0  0  1  0  0  0  0  0999 V2000
    3.7370    0.9540   -0.0860 O   0  0  0  0  0  0  0  0  0  0  0  0
    3.9450   -0.0920    0.8300 C   0  0  1  0  0  0  0  0  0  0  0  0
    4.1270    0.2480    1.8840 H   0  0  0  0  0  0  0  0  0  0  0  0
    2.6460   -0.9450    0.7370 C   0  0  2  0  0  0  0  0  0  0  0  0
    2.3810   -1.1850   -0.3320 H   0  0  0  0  0  0  0  0  0  0  0  0
    1.6660   -0.2230    1.4140 O   0  0  0  0  0  0  0  0  0  0  0  0
    0.3400   -0.6760    1.2310 C   0  0  2  0  0  0  0  0  0  0  0  0
    0.2750   -1.7950    1.1570 H   0  0  0  0  0  0  0  0  0  0  0  0
   -0.2490   -0.0420   -0.0310 C   0  0  0  0  0  0  0  0  0  0  0  0
   -1.6930   -0.4030   -0.1530 C   0  0  0  0  0  0  0  0  0  0  0  0
   -2.1540   -0.9180   -1.2930 C   0  0  0  0  0  0  0  0  0  0  0  0
   -3.5720   -1.2840   -1.5210 C   0  0  0  0  0  0  0  0  0  0  0  0
   -4.5030   -0.6200   -0.5060 C   0  0  1  0  0  0  0  0  0  0  0  0
   -4.5730    0.4680   -0.7440 H   0  0  0  0  0  0  0  0  0  0  0  0
   -5.8810   -1.2620   -0.5680 C   0  0  2  0  0  0  0  0  0  0  0  0
   -5.7610   -2.3580   -0.3440 H   0  0  0  0  0  0  0  0  0  0  0  0
   -6.6480   -1.1550   -1.8850 C   0  0  0  0  0  0  0  0  0  0  0  0
   -8.1010   -1.4350   -1.4600 C   0  0  2  0  0  0  0  0  0  0  0  0
   -8.4620   -2.4270   -1.8390 H   0  0  0  0  0  0  0  0  0  0  0  0
   -8.9430   -0.4180   -1.9390 O   0  0  0  0  0  0  0  0  0  0  0  0
  -10.0130   -0.2140   -1.0360 C   0  0  2  0  0  0  0  0  0  0  0  0
  -11.1130   -1.1000   -1.4960 N   0  0  0  0  0  0  0  0  0  0  0  0
  -12.4540   -0.7260   -1.0220 C   0  0  0  0  0  0  0  0  0  0  0  0
  -12.7930    0.7630   -1.2100 C   0  0  1  0  0  0  0  0  0  0  0  0
  -12.8170    1.0120   -2.3020 H   0  0  0  0  0  0  0  0  0  0  0  0
  -14.1580    1.0730   -0.6100 C   0  0  0  0  0  0  0  0  0  0  0  0
  -11.7050    1.5930   -0.5270 C   0  0  0  0  0  0  0  0  0  0  0  0
  -10.3570    1.2890   -1.1620 C   0  0  0  0  0  0  0  0  0  0  0  0
   -9.4740   -0.6110    0.3810 C   0  0  1  0  0  0  0  0  0  0  0  0
   -9.2800    0.3230    0.9720 H   0  0  0  0  0  0  0  0  0  0  0  0
  -10.3950   -1.4760    1.2270 C   0  0  0  0  0  0  0  0  0  0  0  0
   -8.1630   -1.3550    0.0870 C   0  0  2  0  0  0  0  0  0  0  0  0
   -8.1700   -2.3750    0.5400 H   0  0  0  0  0  0  0  0  0  0  0  0
   -6.8430   -0.6490    0.4660 C   0  0  2  0  0  0  0  0  0  0  0  0
   -6.9860    0.8620    0.3290 C   0  0  0  0  0  0  0  0  0  0  0  0
   -6.3000   -0.9900    1.8480 C   0  0  0  0  0  0  0  0  0  0  0  0
   -4.8890   -0.4240    2.0160 C   0  0  0  0  0  0  0  0  0  0  0  0
   -3.9220   -0.8370    0.9000 C   0  0  2  0  0  0  0  0  0  0  0  0
   -3.7330   -1.9390    1.0150 H   0  0  0  0  0  0  0  0  0  0  0  0
   -2.5610   -0.1020    1.0330 C   0  0  2  0  0  0  0  0  0  0  0  0
   -2.7490    1.4170    1.0780 C   0  0  0  0  0  0  0  0  0  0  0  0
   -1.8890   -0.5810    2.3330 C   0  0  0  0  0  0  0  0  0  0  0  0
   -0.4270   -0.1790    2.4560 C   0  0  0  0  0  0  0  0  0  0  0  0
    2.7800   -2.1170    1.5120 O   0  0  0  0  0  0  0  0  0  0  0  0
    3.7840   -2.9750    1.0440 C   0  0  2  0  0  0  0  0  0  0  0  0
    3.5840   -3.2980   -0.0150 H   0  0  0  0  0  0  0  0  0  0  0  0
    3.7460   -4.2040    1.9820 C   0  0  0  0  0  0  0  0  0  0  0  0
    2.5940   -4.9260    1.6970 O   0  0  0  0  0  0  0  0  0  0  0  0
    5.1680   -2.2890    1.1140 C   0  0  2  0  0  0  0  0  0  0  0  0
    5.9450   -2.9700    0.6750 H   0  0  0  0  0  0  0  0  0  0  0  0
    5.4370   -1.9470    2.4360 O   0  0  0  0  0  0  0  0  0  0  0  0
    5.1080   -0.9700    0.3070 C   0  0  2  0  0  0  0  0  0  0  0  0
    4.9670   -1.2000   -0.7840 H   0  0  0  0  0  0  0  0  0  0  0  0
    6.2940   -0.2680    0.5740 O   0  0  0  0  0  0  0  0  0  0  0  0
    7.2410   -0.2180   -0.4520 C   0  0  2  0  0  0  0  0  0  0  0  0
    6.8540    0.3110   -1.3660 H   0  0  0  0  0  0  0  0  0  0  0  0
    7.5630   -1.5640   -0.7040 O   0  0  0  0  0  0  0  0  0  0  0  0
    8.5340   -1.7000   -1.7190 C   0  0  2  0  0  0  0  0  0  0  0  0
    8.2050   -1.2400   -2.6860 H   0  0  0  0  0  0  0  0  0  0  0  0
    8.7070   -3.2200   -1.8820 C   0  0  0  0  0  0  0  0  0  0  0  0
    7.5420   -3.6630   -2.4720 O   0  0  0  0  0  0  0  0  0  0  0  0
    9.8640   -1.0640   -1.2290 C   0  0  1  0  0  0  0  0  0  0  0  0
   10.2560   -1.6030   -0.3270 H   0  0  0  0  0  0  0  0  0  0  0  0
   10.7450   -1.1440   -2.3070 O   0  0  0  0  0  0  0  0  0  0  0  0
    9.6230    0.4280   -0.8730 C   0  0  2  0  0  0  0  0  0  0  0  0
    9.3590    1.0170   -1.7970 H   0  0  0  0  0  0  0  0  0  0  0  0
   10.8170    0.8790   -0.2970 O   0  0  0  0  0  0  0  0  0  0  0  0
    8.4750    0.4960    0.1660 C   0  0  1  0  0  0  0  0  0  0  0  0
    8.7820   -0.0060    1.1220 H   0  0  0  0  0  0  0  0  0  0  0  0
    8.2000    1.8440    0.3160 O   0  0  0  0  0  0  0  0  0  0  0  0
    4.3960    2.1560    0.2000 C   0  0  2  0  0  0  0  0  0  0  0  0
    5.4570    2.0330    0.5490 H   0  0  0  0  0  0  0  0  0  0  0  0
    3.7960    2.7640    1.2930 O   0  0  0  0  0  0  0  0  0  0  0  0
    2.4540    3.1670    1.1250 C   0  0  2  0  0  0  0  0  0  0  0  0
    1.7790    2.2890    0.9520 H   0  0  0  0  0  0  0  0  0  0  0  0
    2.3630    4.1660   -0.0500 C   0  0  2  0  0  0  0  0  0  0  0  0
    2.9720    5.0880    0.1580 H   0  0  0  0  0  0  0  0  0  0  0  0
    1.0100    4.4350   -0.2220 O   0  0  0  0  0  0  0  0  0  0  0  0
    2.8760    3.4860   -1.3410 C   0  0  1  0  0  0  0  0  0  0  0  0
    2.2200    2.6120   -1.6100 H   0  0  0  0  0  0  0  0  0  0  0  0
    2.8040    4.4860   -2.3120 O   0  0  0  0  0  0  0  0  0  0  0  0
    4.3200    2.9830   -1.1130 C   0  0  1  0  0  0  0  0  0  0  0  0
    4.6430    2.3410   -1.9820 H   0  0  0  0  0  0  0  0  0  0  0  0
    5.1040    4.1330   -1.0100 O   0  0  0  0  0  0  0  0  0  0  0  0
    2.1000    3.8740    2.4340 C   0  0  0  0  0  0  0  0  0  0  0  0
   -0.1400    1.0660   -0.0090 H   0  0  0  0  0  0  0  0  0  0  0  0
    0.3310   -0.3290   -0.9340 H   0  0  0  0  0  0  0  0  0  0  0  0
   -1.4860   -1.1170   -2.1390 H   0  0  0  0  0  0  0  0  0  0  0  0
   -3.8750   -1.0000   -2.5510 H   0  0  0  0  0  0  0  0  0  0  0  0
   -3.6650   -2.3910   -1.5080 H   0  0  0  0  0  0  0  0  0  0  0  0
   -6.5290   -0.1670   -2.3700 H   0  0  0  0  0  0  0  0  0  0  0  0
   -6.2970   -1.8770   -2.6430 H   0  0  0  0  0  0  0  0  0  0  0  0
  -11.1000   -1.1730   -2.5220 H   0  0  0  0  0  0  0  0  0  0  0  0
  -13.1970   -1.3590   -1.5510 H   0  0  0  0  0  0  0  0  0  0  0  0
  -12.5480   -1.0020    0.0560 H   0  0  0  0  0  0  0  0  0  0  0  0
  -14.2010    0.8620    0.4690 H   0  0  0  0  0  0  0  0  0  0  0  0
  -14.4360    2.1270   -0.7230 H   0  0  0  0  0  0  0  0  0  0  0  0
  -14.9550    0.4750   -1.0760 H   0  0  0  0  0  0  0  0  0  0  0  0
  -11.9290    2.6790   -0.5960 H   0  0  0  0  0  0  0  0  0  0  0  0
  -11.6800    1.3900    0.5680 H   0  0  0  0  0  0  0  0  0  0  0  0
   -9.5580    1.9250   -0.7240 H   0  0  0  0  0  0  0  0  0  0  0  0
  -10.3640    1.5840   -2.2380 H   0  0  0  0  0  0  0  0  0  0  0  0
  -10.5910   -2.4690    0.7880 H   0  0  0  0  0  0  0  0  0  0  0  0
   -9.9640   -1.6580    2.2220 H   0  0  0  0  0  0  0  0  0  0  0  0
  -11.3800   -1.0100    1.3910 H   0  0  0  0  0  0  0  0  0  0  0  0
   -7.7220    1.2590    1.0480 H   0  0  0  0  0  0  0  0  0  0  0  0
   -6.0590    1.4160    0.5210 H   0  0  0  0  0  0  0  0  0  0  0  0
   -7.3250    1.1760   -0.6660 H   0  0  0  0  0  0  0  0  0  0  0  0
   -6.9730   -0.6020    2.6400 H   0  0  0  0  0  0  0  0  0  0  0  0
   -6.2930   -2.0880    2.0170 H   0  0  0  0  0  0  0  0  0  0  0  0
   -4.9340    0.6860    2.1040 H   0  0  0  0  0  0  0  0  0  0  0  0
   -4.4930   -0.7510    3.0030 H   0  0  0  0  0  0  0  0  0  0  0  0
   -3.5450    1.7200    1.7760 H   0  0  0  0  0  0  0  0  0  0  0  0
   -1.8440    1.9500    1.4000 H   0  0  0  0  0  0  0  0  0  0  0  0
   -3.0120    1.8400    0.1020 H   0  0  0  0  0  0  0  0  0  0  0  0
   -2.4420   -0.1910    3.2140 H   0  0  0  0  0  0  0  0  0  0  0  0
   -1.9660   -1.6860    2.4180 H   0  0  0  0  0  0  0  0  0  0  0  0
    0.0150   -0.6010    3.3840 H   0  0  0  0  0  0  0  0  0  0  0  0
   -0.3050    0.9180    2.5780 H   0  0  0  0  0  0  0  0  0  0  0  0
    4.6050   -4.8680    1.7750 H   0  0  0  0  0  0  0  0  0  0  0  0
    3.8100   -3.8940    3.0490 H   0  0  0  0  0  0  0  0  0  0  0  0
    1.9160   -4.7020    2.2480 H   0  0  0  0  0  0  0  0  0  0  0  0
    6.1700   -2.4380    2.7230 H   0  0  0  0  0  0  0  0  0  0  0  0
    9.6070   -3.4380   -2.5050 H   0  0  0  0  0  0  0  0  0  0  0  0
    8.8980   -3.7080   -0.9070 H   0  0  0  0  0  0  0  0  0  0  0  0
    7.5620   -4.6160   -2.4750 H   0  0  0  0  0  0  0  0  0  0  0  0
   11.6070   -0.7940   -2.0080 H   0  0  0  0  0  0  0  0  0  0  0  0
   10.7340    1.8140   -0.1320 H   0  0  0  0  0  0  0  0  0  0  0  0
    7.6920    1.9400    1.1270 H   0  0  0  0  0  0  0  0  0  0  0  0
    0.9060    5.4160   -0.3640 H   0  0  0  0  0  0  0  0  0  0  0  0
    3.3070    4.1800   -3.0770 H   0  0  0  0  0  0  0  0  0  0  0  0
    6.0200    3.8440   -0.9110 H   0  0  0  0  0  0  0  0  0  0  0  0
    2.7660    4.7180    2.6580 H   0  0  0  0  0  0  0  0  0  0  0  0
    1.0720    4.2680    2.3960 H   0  0  0  0  0  0  0  0  0  0  0  0
    2.1480    3.1810    3.2860 H   0  0  0  0  0  0  0  0  0  0  0  0
  1 71  1  0
  1  2  1  0
  2 52  1  0
  2  4  1  0
  2  3  1  1
  4  5  1  6
  4  6  1  0
  4 44  1  0
  6  7  1  0
  7  9  1  0
  7  8  1  6
  7 43  1  0
  9 87  1  0
  9 10  1  0
  9 86  1  0
 10 11  2  0
 10 40  1  0
 11 88  1  0
 11 12  1  0
 12 89  1  0
 12 90  1  0
 12 13  1  0
 13 14  1  6
 13 15  1  0
 13 38  1  0
 15 17  1  0
 15 16  1  1
 15 34  1  0
 17 92  1  0
 17 91  1  0
 17 18  1  0
 18 20  1  0
 18 19  1  1
 18 32  1  0
 21 20  1  6
 21 22  1  0
 21 28  1  0
 21 29  1  0
 22 93  1  0
 22 23  1  0
 23 94  1  0
 23 24  1  0
 23 95  1  0
 24 25  1  6
 24 26  1  0
 24 27  1  0
 26 98  1  0
 26 97  1  0
 26 96  1  0
 27 28  1  0
 27 99  1  0
 27100  1  0
 28102  1  0
 28101  1  0
 29 32  1  0
 29 30  1  1
 29 31  1  0
 31103  1  0
 31105  1  0
 31104  1  0
 32 34  1  0
 32 33  1  1
 34 35  1  6
 34 36  1  0
 35108  1  0
 35107  1  0
 35106  1  0
 36 37  1  0
 36110  1  0
 36109  1  0
 37 38  1  0
 37111  1  0
 37112  1  0
 38 39  1  1
 38 40  1  0
 40 41  1  1
 40 42  1  0
 41115  1  0
 41114  1  0
 41113  1  0
 42117  1  0
 42 43  1  0
 42116  1  0
 43119  1  0
 43118  1  0
 44 45  1  0
 45 46  1  6
 45 49  1  0
 45 47  1  0
 47 48  1  0
 47120  1  0
 47121  1  0
 48122  1  0
 49 52  1  0
 49 50  1  6
 49 51  1  0
 51123  1  0
 52 53  1  6
 52 54  1  0
 54 55  1  0
 55 56  1  6
 55 57  1  0
 55 68  1  0
 57 58  1  0
 58 59  1  6
 58 60  1  0
 58 62  1  0
 60124  1  0
 60 61  1  0
 60125  1  0
 61126  1  0
 62 64  1  0
 62 65  1  0
 62 63  1  1
 64127  1  0
 65 66  1  6
 65 67  1  0
 65 68  1  0
 67128  1  0
 68 70  1  0
 68 69  1  1
 70129  1  0
 71 82  1  0
 71 72  1  1
 71 73  1  0
 73 74  1  0
 74 76  1  0
 74 75  1  6
 74 85  1  0
 76 79  1  0
 76 78  1  0
 76 77  1  1
 78130  1  0
 79 81  1  0
 79 80  1  6
 79 82  1  0
 81131  1  0
 82 83  1  6
 82 84  1  0
 84132  1  0
 85134  1  0
 85133  1  0
 85135  1  0
M  END
>  <id>  (327) 
429

>  <scaffolds>  (327) 
['C1=C2CCCCC2C2CCC3CCCC3C2C1', 'C1=CCCCC1', 'C1=CCC2CCCCC2C1', 'C1CCNCC1', 'C1CCOCC1', 'C1=C2CC(OC3CCCCO3)CCC2C2CCC3CCCC3C2C1', 'C1CCCCC1', 'C1=C2CCCCC2CCC1', 'C1CCC(OC2CCCOC2)OC1', 'C1=C2CC(OC3OCCC(OC4CCCCO4)C3OC3CCCCO3)CCC2C2CCC3C4CC5(CCCCN5)OC4CC3C2C1']

>  <name>  (327) 
Solasonine

>  <formula>  (327) 
C45H73NO16

>  <SMILES>  (327) 
O([C@H]8[C@H](O[C@@H]5C/C4=C/C[C@H]3[C@@H]6C[C@@H]2O[C@@]1(NC[C@@H](C)CC1)[C@@H](C)[C@@H]2[C@@]6(C)CC[C@@H]3[C@@]4(C)CC5)O[C@H](CO)[C@H](O)[C@@H]8O[C@@H]7O[C@H](CO)[C@@H](O)[C@H](O)[C@H]7O)[C@@H]9O[C@H]([C@H](O)[C@@H](O)[C@H]9O)C

>  <ChEMBL_id>  (327) 


>  <ZINC_id>  (327) 


>  <PubChem_id>  (327) 
 73410

>  <DrugBank_id>  (327) 


>  <CAS_no>  (327) 
19121-58-5

>  <references>  (327) 
[{'journal': {'name': 'Journal of Ethnopharmacology', 'id': 7}, 'title': 'In vitro anticancer screening of South African plants', 'year': 2008, 'start_page': 455, 'volume': 119, 'issue': 3, 'doi': '10.1016/j.jep.2008.07.005', 'isbn': '', 'despositor': {'code': 'TMM', 'first_name': 'Thommas', 'last_name': 'Musyoka', 'id': 22}, 'refauthors_set': [{'author': {'first_name': '', 'initials': 'G', 'last_name': 'Fouche ', 'id': 671}, 'first_author': True, 'id': 926}, {'author': {'first_name': 'Gordon', 'initials': 'GM', 'last_name': 'Cragg', 'id': 672}, 'first_author': False, 'id': 927}, {'author': {'first_name': '', 'initials': 'P', 'last_name': 'Pillay', 'id': 673}, 'first_author': False, 'id': 928}, {'author': {'first_name': '', 'initials': 'N', 'last_name': 'Kolesnikova', 'id': 674}, 'first_author': False, 'id': 929}, {'author': {'first_name': '', 'initials': 'VJ', 'last_name': 'Maharaj', 'id': 675}, 'first_author': False, 'id': 930}, {'author': {'first_name': '', 'initials': 'J', 'last_name': 'Senabe', 'id': 676}, 'first_author': False, 'id': 931}], 'id': 314}]

>  <classifications>  (327) 
[{'classification': 'Alkaloid', 'id': 738}, {'classification': 'Cephalostatin', 'id': 759}, {'classification': 'Steroid', 'id': 835}, {'classification': 'Steroids and steroid derivatives (Classyfire)', 'id': 942}]

>  <molecular_mass>  (327) 
884.06

$$$$
SANC00430_minRM1.pdb
     RDKit          3D

 58 59  0  0  1  0  0  0  0  0999 V2000
    0.1000   -0.9840   -1.3770 H   0  0  0  0  0  0  0  0  0  0  0  0
    0.7130   -1.7770   -0.8740 C   0  0  2  0  0  0  0  0  0  0  0  0
    2.1100   -1.7320   -1.4140 C   0  0  0  0  0  0  0  0  0  0  0  0
    2.9430   -0.6890   -1.3520 C   0  0  0  0  0  0  0  0  0  0  0  0
    4.2690   -0.7630   -2.0290 C   0  0  0  0  0  0  0  0  0  0  0  0
    2.6330    0.5620   -0.5730 C   0  0  1  0  0  0  0  0  0  0  0  0
    2.5280    0.2510    0.5030 H   0  0  0  0  0  0  0  0  0  0  0  0
    3.6910    1.4890   -0.7560 O   0  0  0  0  0  0  0  0  0  0  0  0
    4.2510    2.1000    0.3200 C   0  0  0  0  0  0  0  0  0  0  0  0
    5.2310    3.1470   -0.1030 C   0  0  0  0  0  0  0  0  0  0  0  0
    3.9610    1.7850    1.4580 O   0  0  0  0  0  0  0  0  0  0  0  0
    1.3720    1.2750   -1.0890 C   0  0  0  0  0  0  0  0  0  0  0  0
    0.7530    2.1780   -0.0840 C   0  0  0  0  0  0  0  0  0  0  0  0
    0.3380    1.8610    1.1450 C   0  0  0  0  0  0  0  0  0  0  0  0
   -0.2900    2.9210    1.9920 C   0  0  0  0  0  0  0  0  0  0  0  0
    0.5390    0.5570    1.8470 C   0  0  0  0  0  0  0  0  0  0  0  0
   -0.2470   -0.6690    1.3360 C   0  0  1  0  0  0  0  0  0  0  0  0
   -0.7350   -1.1450    2.2340 H   0  0  0  0  0  0  0  0  0  0  0  0
   -1.2210   -0.2880    0.3910 O   0  0  0  0  0  0  0  0  0  0  0  0
   -2.3680    0.2870    0.8510 C   0  0  0  0  0  0  0  0  0  0  0  0
   -2.5460    0.4160    2.0520 O   0  0  0  0  0  0  0  0  0  0  0  0
   -3.3030    0.6800   -0.2120 C   0  0  0  0  0  0  0  0  0  0  0  0
   -4.5790    0.9030    0.1270 C   0  0  0  0  0  0  0  0  0  0  0  0
   -5.5910    1.3920   -0.8620 C   0  0  0  0  0  0  0  0  0  0  0  0
   -6.8480    1.1630   -0.2810 O   0  0  0  0  0  0  0  0  0  0  0  0
   -2.7900    0.8820   -1.6080 C   0  0  0  0  0  0  0  0  0  0  0  0
   -2.4010    2.2210   -1.7270 O   0  0  0  0  0  0  0  0  0  0  0  0
    0.6420   -1.7580    0.6800 C   0  0  1  0  0  0  0  0  0  0  0  0
    1.6740   -1.6800    1.1050 H   0  0  0  0  0  0  0  0  0  0  0  0
    0.1130   -3.1210    1.0040 C   0  0  0  0  0  0  0  0  0  0  0  0
   -0.0120   -3.6820    2.1970 C   0  0  0  0  0  0  0  0  0  0  0  0
   -0.2100   -3.7880   -0.2670 C   0  0  0  0  0  0  0  0  0  0  0  0
   -0.7000   -4.8710   -0.4980 O   0  0  0  0  0  0  0  0  0  0  0  0
    0.1180   -2.9880   -1.3240 O   0  0  0  0  0  0  0  0  0  0  0  0
    2.4180   -2.6390   -1.9530 H   0  0  0  0  0  0  0  0  0  0  0  0
    4.4400   -1.7100   -2.5640 H   0  0  0  0  0  0  0  0  0  0  0  0
    4.3790    0.0380   -2.7760 H   0  0  0  0  0  0  0  0  0  0  0  0
    5.0970   -0.6550   -1.3120 H   0  0  0  0  0  0  0  0  0  0  0  0
    4.7800    3.8610   -0.8100 H   0  0  0  0  0  0  0  0  0  0  0  0
    5.6030    3.7170    0.7600 H   0  0  0  0  0  0  0  0  0  0  0  0
    6.0990    2.7000   -0.6080 H   0  0  0  0  0  0  0  0  0  0  0  0
    1.6170    1.8340   -2.0190 H   0  0  0  0  0  0  0  0  0  0  0  0
    0.5960    0.5540   -1.4280 H   0  0  0  0  0  0  0  0  0  0  0  0
    0.6080    3.2050   -0.4450 H   0  0  0  0  0  0  0  0  0  0  0  0
   -0.5940    3.8140    1.4290 H   0  0  0  0  0  0  0  0  0  0  0  0
   -1.1940    2.5650    2.5100 H   0  0  0  0  0  0  0  0  0  0  0  0
    0.4110    3.2640    2.7690 H   0  0  0  0  0  0  0  0  0  0  0  0
    1.6340    0.3430    1.8770 H   0  0  0  0  0  0  0  0  0  0  0  0
    0.2940    0.6760    2.9270 H   0  0  0  0  0  0  0  0  0  0  0  0
   -4.9360    0.7490    1.1560 H   0  0  0  0  0  0  0  0  0  0  0  0
   -5.4040    2.4770   -1.0680 H   0  0  0  0  0  0  0  0  0  0  0  0
   -5.4930    0.8650   -1.8480 H   0  0  0  0  0  0  0  0  0  0  0  0
   -7.5120    1.5150   -0.8800 H   0  0  0  0  0  0  0  0  0  0  0  0
   -1.9940    0.1510   -1.8770 H   0  0  0  0  0  0  0  0  0  0  0  0
   -3.5920    0.7100   -2.3640 H   0  0  0  0  0  0  0  0  0  0  0  0
   -1.4380    2.2300   -1.8290 H   0  0  0  0  0  0  0  0  0  0  0  0
    0.2570   -3.1820    3.1240 H   0  0  0  0  0  0  0  0  0  0  0  0
   -0.3930   -4.6910    2.3400 H   0  0  0  0  0  0  0  0  0  0  0  0
  2  1  1  6
  2  3  1  0
  2 34  1  0
  2 28  1  0
  3 35  1  0
  3  4  2  0
  4  5  1  0
  4  6  1  0
  5 37  1  0
  5 36  1  0
  5 38  1  0
  6 12  1  0
  6  8  1  0
  6  7  1  1
  8  9  1  0
  9 10  1  0
  9 11  2  0
 10 39  1  0
 10 41  1  0
 10 40  1  0
 12 42  1  0
 12 43  1  0
 12 13  1  0
 13 44  1  0
 13 14  2  0
 14 16  1  0
 14 15  1  0
 15 45  1  0
 15 46  1  0
 15 47  1  0
 16 17  1  0
 16 48  1  0
 16 49  1  0
 17 19  1  0
 17 28  1  0
 17 18  1  1
 19 20  1  0
 20 22  1  0
 20 21  2  0
 22 26  1  0
 22 23  2  0
 23 24  1  0
 23 50  1  0
 24 52  1  0
 24 51  1  0
 24 25  1  0
 25 53  1  0
 26 55  1  0
 26 54  1  0
 26 27  1  0
 27 56  1  0
 28 30  1  0
 28 29  1  1
 30 32  1  0
 30 31  2  0
 31 58  1  0
 31 57  1  0
 32 34  1  0
 32 33  2  0
M  END
>  <id>  (328) 
430

>  <scaffolds>  (328) 
['C=C1C(=O)OC2C=CCCC=CCCC12', 'O=C1CCCO1', 'O=C1CC2CCC=CCCC=CC2O1']

>  <name>  (328) 
Eucannabinolide

>  <formula>  (328) 
C22H28O8

>  <SMILES>  (328) 
[H][C@@]12C=C(C)[C@@H](OC(C)=O)CC=C(C)C[C@@H](OC(=O)/C(=C/CO)CO)[C@@]1([H])C(=C)C(=O)O2

>  <ChEMBL_id>  (328) 


>  <ZINC_id>  (328) 


>  <PubChem_id>  (328) 
 6436818

>  <DrugBank_id>  (328) 


>  <CAS_no>  (328) 
38458-58-1

>  <references>  (328) 
[{'journal': {'name': 'Journal of Ethnopharmacology', 'id': 7}, 'title': 'In vitro anticancer screening of South African plants', 'year': 2008, 'start_page': 455, 'volume': 119, 'issue': 3, 'doi': '10.1016/j.jep.2008.07.005', 'isbn': '', 'despositor': {'code': 'TMM', 'first_name': 'Thommas', 'last_name': 'Musyoka', 'id': 22}, 'refauthors_set': [{'author': {'first_name': '', 'initials': 'G', 'last_name': 'Fouche ', 'id': 671}, 'first_author': True, 'id': 926}, {'author': {'first_name': 'Gordon', 'initials': 'GM', 'last_name': 'Cragg', 'id': 672}, 'first_author': False, 'id': 927}, {'author': {'first_name': '', 'initials': 'P', 'last_name': 'Pillay', 'id': 673}, 'first_author': False, 'id': 928}, {'author': {'first_name': '', 'initials': 'N', 'last_name': 'Kolesnikova', 'id': 674}, 'first_author': False, 'id': 929}, {'author': {'first_name': '', 'initials': 'VJ', 'last_name': 'Maharaj', 'id': 675}, 'first_author': False, 'id': 930}, {'author': {'first_name': '', 'initials': 'J', 'last_name': 'Senabe', 'id': 676}, 'first_author': False, 'id': 931}], 'id': 314}]

>  <classifications>  (328) 
[{'classification': 'Sesquiterpene', 'id': 828}, {'classification': 'Terpenoid', 'id': 839}, {'classification': 'Phenol lipids (Classyfire)', 'id': 951}]

>  <molecular_mass>  (328) 
420.45

$$$$
SANC00431_minRM1.pdb
     RDKit          3D

 39 40  0  0  1  0  0  0  0  0999 V2000
    0.0860   -0.5710   -1.3040 H   0  0  0  0  0  0  0  0  0  0  0  0
    0.6250   -0.7800   -0.3420 C   0  0  1  0  0  0  0  0  0  0  0  0
   -0.2720   -1.4130    0.6790 C   0  0  0  0  0  0  0  0  0  0  0  0
   -1.6030   -1.4420    0.6030 C   0  0  0  0  0  0  0  0  0  0  0  0
   -2.4090   -2.1200    1.6550 C   0  0  0  0  0  0  0  0  0  0  0  0
   -2.4000   -0.8480   -0.5370 C   0  0  1  0  0  0  0  0  0  0  0  0
   -1.7050   -0.4900   -1.3520 H   0  0  0  0  0  0  0  0  0  0  0  0
   -3.2700   -1.8140   -1.0610 O   0  0  0  0  0  0  0  0  0  0  0  0
   -3.3140    0.3050   -0.0610 C   0  0  0  0  0  0  0  0  0  0  0  0
   -2.8080    1.6720   -0.5260 C   0  0  0  0  0  0  0  0  0  0  0  0
   -1.4020    1.8670   -0.0450 C   0  0  0  0  0  0  0  0  0  0  0  0
   -1.2630    2.0220    1.4250 C   0  0  0  0  0  0  0  0  0  0  0  0
   -0.3960    1.8230   -0.9200 C   0  0  0  0  0  0  0  0  0  0  0  0
    1.0600    1.7440   -0.5740 C   0  0  1  0  0  0  0  0  0  0  0  0
    1.6680    1.7110   -1.5230 H   0  0  0  0  0  0  0  0  0  0  0  0
    1.4980    2.8140    0.2140 O   0  0  0  0  0  0  0  0  0  0  0  0
    1.3400    0.4710    0.2520 C   0  0  2  0  0  0  0  0  0  0  0  0
    1.0440    0.6290    1.3180 H   0  0  0  0  0  0  0  0  0  0  0  0
    2.7840    0.1010    0.1910 C   0  0  0  0  0  0  0  0  0  0  0  0
    3.8270    0.8300    0.5600 C   0  0  0  0  0  0  0  0  0  0  0  0
    2.8670   -1.2600   -0.3630 C   0  0  0  0  0  0  0  0  0  0  0  0
    3.8180   -1.9770   -0.5800 O   0  0  0  0  0  0  0  0  0  0  0  0
    1.6230   -1.7340   -0.6760 O   0  0  0  0  0  0  0  0  0  0  0  0
    0.2570   -1.8830    1.5170 H   0  0  0  0  0  0  0  0  0  0  0  0
   -1.8110   -2.4890    2.5010 H   0  0  0  0  0  0  0  0  0  0  0  0
   -3.1730   -1.4520    2.0830 H   0  0  0  0  0  0  0  0  0  0  0  0
   -2.9460   -2.9920    1.2490 H   0  0  0  0  0  0  0  0  0  0  0  0
   -2.7400   -2.5720   -1.3270 H   0  0  0  0  0  0  0  0  0  0  0  0
   -4.3530    0.1620   -0.4340 H   0  0  0  0  0  0  0  0  0  0  0  0
   -3.4290    0.2940    1.0430 H   0  0  0  0  0  0  0  0  0  0  0  0
   -2.8940    1.7600   -1.6300 H   0  0  0  0  0  0  0  0  0  0  0  0
   -3.4710    2.4790   -0.1470 H   0  0  0  0  0  0  0  0  0  0  0  0
   -1.2010    1.0390    1.9200 H   0  0  0  0  0  0  0  0  0  0  0  0
   -0.3810    2.5980    1.7350 H   0  0  0  0  0  0  0  0  0  0  0  0
   -2.1260    2.5400    1.8730 H   0  0  0  0  0  0  0  0  0  0  0  0
   -0.6010    1.7740   -1.9960 H   0  0  0  0  0  0  0  0  0  0  0  0
    1.1510    3.6220   -0.1780 H   0  0  0  0  0  0  0  0  0  0  0  0
    3.7380    1.8330    0.9700 H   0  0  0  0  0  0  0  0  0  0  0  0
    4.8510    0.4720    0.4810 H   0  0  0  0  0  0  0  0  0  0  0  0
  2  1  1  6
  2 23  1  0
  2 17  1  0
  2  3  1  0
  3  4  2  0
  3 24  1  0
  4  6  1  0
  4  5  1  0
  5 27  1  0
  5 26  1  0
  5 25  1  0
  6  7  1  6
  6  8  1  0
  6  9  1  0
  8 28  1  0
  9 10  1  0
  9 29  1  0
  9 30  1  0
 10 31  1  0
 10 32  1  0
 10 11  1  0
 11 13  2  0
 11 12  1  0
 12 34  1  0
 12 35  1  0
 12 33  1  0
 13 36  1  0
 13 14  1  0
 14 15  1  6
 14 16  1  0
 14 17  1  0
 16 37  1  0
 17 19  1  0
 17 18  1  1
 19 21  1  0
 19 20  2  0
 20 39  1  0
 20 38  1  0
 21 23  1  0
 21 22  2  0
M  END
>  <id>  (329) 
431

>  <scaffolds>  (329) 
['O=C1CCCO1', 'C=C1C(=O)OC2C=CCCCC=CCC12']

>  <name>  (329) 
Tatridin A

>  <formula>  (329) 
C15H20O4

>  <SMILES>  (329) 
[H][C@]12C=C(C)[C@@H](O)CCC(C)=C[C@@H](O)[C@]1([H])C(=C)C(=O)O2

>  <ChEMBL_id>  (329) 


>  <ZINC_id>  (329) 


>  <PubChem_id>  (329) 
 14466152

>  <DrugBank_id>  (329) 


>  <CAS_no>  (329) 
41653-75-2

>  <references>  (329) 
[{'journal': {'name': 'Journal of Ethnopharmacology', 'id': 7}, 'title': 'In vitro anticancer screening of South African plants', 'year': 2008, 'start_page': 455, 'volume': 119, 'issue': 3, 'doi': '10.1016/j.jep.2008.07.005', 'isbn': '', 'despositor': {'code': 'TMM', 'first_name': 'Thommas', 'last_name': 'Musyoka', 'id': 22}, 'refauthors_set': [{'author': {'first_name': '', 'initials': 'G', 'last_name': 'Fouche ', 'id': 671}, 'first_author': True, 'id': 926}, {'author': {'first_name': 'Gordon', 'initials': 'GM', 'last_name': 'Cragg', 'id': 672}, 'first_author': False, 'id': 927}, {'author': {'first_name': '', 'initials': 'P', 'last_name': 'Pillay', 'id': 673}, 'first_author': False, 'id': 928}, {'author': {'first_name': '', 'initials': 'N', 'last_name': 'Kolesnikova', 'id': 674}, 'first_author': False, 'id': 929}, {'author': {'first_name': '', 'initials': 'VJ', 'last_name': 'Maharaj', 'id': 675}, 'first_author': False, 'id': 930}, {'author': {'first_name': '', 'initials': 'J', 'last_name': 'Senabe', 'id': 676}, 'first_author': False, 'id': 931}], 'id': 314}]

>  <classifications>  (329) 
[{'classification': 'Sesquiterpene', 'id': 828}, {'classification': 'Terpenoid', 'id': 839}, {'classification': 'Phenol lipids (Classyfire)', 'id': 951}]

>  <molecular_mass>  (329) 
264.32

$$$$
SANC00432_minRM1.pdb
     RDKit          3D

 39 41  0  0  1  0  0  0  0  0999 V2000
    2.2910   -1.2730   -1.6150 C   0  0  0  0  0  0  0  0  0  0  0  0
    1.2300   -0.8530   -0.5960 C   0  0  2  0  0  0  0  0  0  0  0  0
   -0.1110   -1.4930   -1.0190 C   0  0  0  0  0  0  0  0  0  0  0  0
   -1.1900   -0.9080   -0.1300 C   0  0  1  0  0  0  0  0  0  0  0  0
   -0.9520   -1.1170    0.9520 H   0  0  0  0  0  0  0  0  0  0  0  0
   -1.3100    0.6080   -0.4130 C   0  0  2  0  0  0  0  0  0  0  0  0
   -1.3610    0.8180   -1.5150 H   0  0  0  0  0  0  0  0  0  0  0  0
   -0.0700    1.2700    0.1780 C   0  0  1  0  0  0  0  0  0  0  0  0
   -0.0010    1.1070    1.2830 H   0  0  0  0  0  0  0  0  0  0  0  0
    1.1460    0.6910   -0.6020 C   0  0  1  0  0  0  0  0  0  0  0  0
    1.0290    0.9990   -1.6780 H   0  0  0  0  0  0  0  0  0  0  0  0
    2.4020    1.2860   -0.0500 C   0  0  0  0  0  0  0  0  0  0  0  0
    3.0930    2.2070   -0.7150 C   0  0  0  0  0  0  0  0  0  0  0  0
    2.8180    0.8080    1.2990 C   0  0  0  0  0  0  0  0  0  0  0  0
    2.9190   -0.7090    1.3150 C   0  0  0  0  0  0  0  0  0  0  0  0
    1.6110   -1.3420    0.8220 C   0  0  2  0  0  0  0  0  0  0  0  0
    0.7780   -1.0850    1.5400 H   0  0  0  0  0  0  0  0  0  0  0  0
    1.7590   -2.7310    0.7350 O   0  0  0  0  0  0  0  0  0  0  0  0
   -0.1320    2.6550    0.0880 O   0  0  0  0  0  0  0  0  0  0  0  0
   -2.6740    0.8710    0.1220 C   0  0  0  0  0  0  0  0  0  0  0  0
   -3.1920    1.9740    0.6340 C   0  0  0  0  0  0  0  0  0  0  0  0
   -3.3850   -0.4190   -0.0650 C   0  0  0  0  0  0  0  0  0  0  0  0
   -4.5600   -0.6990   -0.0170 O   0  0  0  0  0  0  0  0  0  0  0  0
   -2.4910   -1.4250   -0.3670 O   0  0  0  0  0  0  0  0  0  0  0  0
    3.2660   -0.7960   -1.4390 H   0  0  0  0  0  0  0  0  0  0  0  0
    2.4630   -2.3590   -1.6180 H   0  0  0  0  0  0  0  0  0  0  0  0
    2.0080   -1.0070   -2.6450 H   0  0  0  0  0  0  0  0  0  0  0  0
   -0.3290   -1.3100   -2.0920 H   0  0  0  0  0  0  0  0  0  0  0  0
   -0.0770   -2.5990   -0.9390 H   0  0  0  0  0  0  0  0  0  0  0  0
    2.8170    2.5890   -1.6920 H   0  0  0  0  0  0  0  0  0  0  0  0
    4.0020    2.6670   -0.3390 H   0  0  0  0  0  0  0  0  0  0  0  0
    3.7870    1.2540    1.6120 H   0  0  0  0  0  0  0  0  0  0  0  0
    2.1020    1.1710    2.0680 H   0  0  0  0  0  0  0  0  0  0  0  0
    3.7820   -1.0570    0.7100 H   0  0  0  0  0  0  0  0  0  0  0  0
    3.1540   -1.0630    2.3430 H   0  0  0  0  0  0  0  0  0  0  0  0
    1.9190   -3.0630    1.6230 H   0  0  0  0  0  0  0  0  0  0  0  0
   -0.1030    2.9140   -0.8390 H   0  0  0  0  0  0  0  0  0  0  0  0
   -2.6280    2.8950    0.7540 H   0  0  0  0  0  0  0  0  0  0  0  0
   -4.2220    2.0370    0.9770 H   0  0  0  0  0  0  0  0  0  0  0  0
  1 27  1  0
  1 26  1  0
  1 25  1  0
  2  1  1  6
  2  3  1  0
  2 10  1  0
  2 16  1  0
  3 28  1  0
  3 29  1  0
  3  4  1  0
  4  6  1  0
  4 24  1  0
  4  5  1  1
  6  7  1  6
  6 20  1  0
  6  8  1  0
  8 10  1  0
  8 19  1  0
  8  9  1  1
 10 11  1  6
 10 12  1  0
 12 13  2  0
 12 14  1  0
 13 30  1  0
 13 31  1  0
 14 15  1  0
 14 32  1  0
 14 33  1  0
 15 34  1  0
 15 16  1  0
 15 35  1  0
 16 18  1  0
 16 17  1  1
 18 36  1  0
 19 37  1  0
 20 22  1  0
 20 21  2  0
 21 38  1  0
 21 39  1  0
 22 24  1  0
 22 23  2  0
M  END
>  <id>  (330) 
432

>  <scaffolds>  (330) 
['C1CCCCC1', 'C=C1CCCC2CCCCC12', 'C=C1CCCC2CC3OC(=O)C(=C)C3CC12', 'O=C1CCCO1', 'C=C1C(=O)OC2CCCCC12', 'C1CCC2CCCCC2C1']

>  <name>  (330) 
Deacetyl-[beta]-cyclopyrethrosin

>  <formula>  (330) 
C15H20O4

>  <SMILES>  (330) 
C[C@]12C[C@H]3[C@H]([C@@H]([C@H]1C(=C)CC[C@@H]2O)O)C(=C)C(=O)O3

>  <ChEMBL_id>  (330) 


>  <ZINC_id>  (330) 


>  <PubChem_id>  (330) 


>  <DrugBank_id>  (330) 


>  <CAS_no>  (330) 
83790-58-3

>  <references>  (330) 
[{'journal': {'name': 'Journal of Ethnopharmacology', 'id': 7}, 'title': 'In vitro anticancer screening of South African plants', 'year': 2008, 'start_page': 455, 'volume': 119, 'issue': 3, 'doi': '10.1016/j.jep.2008.07.005', 'isbn': '', 'despositor': {'code': 'TMM', 'first_name': 'Thommas', 'last_name': 'Musyoka', 'id': 22}, 'refauthors_set': [{'author': {'first_name': '', 'initials': 'G', 'last_name': 'Fouche ', 'id': 671}, 'first_author': True, 'id': 926}, {'author': {'first_name': 'Gordon', 'initials': 'GM', 'last_name': 'Cragg', 'id': 672}, 'first_author': False, 'id': 927}, {'author': {'first_name': '', 'initials': 'P', 'last_name': 'Pillay', 'id': 673}, 'first_author': False, 'id': 928}, {'author': {'first_name': '', 'initials': 'N', 'last_name': 'Kolesnikova', 'id': 674}, 'first_author': False, 'id': 929}, {'author': {'first_name': '', 'initials': 'VJ', 'last_name': 'Maharaj', 'id': 675}, 'first_author': False, 'id': 930}, {'author': {'first_name': '', 'initials': 'J', 'last_name': 'Senabe', 'id': 676}, 'first_author': False, 'id': 931}], 'id': 314}]

>  <classifications>  (330) 
[{'classification': 'Sesquiterpene', 'id': 828}, {'classification': 'Terpenoid', 'id': 839}, {'classification': 'Phenol lipids (Classyfire)', 'id': 951}]

>  <molecular_mass>  (330) 
264.32

$$$$
SANC00433_minRM1.pdb
     RDKit          3D

 53 57  0  0  1  0  0  0  0  0999 V2000
   -4.1700    0.4340    1.5690 C   0  0  0  0  0  0  0  0  0  0  0  0
   -3.2220    0.3640    0.3960 C   0  0  1  0  0  0  0  0  0  0  0  0
   -3.5630    1.3910   -0.6900 C   0  0  0  0  0  0  0  0  0  0  0  0
   -2.7320    1.1540   -1.9500 C   0  0  0  0  0  0  0  0  0  0  0  0
   -1.2620    0.8220   -1.6770 C   0  0  0  0  0  0  0  0  0  0  0  0
   -1.1110   -0.1700   -0.5080 C   0  0  2  0  0  0  0  0  0  0  0  0
   -1.7310    0.5340    0.7310 C   0  0  2  0  0  0  0  0  0  0  0  0
   -1.4600    1.6140    0.7970 H   0  0  0  0  0  0  0  0  0  0  0  0
   -1.2810   -0.1500    2.0040 C   0  0  0  0  0  0  0  0  0  0  0  0
    0.2200    0.0690    2.1780 C   0  0  0  0  0  0  0  0  0  0  0  0
    1.0130    0.0130    0.8750 C   0  0  2  0  0  0  0  0  0  0  0  0
    0.3000   -0.7770   -0.2470 C   0  0  2  0  0  0  0  0  0  0  0  0
    1.1460   -0.7580   -1.5350 C   0  0  0  0  0  0  0  0  0  0  0  0
    2.6260   -1.0570   -1.3050 C   0  0  0  0  0  0  0  0  0  0  0  0
    3.1520   -0.1840   -0.1600 C   0  0  2  0  0  0  0  0  0  0  0  0
    2.4110   -0.5940    1.1260 C   0  0  0  0  0  0  0  0  0  0  0  0
    2.7120    1.2460   -0.3490 C   0  0  0  0  0  0  0  0  0  0  0  0
    3.3570    2.2130   -0.9820 C   0  0  0  0  0  0  0  0  0  0  0  0
    1.4100    1.3860    0.3380 C   0  0  0  0  0  0  0  0  0  0  0  0
    0.8100    2.4290    0.4870 O   0  0  0  0  0  0  0  0  0  0  0  0
    4.5460   -0.1760   -0.0530 O   0  0  0  0  0  0  0  0  0  0  0  0
    5.1370   -1.4120    0.2380 C   0  0  0  0  0  0  0  0  0  0  0  0
    0.1710   -2.2390    0.2060 C   0  0  0  0  0  0  0  0  0  0  0  0
   -1.9840   -1.2600   -0.7970 O   0  0  0  0  0  0  0  0  0  0  0  0
   -3.2180   -0.9990   -0.2650 C   0  0  0  0  0  0  0  0  0  0  0  0
   -4.0810   -1.8360   -0.3940 O   0  0  0  0  0  0  0  0  0  0  0  0
   -4.0460    1.3680    2.1340 H   0  0  0  0  0  0  0  0  0  0  0  0
   -5.2220    0.3850    1.2490 H   0  0  0  0  0  0  0  0  0  0  0  0
   -4.0320   -0.3990    2.2740 H   0  0  0  0  0  0  0  0  0  0  0  0
   -4.6450    1.3520   -0.9390 H   0  0  0  0  0  0  0  0  0  0  0  0
   -3.4100    2.4180   -0.2970 H   0  0  0  0  0  0  0  0  0  0  0  0
   -3.1920    0.3410   -2.5550 H   0  0  0  0  0  0  0  0  0  0  0  0
   -2.7930    2.0440   -2.6120 H   0  0  0  0  0  0  0  0  0  0  0  0
   -0.8170    0.4190   -2.6110 H   0  0  0  0  0  0  0  0  0  0  0  0
   -0.6910    1.7500   -1.4660 H   0  0  0  0  0  0  0  0  0  0  0  0
   -1.8210    0.2450    2.8900 H   0  0  0  0  0  0  0  0  0  0  0  0
   -1.5260   -1.2360    1.9830 H   0  0  0  0  0  0  0  0  0  0  0  0
    0.4050    1.0410    2.6850 H   0  0  0  0  0  0  0  0  0  0  0  0
    0.6070   -0.6850    2.8980 H   0  0  0  0  0  0  0  0  0  0  0  0
    0.7280   -1.4820   -2.2680 H   0  0  0  0  0  0  0  0  0  0  0  0
    1.0750    0.2200   -2.0570 H   0  0  0  0  0  0  0  0  0  0  0  0
    2.7830   -2.1360   -1.0970 H   0  0  0  0  0  0  0  0  0  0  0  0
    3.2050   -0.8690   -2.2330 H   0  0  0  0  0  0  0  0  0  0  0  0
    2.8930   -0.1690    2.0290 H   0  0  0  0  0  0  0  0  0  0  0  0
    2.3840   -1.6870    1.3030 H   0  0  0  0  0  0  0  0  0  0  0  0
    4.3200    2.0690   -1.4650 H   0  0  0  0  0  0  0  0  0  0  0  0
    2.9710    3.2270   -1.0580 H   0  0  0  0  0  0  0  0  0  0  0  0
    6.2060   -1.1740    0.3560 H   0  0  0  0  0  0  0  0  0  0  0  0
    4.7800   -1.8740    1.1730 H   0  0  0  0  0  0  0  0  0  0  0  0
    5.0380   -2.1500   -0.5760 H   0  0  0  0  0  0  0  0  0  0  0  0
   -0.5410   -2.3680    1.0370 H   0  0  0  0  0  0  0  0  0  0  0  0
   -0.1690   -2.9090   -0.5980 H   0  0  0  0  0  0  0  0  0  0  0  0
    1.1270   -2.6600    0.5580 H   0  0  0  0  0  0  0  0  0  0  0  0
  1 28  1  0
  1 27  1  0
  1 29  1  0
  2  1  1  1
  2  3  1  0
  2 25  1  0
  2  7  1  0
  3  4  1  0
  3 30  1  0
  3 31  1  0
  4 33  1  0
  4 32  1  0
  4  5  1  0
  5 34  1  0
  5 35  1  0
  5  6  1  0
  6 24  1  6
  6 12  1  0
  6  7  1  0
  7  8  1  1
  7  9  1  0
  9 37  1  0
  9 10  1  0
  9 36  1  0
 10 11  1  0
 10 38  1  0
 10 39  1  0
 11 12  1  0
 11 19  1  6
 11 16  1  0
 12 13  1  0
 12 23  1  1
 13 40  1  0
 13 41  1  0
 13 14  1  0
 14 43  1  0
 14 42  1  0
 14 15  1  0
 15 17  1  0
 15 21  1  1
 15 16  1  0
 16 45  1  0
 16 44  1  0
 17 18  2  0
 17 19  1  0
 18 46  1  0
 18 47  1  0
 19 20  2  0
 21 22  1  0
 22 50  1  0
 22 48  1  0
 22 49  1  0
 23 52  1  0
 23 53  1  0
 23 51  1  0
 24 25  1  0
 25 26  2  0
M  END
>  <id>  (331) 
433

>  <scaffolds>  (331) 
['C1CCCCC1', 'C=C1C(=O)C23CCC4C5CCCC4(OC5=O)C2CCC1C3', 'O=C1CCCO1', 'C=C1CC23CCC4CCCCC4C2CCC1C3', 'C1CCC2CCCCC2C1']

>  <name>  (331) 
13-methoxy-15-oxozoapatlin

>  <formula>  (331) 
C21H28O4

>  <SMILES>  (331) 
C[C@@]12CCC[C@@]3([C@@H]1CC[C@]45[C@@]3(CC[C@](C4)(C(=C)C5=O)OC)C)OC2=O

>  <ChEMBL_id>  (331) 
CHEMBL465475

>  <ZINC_id>  (331) 


>  <PubChem_id>  (331) 


>  <DrugBank_id>  (331) 


>  <CAS_no>  (331) 
173962-79-3

>  <references>  (331) 
[{'journal': {'name': 'Journal of Ethnopharmacology', 'id': 7}, 'title': 'In vitro anticancer screening of South African plants', 'year': 2008, 'start_page': 455, 'volume': 119, 'issue': 3, 'doi': '10.1016/j.jep.2008.07.005', 'isbn': '', 'despositor': {'code': 'TMM', 'first_name': 'Thommas', 'last_name': 'Musyoka', 'id': 22}, 'refauthors_set': [{'author': {'first_name': '', 'initials': 'G', 'last_name': 'Fouche ', 'id': 671}, 'first_author': True, 'id': 926}, {'author': {'first_name': 'Gordon', 'initials': 'GM', 'last_name': 'Cragg', 'id': 672}, 'first_author': False, 'id': 927}, {'author': {'first_name': '', 'initials': 'P', 'last_name': 'Pillay', 'id': 673}, 'first_author': False, 'id': 928}, {'author': {'first_name': '', 'initials': 'N', 'last_name': 'Kolesnikova', 'id': 674}, 'first_author': False, 'id': 929}, {'author': {'first_name': '', 'initials': 'VJ', 'last_name': 'Maharaj', 'id': 675}, 'first_author': False, 'id': 930}, {'author': {'first_name': '', 'initials': 'J', 'last_name': 'Senabe', 'id': 676}, 'first_author': False, 'id': 931}], 'id': 314}]

>  <classifications>  (331) 
[{'classification': 'Diterpene', 'id': 771}, {'classification': 'Terpenoid', 'id': 839}, {'classification': 'Naphthofurans (Classyfire)', 'id': 974}]

>  <molecular_mass>  (331) 
344.44

$$$$
SANC00434_minRM1.pdb
     RDKit          3D

 42 45  0  0  0  0  0  0  0  0999 V2000
    5.8820    1.8500    2.1560 C   0  0  0  0  0  0  0  0  0  0  0  0
    5.0130    1.0950    1.2150 C   0  0  0  0  0  0  0  0  0  0  0  0
    3.6210    1.0650    1.4340 C   0  0  0  0  0  0  0  0  0  0  0  0
    2.8020    0.3830    0.5610 C   0  0  0  0  0  0  0  0  0  0  0  0
    3.3410   -0.2780   -0.5510 C   0  0  0  0  0  0  0  0  0  0  0  0
    4.7210   -0.2300   -0.7670 C   0  0  0  0  0  0  0  0  0  0  0  0
    5.5680    0.4570    0.1280 C   0  0  0  0  0  0  0  0  0  0  0  0
    5.3320   -0.8150   -1.8050 O   0  0  0  0  0  0  0  0  0  0  0  0
    2.4910   -1.0060   -1.4820 C   0  0  0  0  0  0  0  0  0  0  0  0
    2.9820   -1.5550   -2.4700 O   0  0  0  0  0  0  0  0  0  0  0  0
    1.0480   -1.0690   -1.2110 C   0  0  0  0  0  0  0  0  0  0  0  0
    0.5190   -0.4480   -0.1540 C   0  0  0  0  0  0  0  0  0  0  0  0
    1.3400    0.3440    0.7960 C   0  0  0  0  0  0  0  0  0  0  0  0
    0.8260    0.9290    1.7330 O   0  0  0  0  0  0  0  0  0  0  0  0
   -0.9230   -0.4900    0.0880 C   0  0  0  0  0  0  0  0  0  0  0  0
   -1.7520    0.4550   -0.5590 C   0  0  0  0  0  0  0  0  0  0  0  0
   -3.1360    0.4320   -0.3620 C   0  0  0  0  0  0  0  0  0  0  0  0
   -3.6910   -0.5390    0.4810 C   0  0  0  0  0  0  0  0  0  0  0  0
   -2.8850   -1.4520    1.1260 C   0  0  0  0  0  0  0  0  0  0  0  0
   -1.4900   -1.4260    0.9310 C   0  0  0  0  0  0  0  0  0  0  0  0
   -0.6500   -2.4400    1.6190 C   0  0  0  0  0  0  0  0  0  0  0  0
   -5.1590   -0.5790    0.6720 C   0  0  0  0  0  0  0  0  0  0  0  0
   -5.6910   -1.3690    1.4330 O   0  0  0  0  0  0  0  0  0  0  0  0
   -5.9800    0.3810   -0.1000 C   0  0  0  0  0  0  0  0  0  0  0  0
   -5.4340    1.3220   -0.8660 C   0  0  0  0  0  0  0  0  0  0  0  0
   -3.9750    1.4170   -1.0320 C   0  0  0  0  0  0  0  0  0  0  0  0
   -3.4630    2.2880   -1.7360 O   0  0  0  0  0  0  0  0  0  0  0  0
   -1.1340    1.3290   -1.3600 O   0  0  0  0  0  0  0  0  0  0  0  0
    5.9960    2.8930    1.8230 H   0  0  0  0  0  0  0  0  0  0  0  0
    5.4790    1.8850    3.1800 H   0  0  0  0  0  0  0  0  0  0  0  0
    6.8950    1.4280    2.2350 H   0  0  0  0  0  0  0  0  0  0  0  0
    3.2010    1.5890    2.3000 H   0  0  0  0  0  0  0  0  0  0  0  0
    6.6460    0.4750   -0.0600 H   0  0  0  0  0  0  0  0  0  0  0  0
    4.6740   -1.2440   -2.4060 H   0  0  0  0  0  0  0  0  0  0  0  0
    0.4380   -1.6360   -1.9230 H   0  0  0  0  0  0  0  0  0  0  0  0
   -3.3220   -2.2040    1.7930 H   0  0  0  0  0  0  0  0  0  0  0  0
   -0.5050   -3.3230    0.9760 H   0  0  0  0  0  0  0  0  0  0  0  0
    0.3510   -2.0650    1.8800 H   0  0  0  0  0  0  0  0  0  0  0  0
   -1.0950   -2.8000    2.5590 H   0  0  0  0  0  0  0  0  0  0  0  0
   -7.0670    0.2720   -0.0040 H   0  0  0  0  0  0  0  0  0  0  0  0
   -6.0390    2.0540   -1.4170 H   0  0  0  0  0  0  0  0  0  0  0  0
   -1.7790    1.9780   -1.7440 H   0  0  0  0  0  0  0  0  0  0  0  0
  1  2  1  0
  1 29  1  0
  1 31  1  0
  1 30  1  0
  2  7  2  0
  2  3  1  0
  3  4  2  0
  3 32  1  0
  4  5  1  0
  4 13  1  0
  5  9  1  0
  5  6  2  0
  6  8  1  0
  6  7  1  0
  7 33  1  0
  8 34  1  0
  9 10  2  0
  9 11  1  0
 11 35  1  0
 11 12  2  0
 12 15  1  0
 12 13  1  0
 13 14  2  0
 15 16  2  0
 15 20  1  0
 16 28  1  0
 16 17  1  0
 17 26  1  0
 17 18  2  0
 18 22  1  0
 18 19  1  0
 19 20  2  0
 19 36  1  0
 20 21  1  0
 21 37  1  0
 21 38  1  0
 21 39  1  0
 22 24  1  0
 22 23  2  0
 24 25  2  0
 24 40  1  0
 25 41  1  0
 25 26  1  0
 26 27  2  0
 28 42  1  0
M  END
>  <id>  (332) 
434

>  <scaffolds>  (332) 
['c1ccccc1', 'c1ccc(CCc2ccccc2)cc1', 'O=C(C=Cc1ccccc1)c1ccccc1', 'C(=Cc1ccccc1)Cc1ccccc1', 'O=C1C=CC(=O)c2ccccc21', 'O=C1C=CC(=O)c2cc(C3=CC(=O)c4ccccc4C3=O)ccc21']

>  <name>  (332) 
Diospyrin

>  <formula>  (332) 
C22H14O6

>  <SMILES>  (332) 
CC1=CC2=C(C(=C1)O)C(=O)C=C(C2=O)C3=C(C4=C(C=C3C)C(=O)C=CC4=O)O

>  <ChEMBL_id>  (332) 
CHEMBL242550

>  <ZINC_id>  (332) 


>  <PubChem_id>  (332) 
 308140

>  <DrugBank_id>  (332) 


>  <CAS_no>  (332) 
28164-57-0

>  <references>  (332) 
[{'journal': {'name': 'South African Journal of Botany', 'id': 1}, 'title': 'Antimycobacterial activity and possible mode of action of newly isolated neodiospyrin and other naphthoquinones from Euclea natalensis', 'year': 2006, 'start_page': 349, 'volume': 72, 'issue': 3, 'doi': '10.1016/j.sajb.2005.09.009', 'isbn': '', 'despositor': {'code': 'TMM', 'first_name': 'Thommas', 'last_name': 'Musyoka', 'id': 22}, 'refauthors_set': [{'author': {'first_name': '', 'initials': 'F', 'last_name': 'van der Kooy', 'id': 677}, 'first_author': True, 'id': 932}, {'author': {'first_name': 'Jacobus', 'initials': 'JJM', 'last_name': 'Meyer', 'id': 467}, 'first_author': False, 'id': 933}, {'author': {'first_name': 'Namrita', 'initials': 'N', 'last_name': 'Lall', 'id': 441}, 'first_author': False, 'id': 934}], 'id': 315}]

>  <classifications>  (332) 
[{'classification': 'Naphthoquinone', 'id': 798}, {'classification': 'Naphthalenes (Classyfire)', 'id': 983}]

>  <molecular_mass>  (332) 
374.34

$$$$
SANC00435_minRM1.pdb
     RDKit          3D

 42 45  0  0  0  0  0  0  0  0999 V2000
   -0.0820    0.2610    2.9040 C   0  0  0  0  0  0  0  0  0  0  0  0
   -0.9400    0.2270    1.6900 C   0  0  0  0  0  0  0  0  0  0  0  0
   -2.3180   -0.0210    1.8400 C   0  0  0  0  0  0  0  0  0  0  0  0
   -3.1410   -0.0450    0.7360 C   0  0  0  0  0  0  0  0  0  0  0  0
   -2.6200    0.1770   -0.5460 C   0  0  0  0  0  0  0  0  0  0  0  0
   -3.4760    0.1400   -1.7230 C   0  0  0  0  0  0  0  0  0  0  0  0
   -3.0060    0.3620   -2.8410 O   0  0  0  0  0  0  0  0  0  0  0  0
   -4.9040   -0.1680   -1.5420 C   0  0  0  0  0  0  0  0  0  0  0  0
   -5.4170   -0.3700   -0.3310 C   0  0  0  0  0  0  0  0  0  0  0  0
   -4.5880   -0.3070    0.8940 C   0  0  0  0  0  0  0  0  0  0  0  0
   -5.1000   -0.4730    1.9890 O   0  0  0  0  0  0  0  0  0  0  0  0
   -1.2520    0.4260   -0.6940 C   0  0  0  0  0  0  0  0  0  0  0  0
   -0.4030    0.4560    0.4390 C   0  0  0  0  0  0  0  0  0  0  0  0
    1.0250    0.7120    0.2490 C   0  0  0  0  0  0  0  0  0  0  0  0
    1.9180   -0.3240    0.0570 C   0  0  0  0  0  0  0  0  0  0  0  0
    1.4790   -1.7370    0.0250 C   0  0  0  0  0  0  0  0  0  0  0  0
    0.3190   -2.0660   -0.1330 O   0  0  0  0  0  0  0  0  0  0  0  0
    2.5250   -2.7780    0.1640 C   0  0  0  0  0  0  0  0  0  0  0  0
    3.8150   -2.5000   -0.0090 C   0  0  0  0  0  0  0  0  0  0  0  0
    4.2540   -1.1250   -0.2980 C   0  0  0  0  0  0  0  0  0  0  0  0
    5.4170   -0.8740   -0.6120 O   0  0  0  0  0  0  0  0  0  0  0  0
    3.2790   -0.0510   -0.1560 C   0  0  0  0  0  0  0  0  0  0  0  0
    3.7100    1.2770   -0.2160 C   0  0  0  0  0  0  0  0  0  0  0  0
    2.8060    2.3370    0.0010 C   0  0  0  0  0  0  0  0  0  0  0  0
    1.4790    2.0510    0.2360 C   0  0  0  0  0  0  0  0  0  0  0  0
    0.5170    3.1660    0.4380 C   0  0  0  0  0  0  0  0  0  0  0  0
    4.9780    1.6380   -0.4480 O   0  0  0  0  0  0  0  0  0  0  0  0
   -0.6750    0.7020   -1.8710 O   0  0  0  0  0  0  0  0  0  0  0  0
    0.0090    1.2910    3.2840 H   0  0  0  0  0  0  0  0  0  0  0  0
   -0.4780   -0.3510    3.7280 H   0  0  0  0  0  0  0  0  0  0  0  0
    0.9400   -0.1020    2.7190 H   0  0  0  0  0  0  0  0  0  0  0  0
   -2.7260   -0.2110    2.8390 H   0  0  0  0  0  0  0  0  0  0  0  0
   -5.5140   -0.2220   -2.4520 H   0  0  0  0  0  0  0  0  0  0  0  0
   -6.4790   -0.6010   -0.1830 H   0  0  0  0  0  0  0  0  0  0  0  0
    2.1720   -3.7930    0.3790 H   0  0  0  0  0  0  0  0  0  0  0  0
    4.5970   -3.2640    0.0580 H   0  0  0  0  0  0  0  0  0  0  0  0
    3.1740    3.3670   -0.0270 H   0  0  0  0  0  0  0  0  0  0  0  0
    0.0230    3.4230   -0.5140 H   0  0  0  0  0  0  0  0  0  0  0  0
   -0.2810    2.9200    1.1560 H   0  0  0  0  0  0  0  0  0  0  0  0
    0.9950    4.0860    0.8090 H   0  0  0  0  0  0  0  0  0  0  0  0
    5.5440    0.8520   -0.6400 H   0  0  0  0  0  0  0  0  0  0  0  0
   -1.3280    0.6040   -2.6020 H   0  0  0  0  0  0  0  0  0  0  0  0
  1  2  1  0
  1 31  1  0
  1 29  1  0
  1 30  1  0
  2 13  2  0
  2  3  1  0
  3  4  2  0
  3 32  1  0
  4  5  1  0
  4 10  1  0
  5  6  1  0
  5 12  2  0
  6  7  2  0
  6  8  1  0
  8 33  1  0
  8  9  2  0
  9 34  1  0
  9 10  1  0
 10 11  2  0
 12 28  1  0
 12 13  1  0
 13 14  1  0
 14 15  2  0
 14 25  1  0
 15 22  1  0
 15 16  1  0
 16 17  2  0
 16 18  1  0
 18 19  2  0
 18 35  1  0
 19 20  1  0
 19 36  1  0
 20 21  2  0
 20 22  1  0
 22 23  2  0
 23 27  1  0
 23 24  1  0
 24 37  1  0
 24 25  2  0
 25 26  1  0
 26 38  1  0
 26 40  1  0
 26 39  1  0
 27 41  1  0
 28 42  1  0
M  END
>  <id>  (333) 
435

>  <scaffolds>  (333) 
['c1ccccc1', 'O=C1C=CC(=O)c2ccccc21']

>  <name>  (333) 
Isodiospyrin

>  <formula>  (333) 
C22H14O6

>  <SMILES>  (333) 
CC1=CC2=C(C(=O)C=CC2=O)C(=C1C3=C4C(=O)C=CC(=O)C4=C(C=C3C)O)O

>  <ChEMBL_id>  (333) 
CHEMBL1992900

>  <ZINC_id>  (333) 


>  <PubChem_id>  (333) 
 99298

>  <DrugBank_id>  (333) 


>  <CAS_no>  (333) 
20175-84-2

>  <references>  (333) 
[{'journal': {'name': 'South African Journal of Botany', 'id': 1}, 'title': 'Antimycobacterial activity and possible mode of action of newly isolated neodiospyrin and other naphthoquinones from Euclea natalensis', 'year': 2006, 'start_page': 349, 'volume': 72, 'issue': 3, 'doi': '10.1016/j.sajb.2005.09.009', 'isbn': '', 'despositor': {'code': 'TMM', 'first_name': 'Thommas', 'last_name': 'Musyoka', 'id': 22}, 'refauthors_set': [{'author': {'first_name': '', 'initials': 'F', 'last_name': 'van der Kooy', 'id': 677}, 'first_author': True, 'id': 932}, {'author': {'first_name': 'Jacobus', 'initials': 'JJM', 'last_name': 'Meyer', 'id': 467}, 'first_author': False, 'id': 933}, {'author': {'first_name': 'Namrita', 'initials': 'N', 'last_name': 'Lall', 'id': 441}, 'first_author': False, 'id': 934}], 'id': 315}]

>  <classifications>  (333) 
[{'classification': 'Naphthoquinone', 'id': 798}, {'classification': 'Naphthalenes (Classyfire)', 'id': 983}]

>  <molecular_mass>  (333) 
374.34

$$$$
SANC00436_minRM1.pdb
     RDKit          3D

 42 45  0  0  0  0  0  0  0  0999 V2000
    3.1730   -2.7320   -1.6530 O   0  0  0  0  0  0  0  0  0  0  0  0
    2.6950   -1.7890   -1.0460 C   0  0  0  0  0  0  0  0  0  0  0  0
    1.2380   -1.7340   -0.7900 C   0  0  0  0  0  0  0  0  0  0  0  0
    0.6980   -0.7870   -0.0220 C   0  0  0  0  0  0  0  0  0  0  0  0
   -0.7460   -0.7340    0.1920 C   0  0  0  0  0  0  0  0  0  0  0  0
   -1.3940   -1.7300    0.7970 C   0  0  0  0  0  0  0  0  0  0  0  0
   -2.8590   -1.6850    1.0080 C   0  0  0  0  0  0  0  0  0  0  0  0
   -3.4030   -2.5180    1.7120 O   0  0  0  0  0  0  0  0  0  0  0  0
   -3.6130   -0.6100    0.3310 C   0  0  0  0  0  0  0  0  0  0  0  0
   -2.9100    0.4400   -0.2790 C   0  0  0  0  0  0  0  0  0  0  0  0
   -3.6310    1.4730   -0.8850 C   0  0  0  0  0  0  0  0  0  0  0  0
   -3.0630    2.5370   -1.4660 O   0  0  0  0  0  0  0  0  0  0  0  0
   -5.0420    1.4410   -0.9230 C   0  0  0  0  0  0  0  0  0  0  0  0
   -5.7050    0.3850   -0.3380 C   0  0  0  0  0  0  0  0  0  0  0  0
   -4.9890   -0.6460    0.3020 C   0  0  0  0  0  0  0  0  0  0  0  0
   -7.1890    0.3100   -0.3950 C   0  0  0  0  0  0  0  0  0  0  0  0
   -1.4530    0.4580   -0.3160 C   0  0  0  0  0  0  0  0  0  0  0  0
   -0.8530    1.4140   -0.8000 O   0  0  0  0  0  0  0  0  0  0  0  0
    1.5230    0.2510    0.6270 C   0  0  0  0  0  0  0  0  0  0  0  0
    1.0490    1.0460    1.4360 O   0  0  0  0  0  0  0  0  0  0  0  0
    2.9380    0.2950    0.2880 C   0  0  0  0  0  0  0  0  0  0  0  0
    3.5220   -0.6720   -0.5430 C   0  0  0  0  0  0  0  0  0  0  0  0
    4.8550   -0.5980   -0.8810 C   0  0  0  0  0  0  0  0  0  0  0  0
    5.6490    0.4540   -0.3820 C   0  0  0  0  0  0  0  0  0  0  0  0
    5.1080    1.4060    0.4530 C   0  0  0  0  0  0  0  0  0  0  0  0
    3.7410    1.3210    0.7970 C   0  0  0  0  0  0  0  0  0  0  0  0
    3.2960    2.2760    1.6230 O   0  0  0  0  0  0  0  0  0  0  0  0
    7.0790    0.5320   -0.7800 C   0  0  0  0  0  0  0  0  0  0  0  0
    0.6290   -2.5050   -1.2770 H   0  0  0  0  0  0  0  0  0  0  0  0
   -0.8730   -2.6180    1.1780 H   0  0  0  0  0  0  0  0  0  0  0  0
   -2.0790    2.4830   -1.4180 H   0  0  0  0  0  0  0  0  0  0  0  0
   -5.5830    2.2540   -1.4190 H   0  0  0  0  0  0  0  0  0  0  0  0
   -5.5330   -1.4710    0.7730 H   0  0  0  0  0  0  0  0  0  0  0  0
   -7.5150   -0.2400   -1.2920 H   0  0  0  0  0  0  0  0  0  0  0  0
   -7.6230   -0.2100    0.4720 H   0  0  0  0  0  0  0  0  0  0  0  0
   -7.6670    1.3000   -0.4360 H   0  0  0  0  0  0  0  0  0  0  0  0
    5.3060   -1.3540   -1.5340 H   0  0  0  0  0  0  0  0  0  0  0  0
    5.7150    2.2210    0.8600 H   0  0  0  0  0  0  0  0  0  0  0  0
    2.3470    2.1330    1.8430 H   0  0  0  0  0  0  0  0  0  0  0  0
    7.1930    1.1260   -1.7000 H   0  0  0  0  0  0  0  0  0  0  0  0
    7.7120    1.0020   -0.0130 H   0  0  0  0  0  0  0  0  0  0  0  0
    7.5220   -0.4560   -0.9800 H   0  0  0  0  0  0  0  0  0  0  0  0
  1  2  2  0
  2  3  1  0
  2 22  1  0
  3 29  1  0
  3  4  2  0
  4  5  1  0
  4 19  1  0
  5 17  1  0
  5  6  2  0
  6  7  1  0
  6 30  1  0
  7  9  1  0
  7  8  2  0
  9 10  2  0
  9 15  1  0
 10 11  1  0
 10 17  1  0
 11 12  1  0
 11 13  2  0
 12 31  1  0
 13 32  1  0
 13 14  1  0
 14 16  1  0
 14 15  2  0
 15 33  1  0
 16 34  1  0
 16 36  1  0
 16 35  1  0
 17 18  2  0
 19 21  1  0
 19 20  2  0
 21 22  2  0
 21 26  1  0
 22 23  1  0
 23 37  1  0
 23 24  2  0
 24 28  1  0
 24 25  1  0
 25 26  2  0
 25 38  1  0
 26 27  1  0
 27 39  1  0
 28 40  1  0
 28 42  1  0
 28 41  1  0
M  END
>  <id>  (334) 
436

>  <scaffolds>  (334) 
['c1ccccc1', 'C=C(Cc1ccccc1)C(=C)Cc1ccccc1', 'O=C1C=CC(=O)c2ccccc21', 'O=C1C=C(C2=CC(=O)c3ccccc3C2=O)C(=O)c2ccccc21']

>  <name>  (334) 
Mamegakinone

>  <formula>  (334) 
C22H14O6

>  <SMILES>  (334) 
O=C3\C=C(\C2=C\C(=O)c1c(c(O)cc(c1)C)C2=O)C(=O)c4c3cc(cc4O)C

>  <ChEMBL_id>  (334) 


>  <ZINC_id>  (334) 


>  <PubChem_id>  (334) 
 167673

>  <DrugBank_id>  (334) 


>  <CAS_no>  (334) 
17734-93-9

>  <references>  (334) 
[{'journal': {'name': 'South African Journal of Botany', 'id': 1}, 'title': 'Antimycobacterial activity and possible mode of action of newly isolated neodiospyrin and other naphthoquinones from Euclea natalensis', 'year': 2006, 'start_page': 349, 'volume': 72, 'issue': 3, 'doi': '10.1016/j.sajb.2005.09.009', 'isbn': '', 'despositor': {'code': 'TMM', 'first_name': 'Thommas', 'last_name': 'Musyoka', 'id': 22}, 'refauthors_set': [{'author': {'first_name': '', 'initials': 'F', 'last_name': 'van der Kooy', 'id': 677}, 'first_author': True, 'id': 932}, {'author': {'first_name': 'Jacobus', 'initials': 'JJM', 'last_name': 'Meyer', 'id': 467}, 'first_author': False, 'id': 933}, {'author': {'first_name': 'Namrita', 'initials': 'N', 'last_name': 'Lall', 'id': 441}, 'first_author': False, 'id': 934}], 'id': 315}]

>  <classifications>  (334) 
[{'classification': 'Naphthoquinone', 'id': 798}, {'classification': 'Naphthalenes (Classyfire)', 'id': 983}]

>  <molecular_mass>  (334) 
374.34

$$$$
SANC00437_minRM1.pdb
     RDKit          3D

 22 23  0  0  0  0  0  0  0  0999 V2000
   -3.7630    1.0170   -0.0340 C   0  0  0  0  0  0  0  0  0  0  0  0
   -2.3860    0.4580   -0.0140 C   0  0  0  0  0  0  0  0  0  0  0  0
   -1.2850    1.3370   -0.0170 C   0  0  0  0  0  0  0  0  0  0  0  0
   -0.0030    0.8360    0.0100 C   0  0  0  0  0  0  0  0  0  0  0  0
    0.2210   -0.5490    0.0630 C   0  0  0  0  0  0  0  0  0  0  0  0
    1.5680   -1.0990    0.1030 C   0  0  0  0  0  0  0  0  0  0  0  0
    1.7440   -2.3100    0.1760 O   0  0  0  0  0  0  0  0  0  0  0  0
    2.7040   -0.1640    0.0340 C   0  0  0  0  0  0  0  0  0  0  0  0
    2.5130    1.1530   -0.0130 C   0  0  0  0  0  0  0  0  0  0  0  0
    1.1580    1.7520    0.0070 C   0  0  0  0  0  0  0  0  0  0  0  0
    1.0260    2.9640    0.0350 O   0  0  0  0  0  0  0  0  0  0  0  0
   -0.8780   -1.4120    0.0950 C   0  0  0  0  0  0  0  0  0  0  0  0
   -2.1950   -0.9050    0.0510 C   0  0  0  0  0  0  0  0  0  0  0  0
   -0.7750   -2.7470    0.1720 O   0  0  0  0  0  0  0  0  0  0  0  0
   -4.1220    1.2220    0.9860 H   0  0  0  0  0  0  0  0  0  0  0  0
   -3.8290    1.9680   -0.5830 H   0  0  0  0  0  0  0  0  0  0  0  0
   -4.4980    0.3320   -0.4860 H   0  0  0  0  0  0  0  0  0  0  0  0
   -1.4600    2.4190   -0.0380 H   0  0  0  0  0  0  0  0  0  0  0  0
    3.7040   -0.6120    0.0260 H   0  0  0  0  0  0  0  0  0  0  0  0
    3.3520    1.8550   -0.0440 H   0  0  0  0  0  0  0  0  0  0  0  0
   -3.0370   -1.6040    0.0590 H   0  0  0  0  0  0  0  0  0  0  0  0
    0.1770   -3.0080    0.1970 H   0  0  0  0  0  0  0  0  0  0  0  0
  1 16  1  0
  1 17  1  0
  1  2  1  0
  1 15  1  0
  2  3  2  0
  2 13  1  0
  3 18  1  0
  3  4  1  0
  4 10  1  0
  4  5  2  0
  5 12  1  0
  5  6  1  0
  6  8  1  0
  6  7  2  0
  8  9  2  0
  8 19  1  0
  9 20  1  0
  9 10  1  0
 10 11  2  0
 12 13  2  0
 12 14  1  0
 13 21  1  0
 14 22  1  0
M  END
>  <id>  (335) 
437

>  <scaffolds>  (335) 
['c1ccccc1', 'O=C1C=CC(=O)c2ccccc21']

>  <name>  (335) 
7-methyljuglone

>  <formula>  (335) 
C11H8O3

>  <SMILES>  (335) 
CC1=CC2=C(C(=O)C=CC2=O)C(=C1)O

>  <ChEMBL_id>  (335) 
CHEMBL430853

>  <ZINC_id>  (335) 


>  <PubChem_id>  (335) 
 26905

>  <DrugBank_id>  (335) 


>  <CAS_no>  (335) 
14787-38-3

>  <references>  (335) 
[{'journal': {'name': 'South African Journal of Botany', 'id': 1}, 'title': 'Antimycobacterial activity and possible mode of action of newly isolated neodiospyrin and other naphthoquinones from Euclea natalensis', 'year': 2006, 'start_page': 349, 'volume': 72, 'issue': 3, 'doi': '10.1016/j.sajb.2005.09.009', 'isbn': '', 'despositor': {'code': 'TMM', 'first_name': 'Thommas', 'last_name': 'Musyoka', 'id': 22}, 'refauthors_set': [{'author': {'first_name': '', 'initials': 'F', 'last_name': 'van der Kooy', 'id': 677}, 'first_author': True, 'id': 932}, {'author': {'first_name': 'Jacobus', 'initials': 'JJM', 'last_name': 'Meyer', 'id': 467}, 'first_author': False, 'id': 933}, {'author': {'first_name': 'Namrita', 'initials': 'N', 'last_name': 'Lall', 'id': 441}, 'first_author': False, 'id': 934}], 'id': 315}]

>  <classifications>  (335) 
[{'classification': 'Naphthoquinone', 'id': 798}, {'classification': 'Naphthalenes (Classyfire)', 'id': 983}]

>  <molecular_mass>  (335) 
188.18

$$$$
SANC00438_minRM1.pdb
     RDKit          3D

 42 45  0  0  0  0  0  0  0  0999 V2000
    6.7750   -0.1660    0.1120 C   0  0  0  0  0  0  0  0  0  0  0  0
   -0.4380    2.9020    1.0300 C   0  0  0  0  0  0  0  0  0  0  0  0
   -5.6670   -0.4650   -0.6150 O   0  0  0  0  0  0  0  0  0  0  0  0
   -0.6550   -2.1800   -0.1380 O   0  0  0  0  0  0  0  0  0  0  0  0
    2.5160   -1.1750    2.8920 O   0  0  0  0  0  0  0  0  0  0  0  0
    0.6450    0.3690   -1.7990 O   0  0  0  0  0  0  0  0  0  0  0  0
    3.0090    0.6760   -2.7640 O   0  0  0  0  0  0  0  0  0  0  0  0
   -5.0280    1.9100    0.0420 O   0  0  0  0  0  0  0  0  0  0  0  0
   -4.1020   -2.1990   -0.9610 C   0  0  0  0  0  0  0  0  0  0  0  0
   -2.8420   -2.6080   -0.8450 C   0  0  0  0  0  0  0  0  0  0  0  0
    4.8110    0.2650   -1.3480 C   0  0  0  0  0  0  0  0  0  0  0  0
   -2.7930    2.3540    0.4980 C   0  0  0  0  0  0  0  0  0  0  0  0
    0.7330   -0.2030    1.7180 C   0  0  0  0  0  0  0  0  0  0  0  0
    4.4350   -0.3890    0.9530 C   0  0  0  0  0  0  0  0  0  0  0  0
    5.3070   -0.0960   -0.1140 C   0  0  0  0  0  0  0  0  0  0  0  0
   -1.4880    1.9330    0.6180 C   0  0  0  0  0  0  0  0  0  0  0  0
    3.4140    0.3330   -1.5330 C   0  0  0  0  0  0  0  0  0  0  0  0
   -3.7830    1.4250    0.1130 C   0  0  0  0  0  0  0  0  0  0  0  0
    0.2480    0.1770    0.5340 C   0  0  0  0  0  0  0  0  0  0  0  0
   -1.1480    0.5850    0.3700 C   0  0  0  0  0  0  0  0  0  0  0  0
   -4.4920   -0.8330   -0.5740 C   0  0  0  0  0  0  0  0  0  0  0  0
   -1.7740   -1.7320   -0.3120 C   0  0  0  0  0  0  0  0  0  0  0  0
    2.1460   -0.6090    1.8800 C   0  0  0  0  0  0  0  0  0  0  0  0
    1.1030    0.2070   -0.6700 C   0  0  0  0  0  0  0  0  0  0  0  0
    3.0730   -0.2940    0.7710 C   0  0  0  0  0  0  0  0  0  0  0  0
    2.5420    0.0820   -0.4710 C   0  0  0  0  0  0  0  0  0  0  0  0
   -3.4480    0.0950   -0.1580 C   0  0  0  0  0  0  0  0  0  0  0  0
   -2.1150   -0.3190   -0.0260 C   0  0  0  0  0  0  0  0  0  0  0  0
    7.1510    0.7760    0.5390 H   0  0  0  0  0  0  0  0  0  0  0  0
    7.0560   -0.9720    0.8070 H   0  0  0  0  0  0  0  0  0  0  0  0
    7.3410   -0.3500   -0.8130 H   0  0  0  0  0  0  0  0  0  0  0  0
   -0.2350    2.8200    2.1100 H   0  0  0  0  0  0  0  0  0  0  0  0
    0.5190    2.7410    0.5110 H   0  0  0  0  0  0  0  0  0  0  0  0
   -0.7200    3.9490    0.8390 H   0  0  0  0  0  0  0  0  0  0  0  0
    2.0320    0.5720   -2.8510 H   0  0  0  0  0  0  0  0  0  0  0  0
   -5.6770    1.1900   -0.1590 H   0  0  0  0  0  0  0  0  0  0  0  0
   -4.8930   -2.8340   -1.3750 H   0  0  0  0  0  0  0  0  0  0  0  0
   -2.5270   -3.6080   -1.1630 H   0  0  0  0  0  0  0  0  0  0  0  0
    5.4750    0.5010   -2.1860 H   0  0  0  0  0  0  0  0  0  0  0  0
   -3.0820    3.3910    0.6980 H   0  0  0  0  0  0  0  0  0  0  0  0
    0.1110   -0.2340    2.6210 H   0  0  0  0  0  0  0  0  0  0  0  0
    4.8450   -0.7040    1.9180 H   0  0  0  0  0  0  0  0  0  0  0  0
  1 31  1  0
  1 15  1  0
  1 29  1  0
  1 30  1  0
  2 33  1  0
  2 16  1  0
  2 34  1  0
  2 32  1  0
  3 21  2  0
  4 22  2  0
  5 23  2  0
  6 24  2  0
  7 35  1  0
  7 17  1  0
  8 36  1  0
  8 18  1  0
  9 37  1  0
  9 10  2  0
  9 21  1  0
 10 38  1  0
 10 22  1  0
 11 39  1  0
 11 17  2  0
 11 15  1  0
 12 18  2  0
 12 16  1  0
 12 40  1  0
 13 19  2  0
 13 23  1  0
 13 41  1  0
 14 15  2  0
 14 25  1  0
 14 42  1  0
 16 20  2  0
 17 26  1  0
 18 27  1  0
 19 24  1  0
 19 20  1  0
 20 28  1  0
 21 27  1  0
 22 28  1  0
 23 25  1  0
 24 26  1  0
 25 26  2  0
 27 28  2  0
M  END
>  <id>  (336) 
438

>  <scaffolds>  (336) 
['c1ccccc1', 'c1ccc(CCc2ccccc2)cc1', 'O=C(C=Cc1ccccc1)c1ccccc1', 'C(=Cc1ccccc1)Cc1ccccc1', 'O=C1C=CC(=O)c2ccccc21']

>  <name>  (336) 
Neodiospyrin

>  <formula>  (336) 
C22H14O6

>  <SMILES>  (336) 
Cc4cc(O)c3c(=O)c(c1c(C)cc(O)c2c(=O)ccc(=O)c12)cc(=O)c3c4

>  <ChEMBL_id>  (336) 


>  <ZINC_id>  (336) 


>  <PubChem_id>  (336) 
 5320076

>  <DrugBank_id>  (336) 


>  <CAS_no>  (336) 
33916-25-5

>  <references>  (336) 
[{'journal': {'name': 'South African Journal of Botany', 'id': 1}, 'title': 'Antimycobacterial activity and possible mode of action of newly isolated neodiospyrin and other naphthoquinones from Euclea natalensis', 'year': 2006, 'start_page': 349, 'volume': 72, 'issue': 3, 'doi': '10.1016/j.sajb.2005.09.009', 'isbn': '', 'despositor': {'code': 'TMM', 'first_name': 'Thommas', 'last_name': 'Musyoka', 'id': 22}, 'refauthors_set': [{'author': {'first_name': '', 'initials': 'F', 'last_name': 'van der Kooy', 'id': 677}, 'first_author': True, 'id': 932}, {'author': {'first_name': 'Jacobus', 'initials': 'JJM', 'last_name': 'Meyer', 'id': 467}, 'first_author': False, 'id': 933}, {'author': {'first_name': 'Namrita', 'initials': 'N', 'last_name': 'Lall', 'id': 441}, 'first_author': False, 'id': 934}], 'id': 315}]

>  <classifications>  (336) 
[{'classification': 'Naphthoquinone', 'id': 798}, {'classification': 'Naphthalenes (Classyfire)', 'id': 983}]

>  <molecular_mass>  (336) 
374.34

$$$$
SANC00439_minRM1.pdb
     RDKit          3D

 26 27  0  0  1  0  0  0  0  0999 V2000
   -3.7610   -1.2760   -0.1340 C   0  0  0  0  0  0  0  0  0  0  0  0
   -2.4230   -0.6300   -0.0840 C   0  0  0  0  0  0  0  0  0  0  0  0
   -2.3120    0.7370    0.0790 C   0  0  0  0  0  0  0  0  0  0  0  0
   -1.0290    1.3110    0.1480 C   0  0  0  0  0  0  0  0  0  0  0  0
   -0.9980    2.6400    0.3100 O   0  0  0  0  0  0  0  0  0  0  0  0
    0.1230    0.5160    0.0500 C   0  0  0  0  0  0  0  0  0  0  0  0
    1.4340    1.1380    0.1640 C   0  0  0  0  0  0  0  0  0  0  0  0
    1.5280    2.3570    0.3130 O   0  0  0  0  0  0  0  0  0  0  0  0
    2.6510    0.2630    0.1200 C   0  0  0  0  0  0  0  0  0  0  0  0
    2.3990   -0.9380   -0.7760 C   0  0  0  0  0  0  0  0  0  0  0  0
    1.1940   -1.7400   -0.2610 C   0  0  1  0  0  0  0  0  0  0  0  0
    0.9860   -2.5850   -0.9780 H   0  0  0  0  0  0  0  0  0  0  0  0
    1.4190   -2.2230    1.0330 O   0  0  0  0  0  0  0  0  0  0  0  0
   -0.0250   -0.8620   -0.1330 C   0  0  0  0  0  0  0  0  0  0  0  0
   -1.2780   -1.4350   -0.1910 C   0  0  0  0  0  0  0  0  0  0  0  0
   -3.9790   -1.7930    0.8150 H   0  0  0  0  0  0  0  0  0  0  0  0
   -4.5840   -0.5660   -0.3060 H   0  0  0  0  0  0  0  0  0  0  0  0
   -3.8280   -2.0320   -0.9330 H   0  0  0  0  0  0  0  0  0  0  0  0
   -3.1930    1.3790    0.1610 H   0  0  0  0  0  0  0  0  0  0  0  0
   -0.0660    2.9650    0.3700 H   0  0  0  0  0  0  0  0  0  0  0  0
    3.5430    0.8330   -0.2170 H   0  0  0  0  0  0  0  0  0  0  0  0
    2.8930   -0.0520    1.1590 H   0  0  0  0  0  0  0  0  0  0  0  0
    2.2150   -0.6140   -1.8220 H   0  0  0  0  0  0  0  0  0  0  0  0
    3.3040   -1.5780   -0.8340 H   0  0  0  0  0  0  0  0  0  0  0  0
    2.1710   -2.8230    0.9910 H   0  0  0  0  0  0  0  0  0  0  0  0
   -1.3910   -2.5160   -0.3100 H   0  0  0  0  0  0  0  0  0  0  0  0
  1 18  1  0
  1 17  1  0
  1  2  1  0
  1 16  1  0
  2 15  2  0
  2  3  1  0
  3  4  2  0
  3 19  1  0
  4  6  1  0
  4  5  1  0
  5 20  1  0
  6 14  2  0
  6  7  1  0
  7  9  1  0
  7  8  2  0
  9 10  1  0
  9 21  1  0
  9 22  1  0
 10 23  1  0
 10 24  1  0
 10 11  1  0
 11 12  1  6
 11 14  1  0
 11 13  1  0
 13 25  1  0
 14 15  1  0
 15 26  1  0
M  END
>  <id>  (337) 
439

>  <scaffolds>  (337) 
['c1ccccc1', 'c1ccc2c(c1)CCCC2', 'O=C1CCCc2ccccc21']

>  <name>  (337) 
Shinanolone

>  <formula>  (337) 
C11H12O3

>  <SMILES>  (337) 
Cc2cc(O)c1C(=O)CC[C@@H](O)c1c2

>  <ChEMBL_id>  (337) 


>  <ZINC_id>  (337) 


>  <PubChem_id>  (337) 


>  <DrugBank_id>  (337) 


>  <CAS_no>  (337) 
34987-22-9

>  <references>  (337) 
[{'journal': {'name': 'South African Journal of Botany', 'id': 1}, 'title': 'Antimycobacterial activity and possible mode of action of newly isolated neodiospyrin and other naphthoquinones from Euclea natalensis', 'year': 2006, 'start_page': 349, 'volume': 72, 'issue': 3, 'doi': '10.1016/j.sajb.2005.09.009', 'isbn': '', 'despositor': {'code': 'TMM', 'first_name': 'Thommas', 'last_name': 'Musyoka', 'id': 22}, 'refauthors_set': [{'author': {'first_name': '', 'initials': 'F', 'last_name': 'van der Kooy', 'id': 677}, 'first_author': True, 'id': 932}, {'author': {'first_name': 'Jacobus', 'initials': 'JJM', 'last_name': 'Meyer', 'id': 467}, 'first_author': False, 'id': 933}, {'author': {'first_name': 'Namrita', 'initials': 'N', 'last_name': 'Lall', 'id': 441}, 'first_author': False, 'id': 934}], 'id': 315}, {'journal': {'name': 'Journal of Natural Products', 'id': 5}, 'title': 'Antibacterial Activity of Naphthoquinones and Triterpenoids from Euclea natalensis Root Bark', 'year': 2004, 'start_page': 1936, 'volume': 67, 'issue': 11, 'doi': '10.1021/np030465d', 'isbn': '', 'despositor': {'code': 'NFA', 'first_name': 'Ngonidzashe', 'last_name': 'Faya', 'id': 21}, 'refauthors_set': [{'author': {'first_name': 'Oliver', 'initials': 'O', 'last_name': 'Weigenand', 'id': 715}, 'first_author': True, 'id': 1044}, {'author': {'first_name': 'Ahmed', 'initials': 'AA', 'last_name': 'Hussein', 'id': 440}, 'first_author': None, 'id': 1123}, {'author': {'first_name': 'Namrita', 'initials': 'N', 'last_name': 'Lall', 'id': 441}, 'first_author': None, 'id': 1124}, {'author': {'first_name': 'Jacobus', 'initials': 'JM', 'last_name': 'Meyer', 'id': 716}, 'first_author': None, 'id': 1125}], 'id': 346}]

>  <classifications>  (337) 
[{'classification': 'Naphthoquinone', 'id': 798}, {'classification': 'Tetralins (Classyfire)', 'id': 984}]

>  <molecular_mass>  (337) 
192.21

$$$$
SANC00440_minRM1.pdb
     RDKit          3D

 52 53  0  0  1  0  0  0  0  0999 V2000
    4.4940    1.9030    0.0520 C   0  0  0  0  0  0  0  0  0  0  0  0
    4.4060    0.4970   -0.4160 C   0  0  0  0  0  0  0  0  0  0  0  0
    3.3560   -0.2930   -0.1540 C   0  0  0  0  0  0  0  0  0  0  0  0
    2.1750    0.1390    0.6450 C   0  0  0  0  0  0  0  0  0  0  0  0
    0.8880   -0.4810    0.0870 C   0  0  1  0  0  0  0  0  0  0  0  0
    0.9390   -0.3990   -1.0330 H   0  0  0  0  0  0  0  0  0  0  0  0
    0.7450   -1.9360    0.4170 C   0  0  0  0  0  0  0  0  0  0  0  0
    1.5980   -2.6510    1.1460 C   0  0  0  0  0  0  0  0  0  0  0  0
   -0.4800   -2.5730   -0.1600 C   0  0  0  0  0  0  0  0  0  0  0  0
   -1.7240   -1.8080    0.2870 C   0  0  0  0  0  0  0  0  0  0  0  0
   -1.5890   -0.3450   -0.1280 C   0  0  2  0  0  0  0  0  0  0  0  0
   -1.3490   -0.3180   -1.2290 H   0  0  0  0  0  0  0  0  0  0  0  0
   -0.3720    0.2810    0.5870 C   0  0  2  0  0  0  0  0  0  0  0  0
   -0.2780    1.7540    0.1710 C   0  0  0  0  0  0  0  0  0  0  0  0
   -1.5610    2.4970    0.5050 C   0  0  0  0  0  0  0  0  0  0  0  0
   -2.7150    1.9110   -0.2910 C   0  0  0  0  0  0  0  0  0  0  0  0
   -2.9210    0.4200    0.0150 C   0  0  2  0  0  0  0  0  0  0  0  0
   -3.6180    0.2200    1.3570 C   0  0  0  0  0  0  0  0  0  0  0  0
   -3.8790   -0.0890   -1.0580 C   0  0  0  0  0  0  0  0  0  0  0  0
   -3.6780   -0.8950   -1.9530 O   0  0  0  0  0  0  0  0  0  0  0  0
   -5.1020    0.4830   -0.9870 O   0  0  0  0  0  0  0  0  0  0  0  0
   -0.4060    0.1810    2.1080 C   0  0  0  0  0  0  0  0  0  0  0  0
    5.5270   -0.0170   -1.1980 C   0  0  0  0  0  0  0  0  0  0  0  0
    6.7440    0.5190   -1.2020 C   0  0  0  0  0  0  0  0  0  0  0  0
    5.1990    2.0050    0.8930 H   0  0  0  0  0  0  0  0  0  0  0  0
    4.8340    2.5820   -0.7450 H   0  0  0  0  0  0  0  0  0  0  0  0
    3.5240    2.3000    0.4010 H   0  0  0  0  0  0  0  0  0  0  0  0
    3.3270   -1.3230   -0.5250 H   0  0  0  0  0  0  0  0  0  0  0  0
    2.3350   -0.1270    1.7140 H   0  0  0  0  0  0  0  0  0  0  0  0
    2.0970    1.2540    0.6640 H   0  0  0  0  0  0  0  0  0  0  0  0
    2.5020   -2.2760    1.6110 H   0  0  0  0  0  0  0  0  0  0  0  0
    1.4640   -3.7100    1.3510 H   0  0  0  0  0  0  0  0  0  0  0  0
   -0.4040   -2.5990   -1.2690 H   0  0  0  0  0  0  0  0  0  0  0  0
   -0.5710   -3.6420    0.1260 H   0  0  0  0  0  0  0  0  0  0  0  0
   -2.6270   -2.2780   -0.1550 H   0  0  0  0  0  0  0  0  0  0  0  0
   -1.8700   -1.9190    1.3810 H   0  0  0  0  0  0  0  0  0  0  0  0
    0.5970    2.2440    0.6550 H   0  0  0  0  0  0  0  0  0  0  0  0
   -0.0590    1.8420   -0.9160 H   0  0  0  0  0  0  0  0  0  0  0  0
   -1.7720    2.4890    1.5940 H   0  0  0  0  0  0  0  0  0  0  0  0
   -1.4500    3.5780    0.2670 H   0  0  0  0  0  0  0  0  0  0  0  0
   -3.6480    2.4830   -0.0970 H   0  0  0  0  0  0  0  0  0  0  0  0
   -2.5290    2.0550   -1.3780 H   0  0  0  0  0  0  0  0  0  0  0  0
   -4.5050    0.8620    1.4700 H   0  0  0  0  0  0  0  0  0  0  0  0
   -3.9670   -0.8120    1.5030 H   0  0  0  0  0  0  0  0  0  0  0  0
   -2.9640    0.4580    2.2110 H   0  0  0  0  0  0  0  0  0  0  0  0
   -5.6880    0.1510   -1.6820 H   0  0  0  0  0  0  0  0  0  0  0  0
   -0.1530   -0.8230    2.4820 H   0  0  0  0  0  0  0  0  0  0  0  0
    0.3090    0.8660    2.5880 H   0  0  0  0  0  0  0  0  0  0  0  0
   -1.3860    0.4250    2.5460 H   0  0  0  0  0  0  0  0  0  0  0  0
    5.3200   -0.9070   -1.8080 H   0  0  0  0  0  0  0  0  0  0  0  0
    7.0490    1.3890   -0.6310 H   0  0  0  0  0  0  0  0  0  0  0  0
    7.5600    0.1150   -1.7910 H   0  0  0  0  0  0  0  0  0  0  0  0
  1 26  1  0
  1  2  1  0
  1 27  1  0
  1 25  1  0
  2 23  1  0
  2  3  2  0
  3 28  1  0
  3  4  1  0
  4  5  1  0
  4 30  1  0
  4 29  1  0
  5  6  1  6
  5  7  1  0
  5 13  1  0
  7  9  1  0
  7  8  2  0
  8 32  1  0
  8 31  1  0
  9 33  1  0
  9 34  1  0
  9 10  1  0
 10 35  1  0
 10 11  1  0
 10 36  1  0
 11 12  1  6
 11 17  1  0
 11 13  1  0
 13 14  1  0
 13 22  1  1
 14 38  1  0
 14 15  1  0
 14 37  1  0
 15 16  1  0
 15 40  1  0
 15 39  1  0
 16 42  1  0
 16 41  1  0
 16 17  1  0
 17 19  1  6
 17 18  1  0
 18 43  1  0
 18 44  1  0
 18 45  1  0
 19 20  2  0
 19 21  1  0
 21 46  1  0
 22 47  1  0
 22 49  1  0
 22 48  1  0
 23 50  1  0
 23 24  2  0
 24 52  1  0
 24 51  1  0
M  END
>  <id>  (338) 
440

>  <scaffolds>  (338) 
['C=C1CCC2CCCCC2C1', 'C1CCCCC1', 'C1CCC2CCCCC2C1']

>  <name>  (338) 
(+)-trans-ozic acid

>  <formula>  (338) 
C20H30O2

>  <SMILES>  (338) 
C/C(=C\C[C@H]1C(=C)CC[C@@H]2[C@@]1(CCC[C@@]2(C)C(=O)O)C)/C=C

>  <ChEMBL_id>  (338) 


>  <ZINC_id>  (338) 


>  <PubChem_id>  (338) 


>  <DrugBank_id>  (338) 


>  <CAS_no>  (338) 
83945-57-7

>  <references>  (338) 
[{'journal': {'name': 'Journal of Natural Products', 'id': 5}, 'title': 'Bioactive Diterpenes from Orthosiphon labiatus and Salvia africana-lutea', 'year': 2007, 'start_page': 293, 'volume': 70, 'issue': 2, 'doi': '10.1021/np0680376', 'isbn': '', 'despositor': {'code': 'TMM', 'first_name': 'Thommas', 'last_name': 'Musyoka', 'id': 22}, 'refauthors_set': [{'author': {'first_name': 'Ahmed', 'initials': 'AA', 'last_name': 'Hussein', 'id': 440}, 'first_author': True, 'id': 935}, {'author': {'first_name': 'Jacobus', 'initials': 'JJM', 'last_name': 'Meyer', 'id': 467}, 'first_author': False, 'id': 936}, {'author': {'first_name': 'María', 'initials': 'L', 'last_name': 'Jimeno', 'id': 678}, 'first_author': False, 'id': 937}, {'author': {'first_name': 'Benjamin', 'initials': 'B', 'last_name': 'Rodriguez', 'id': 472}, 'first_author': False, 'id': 938}], 'id': 316}]

>  <classifications>  (338) 
[{'classification': 'Diterpene', 'id': 771}, {'classification': 'Terpenoid', 'id': 839}, {'classification': 'Phenol lipids (Classyfire)', 'id': 951}]

>  <molecular_mass>  (338) 
302.45

$$$$
SANC00441_minRM1.pdb
     RDKit          3D

 54 55  0  0  1  0  0  0  0  0999 V2000
    4.2640    1.9520    0.1840 C   0  0  0  0  0  0  0  0  0  0  0  0
    4.2980    0.5590   -0.3320 C   0  0  0  0  0  0  0  0  0  0  0  0
    3.3050   -0.3180   -0.1320 C   0  0  0  0  0  0  0  0  0  0  0  0
    2.0690   -0.0070    0.6390 C   0  0  0  0  0  0  0  0  0  0  0  0
    0.8480   -0.6670   -0.0110 C   0  0  1  0  0  0  0  0  0  0  0  0
    0.9370   -0.5060   -1.1200 H   0  0  0  0  0  0  0  0  0  0  0  0
    0.7870   -2.1480    0.2170 C   0  0  0  0  0  0  0  0  0  0  0  0
    1.6440   -2.8550    0.9460 C   0  0  0  0  0  0  0  0  0  0  0  0
   -0.3620   -2.8190   -0.4680 C   0  0  0  0  0  0  0  0  0  0  0  0
   -1.6720   -2.1710   -0.0300 C   0  0  0  0  0  0  0  0  0  0  0  0
   -1.6250   -0.6730   -0.3210 C   0  0  2  0  0  0  0  0  0  0  0  0
   -1.3430   -0.5450   -1.4050 H   0  0  0  0  0  0  0  0  0  0  0  0
   -0.4810   -0.0240    0.4850 C   0  0  2  0  0  0  0  0  0  0  0  0
   -0.4640    1.4740    0.1650 C   0  0  0  0  0  0  0  0  0  0  0  0
   -1.8190    2.1100    0.4870 C   0  0  2  0  0  0  0  0  0  0  0  0
   -2.0750    1.9930    1.5740 H   0  0  0  0  0  0  0  0  0  0  0  0
   -2.9030    1.4920   -0.4030 C   0  0  0  0  0  0  0  0  0  0  0  0
   -3.0180   -0.0190   -0.1900 C   0  0  2  0  0  0  0  0  0  0  0  0
   -3.7290   -0.3230    1.1230 C   0  0  0  0  0  0  0  0  0  0  0  0
   -3.8930   -0.6020   -1.3400 C   0  0  0  0  0  0  0  0  0  0  0  0
   -5.1460    0.0170   -1.2580 O   0  0  0  0  0  0  0  0  0  0  0  0
   -1.6600    3.4710    0.1830 O   0  0  0  0  0  0  0  0  0  0  0  0
   -0.5640   -0.2350    1.9920 C   0  0  0  0  0  0  0  0  0  0  0  0
    5.4800    0.1600   -1.0920 C   0  0  0  0  0  0  0  0  0  0  0  0
    6.6560    0.7770   -1.0110 C   0  0  0  0  0  0  0  0  0  0  0  0
    4.9110    2.0690    1.0670 H   0  0  0  0  0  0  0  0  0  0  0  0
    4.6000    2.6810   -0.5690 H   0  0  0  0  0  0  0  0  0  0  0  0
    3.2540    2.2720    0.4950 H   0  0  0  0  0  0  0  0  0  0  0  0
    3.3700   -1.3350   -0.5370 H   0  0  0  0  0  0  0  0  0  0  0  0
    2.2020   -0.3250    1.6960 H   0  0  0  0  0  0  0  0  0  0  0  0
    1.9190    1.0980    0.7160 H   0  0  0  0  0  0  0  0  0  0  0  0
    2.4960   -2.4560    1.4850 H   0  0  0  0  0  0  0  0  0  0  0  0
    1.5680   -3.9320    1.0760 H   0  0  0  0  0  0  0  0  0  0  0  0
   -0.2290   -2.7550   -1.5700 H   0  0  0  0  0  0  0  0  0  0  0  0
   -0.3920   -3.9110   -0.2660 H   0  0  0  0  0  0  0  0  0  0  0  0
   -2.5280   -2.6490   -0.5590 H   0  0  0  0  0  0  0  0  0  0  0  0
   -1.8640   -2.3800    1.0420 H   0  0  0  0  0  0  0  0  0  0  0  0
    0.3500    1.9930    0.7210 H   0  0  0  0  0  0  0  0  0  0  0  0
   -0.2060    1.6510   -0.9020 H   0  0  0  0  0  0  0  0  0  0  0  0
   -3.8820    1.9860   -0.2230 H   0  0  0  0  0  0  0  0  0  0  0  0
   -2.6800    1.7210   -1.4680 H   0  0  0  0  0  0  0  0  0  0  0  0
   -4.6860    0.2160    1.2130 H   0  0  0  0  0  0  0  0  0  0  0  0
   -3.9760   -1.3890    1.2380 H   0  0  0  0  0  0  0  0  0  0  0  0
   -3.1430   -0.0410    2.0090 H   0  0  0  0  0  0  0  0  0  0  0  0
   -3.4270   -0.4260   -2.3380 H   0  0  0  0  0  0  0  0  0  0  0  0
   -3.9700   -1.7140   -1.2420 H   0  0  0  0  0  0  0  0  0  0  0  0
   -5.6970   -0.3750   -1.9420 H   0  0  0  0  0  0  0  0  0  0  0  0
   -2.4940    3.9110    0.3660 H   0  0  0  0  0  0  0  0  0  0  0  0
   -0.2530   -1.2430    2.3070 H   0  0  0  0  0  0  0  0  0  0  0  0
    0.0820    0.4630    2.5470 H   0  0  0  0  0  0  0  0  0  0  0  0
   -1.5730   -0.0950    2.4050 H   0  0  0  0  0  0  0  0  0  0  0  0
    5.3550   -0.7050   -1.7590 H   0  0  0  0  0  0  0  0  0  0  0  0
    6.8760    1.6300   -0.3760 H   0  0  0  0  0  0  0  0  0  0  0  0
    7.5230    0.4630   -1.5860 H   0  0  0  0  0  0  0  0  0  0  0  0
  1 27  1  0
  1  2  1  0
  1 28  1  0
  1 26  1  0
  2 24  1  0
  2  3  2  0
  3 29  1  0
  3  4  1  0
  4  5  1  0
  4 31  1  0
  4 30  1  0
  5  6  1  6
  5  7  1  0
  5 13  1  0
  7  9  1  0
  7  8  2  0
  8 33  1  0
  8 32  1  0
  9 34  1  0
  9 35  1  0
  9 10  1  0
 10 36  1  0
 10 11  1  0
 10 37  1  0
 11 12  1  6
 11 18  1  0
 11 13  1  0
 13 14  1  0
 13 23  1  1
 14 39  1  0
 14 15  1  0
 14 38  1  0
 15 17  1  0
 15 22  1  0
 15 16  1  1
 17 41  1  0
 17 40  1  0
 17 18  1  0
 18 20  1  6
 18 19  1  0
 19 42  1  0
 19 43  1  0
 19 44  1  0
 20 45  1  0
 20 21  1  0
 20 46  1  0
 21 47  1  0
 22 48  1  0
 23 49  1  0
 23 51  1  0
 23 50  1  0
 24 52  1  0
 24 25  2  0
 25 54  1  0
 25 53  1  0
M  END
>  <id>  (339) 
441

>  <scaffolds>  (339) 
['C=C1CCC2CCCCC2C1', 'C1CCCCC1', 'C1CCC2CCCCC2C1']

>  <name>  (339) 
1-Naphthalenemethanol, decahydro-3-hydroxy-1,4a-dimethyl-6-methylene-5-[(2E)-3-methyl-2,4-pentadien-1-yl]-, (1R,3R,4aR,5S,8aR)

>  <formula>  (339) 
C20H32O2

>  <SMILES>  (339) 
C/C(=C\C[C@H]1C(=C)CC[C@@H]2[C@@]1(C[C@H](C[C@@]2(C)CO)O)C)/C=C

>  <ChEMBL_id>  (339) 
CHEMBL220528

>  <ZINC_id>  (339) 


>  <PubChem_id>  (339) 
 16109841

>  <DrugBank_id>  (339) 


>  <CAS_no>  (339) 
926896-22-2

>  <references>  (339) 
[{'journal': {'name': 'Journal of Natural Products', 'id': 5}, 'title': 'Bioactive Diterpenes from Orthosiphon labiatus and Salvia africana-lutea', 'year': 2007, 'start_page': 293, 'volume': 70, 'issue': 2, 'doi': '10.1021/np0680376', 'isbn': '', 'despositor': {'code': 'TMM', 'first_name': 'Thommas', 'last_name': 'Musyoka', 'id': 22}, 'refauthors_set': [{'author': {'first_name': 'Ahmed', 'initials': 'AA', 'last_name': 'Hussein', 'id': 440}, 'first_author': True, 'id': 935}, {'author': {'first_name': 'Jacobus', 'initials': 'JJM', 'last_name': 'Meyer', 'id': 467}, 'first_author': False, 'id': 936}, {'author': {'first_name': 'María', 'initials': 'L', 'last_name': 'Jimeno', 'id': 678}, 'first_author': False, 'id': 937}, {'author': {'first_name': 'Benjamin', 'initials': 'B', 'last_name': 'Rodriguez', 'id': 472}, 'first_author': False, 'id': 938}], 'id': 316}]

>  <classifications>  (339) 
[{'classification': 'Diterpene', 'id': 771}, {'classification': 'Terpenoid', 'id': 839}, {'classification': 'Phenol lipids (Classyfire)', 'id': 951}]

>  <molecular_mass>  (339) 
304.47

$$$$
SANC00442_minRM1.pdb
     RDKit          3D

 53 54  0  0  1  0  0  0  0  0999 V2000
    4.4940    1.8700    0.0060 C   0  0  0  0  0  0  0  0  0  0  0  0
    4.4630    0.4450   -0.4140 C   0  0  0  0  0  0  0  0  0  0  0  0
    3.4440   -0.3770   -0.1270 C   0  0  0  0  0  0  0  0  0  0  0  0
    2.2450    0.0350    0.6550 C   0  0  0  0  0  0  0  0  0  0  0  0
    0.9840   -0.6400    0.1010 C   0  0  1  0  0  0  0  0  0  0  0  0
    1.0420   -0.5770   -1.0210 H   0  0  0  0  0  0  0  0  0  0  0  0
    0.8850   -2.0930    0.4610 C   0  0  0  0  0  0  0  0  0  0  0  0
    1.7510   -2.7670    1.2120 C   0  0  0  0  0  0  0  0  0  0  0  0
   -0.3120   -2.7820   -0.1130 C   0  0  0  0  0  0  0  0  0  0  0  0
   -1.5850   -2.0530    0.3140 C   0  0  0  0  0  0  0  0  0  0  0  0
   -1.4970   -0.5950   -0.1290 C   0  0  2  0  0  0  0  0  0  0  0  0
   -1.2530   -0.5810   -1.2290 H   0  0  0  0  0  0  0  0  0  0  0  0
   -0.3070    0.0860    0.5790 C   0  0  2  0  0  0  0  0  0  0  0  0
   -0.2550    1.5500    0.1290 C   0  0  0  0  0  0  0  0  0  0  0  0
   -1.5710    2.2580    0.4600 C   0  0  2  0  0  0  0  0  0  0  0  0
   -1.7900    2.2230    1.5600 H   0  0  0  0  0  0  0  0  0  0  0  0
   -2.7080    1.6140   -0.3410 C   0  0  0  0  0  0  0  0  0  0  0  0
   -2.8560    0.1250   -0.0070 C   0  0  2  0  0  0  0  0  0  0  0  0
   -3.5540   -0.0800    1.3340 C   0  0  0  0  0  0  0  0  0  0  0  0
   -3.7940   -0.4350   -1.0750 C   0  0  0  0  0  0  0  0  0  0  0  0
   -3.5620   -1.2470   -1.9560 O   0  0  0  0  0  0  0  0  0  0  0  0
   -5.0370    0.0930   -1.0100 O   0  0  0  0  0  0  0  0  0  0  0  0
   -1.3860    3.5840    0.0460 O   0  0  0  0  0  0  0  0  0  0  0  0
   -0.3400    0.0120    2.1020 C   0  0  0  0  0  0  0  0  0  0  0  0
    5.6080   -0.0510   -1.1750 C   0  0  0  0  0  0  0  0  0  0  0  0
    6.7780    0.5770   -1.2560 C   0  0  0  0  0  0  0  0  0  0  0  0
    5.2270    2.0350    0.8100 H   0  0  0  0  0  0  0  0  0  0  0  0
    4.7630    2.5390   -0.8260 H   0  0  0  0  0  0  0  0  0  0  0  0
    3.5240    2.2300    0.3910 H   0  0  0  0  0  0  0  0  0  0  0  0
    3.4570   -1.4220   -0.4590 H   0  0  0  0  0  0  0  0  0  0  0  0
    2.4060   -0.1980    1.7300 H   0  0  0  0  0  0  0  0  0  0  0  0
    2.1290    1.1470    0.6450 H   0  0  0  0  0  0  0  0  0  0  0  0
    2.6400   -2.3590    1.6790 H   0  0  0  0  0  0  0  0  0  0  0  0
    1.6420   -3.8240    1.4390 H   0  0  0  0  0  0  0  0  0  0  0  0
   -0.2280   -2.8250   -1.2210 H   0  0  0  0  0  0  0  0  0  0  0  0
   -0.3670   -3.8490    0.1910 H   0  0  0  0  0  0  0  0  0  0  0  0
   -2.4680   -2.5640   -0.1240 H   0  0  0  0  0  0  0  0  0  0  0  0
   -1.7330   -2.1490    1.4090 H   0  0  0  0  0  0  0  0  0  0  0  0
    0.6030    2.0830    0.5980 H   0  0  0  0  0  0  0  0  0  0  0  0
   -0.0440    1.6260   -0.9600 H   0  0  0  0  0  0  0  0  0  0  0  0
   -3.6640    2.1520   -0.1640 H   0  0  0  0  0  0  0  0  0  0  0  0
   -2.5180    1.7500   -1.4290 H   0  0  0  0  0  0  0  0  0  0  0  0
   -4.4530    0.5470    1.4410 H   0  0  0  0  0  0  0  0  0  0  0  0
   -3.8880   -1.1170    1.4800 H   0  0  0  0  0  0  0  0  0  0  0  0
   -2.9090    0.1670    2.1910 H   0  0  0  0  0  0  0  0  0  0  0  0
   -5.6100   -0.2690   -1.7000 H   0  0  0  0  0  0  0  0  0  0  0  0
   -2.1740    4.0790    0.2880 H   0  0  0  0  0  0  0  0  0  0  0  0
   -0.0280   -0.9670    2.4950 H   0  0  0  0  0  0  0  0  0  0  0  0
    0.3320    0.7480    2.5690 H   0  0  0  0  0  0  0  0  0  0  0  0
   -1.3330    0.2010    2.5360 H   0  0  0  0  0  0  0  0  0  0  0  0
    5.4610   -1.0050   -1.7000 H   0  0  0  0  0  0  0  0  0  0  0  0
    7.6140    0.1860   -1.8290 H   0  0  0  0  0  0  0  0  0  0  0  0
    7.0240    1.5190   -0.7710 H   0  0  0  0  0  0  0  0  0  0  0  0
  1 28  1  0
  1  2  1  0
  1 29  1  0
  1 27  1  0
  2 25  1  0
  2  3  2  0
  3 30  1  0
  3  4  1  0
  4  5  1  0
  4 32  1  0
  4 31  1  0
  5  6  1  6
  5  7  1  0
  5 13  1  0
  7  9  1  0
  7  8  2  0
  8 34  1  0
  8 33  1  0
  9 35  1  0
  9 36  1  0
  9 10  1  0
 10 11  1  0
 10 37  1  0
 10 38  1  0
 11 12  1  6
 11 18  1  0
 11 13  1  0
 13 14  1  0
 13 24  1  1
 14 40  1  0
 14 15  1  0
 14 39  1  0
 15 17  1  0
 15 23  1  0
 15 16  1  1
 17 42  1  0
 17 41  1  0
 17 18  1  0
 18 20  1  6
 18 19  1  0
 19 43  1  0
 19 44  1  0
 19 45  1  0
 20 21  2  0
 20 22  1  0
 22 46  1  0
 23 47  1  0
 24 48  1  0
 24 50  1  0
 24 49  1  0
 25 51  1  0
 25 26  2  0
 26 52  1  0
 26 53  1  0
M  END
>  <id>  (340) 
442

>  <scaffolds>  (340) 
['C=C1CCC2CCCCC2C1', 'C1CCCCC1', 'C1CCC2CCCCC2C1']

>  <name>  (340) 
1-Naphthalenecarboxylic acid, decahydro-3-hydroxy-1,4a-dimethyl-6-methylene-5-[(2E)-3-methyl-2,4-pentadien-1-yl]-, (1R,3R,4aR,5S,8aR)

>  <formula>  (340) 
C20H30O3

>  <SMILES>  (340) 
C/C(=C\C[C@H]1C(=C)CC[C@@H]2[C@@]1(C[C@H](C[C@@]2(C)C(=O)O)O)C)/C=C

>  <ChEMBL_id>  (340) 
CHEMBL434755

>  <ZINC_id>  (340) 


>  <PubChem_id>  (340) 
 16109843

>  <DrugBank_id>  (340) 


>  <CAS_no>  (340) 
926896-23-3

>  <references>  (340) 
[{'journal': {'name': 'Journal of Natural Products', 'id': 5}, 'title': 'Bioactive Diterpenes from Orthosiphon labiatus and Salvia africana-lutea', 'year': 2007, 'start_page': 293, 'volume': 70, 'issue': 2, 'doi': '10.1021/np0680376', 'isbn': '', 'despositor': {'code': 'TMM', 'first_name': 'Thommas', 'last_name': 'Musyoka', 'id': 22}, 'refauthors_set': [{'author': {'first_name': 'Ahmed', 'initials': 'AA', 'last_name': 'Hussein', 'id': 440}, 'first_author': True, 'id': 935}, {'author': {'first_name': 'Jacobus', 'initials': 'JJM', 'last_name': 'Meyer', 'id': 467}, 'first_author': False, 'id': 936}, {'author': {'first_name': 'María', 'initials': 'L', 'last_name': 'Jimeno', 'id': 678}, 'first_author': False, 'id': 937}, {'author': {'first_name': 'Benjamin', 'initials': 'B', 'last_name': 'Rodriguez', 'id': 472}, 'first_author': False, 'id': 938}], 'id': 316}]

>  <classifications>  (340) 
[{'classification': 'Diterpene', 'id': 771}, {'classification': 'Terpenoid', 'id': 839}, {'classification': 'Phenol lipids (Classyfire)', 'id': 951}]

>  <molecular_mass>  (340) 
318.45

$$$$
SANC00443_minRM1.pdb
     RDKit          3D

 50 53  0  0  1  0  0  0  0  0999 V2000
   -5.0970   -1.0420   -0.9770 C   0  0  0  0  0  0  0  0  0  0  0  0
   -4.5730   -0.4580    0.3320 C   0  0  1  0  0  0  0  0  0  0  0  0
   -4.7720   -1.4440    1.4800 C   0  0  0  0  0  0  0  0  0  0  0  0
   -3.1160   -0.1300    0.1900 C   0  0  0  0  0  0  0  0  0  0  0  0
   -2.6310    1.1760    0.3000 C   0  0  0  0  0  0  0  0  0  0  0  0
   -1.2520    1.4590    0.1670 C   0  0  0  0  0  0  0  0  0  0  0  0
   -0.3550    0.4370   -0.0890 C   0  0  0  0  0  0  0  0  0  0  0  0
   -0.8630   -0.8650   -0.2020 C   0  0  0  0  0  0  0  0  0  0  0  0
   -2.2040   -1.1540   -0.0680 C   0  0  0  0  0  0  0  0  0  0  0  0
    0.1990   -1.8830   -0.4950 C   0  0  2  0  0  0  0  0  0  0  0  0
   -0.1860   -2.9050   -0.7210 H   0  0  0  0  0  0  0  0  0  0  0  0
    1.2010   -1.8490    0.6710 C   0  0  0  0  0  0  0  0  0  0  0  0
    1.7430   -0.4180    0.8420 C   0  0  2  0  0  0  0  0  0  0  0  0
    1.3600    0.0020    1.8090 H   0  0  0  0  0  0  0  0  0  0  0  0
    1.1430    0.4820   -0.2700 C   0  0  2  0  0  0  0  0  0  0  0  0
    1.7510    1.8720   -0.2630 C   0  0  0  0  0  0  0  0  0  0  0  0
    3.2700    1.8160   -0.3060 C   0  0  0  0  0  0  0  0  0  0  0  0
    3.7910    1.0480    0.8980 C   0  0  0  0  0  0  0  0  0  0  0  0
    3.2820   -0.3980    0.9140 C   0  0  1  0  0  0  0  0  0  0  0  0
    3.7020   -1.0350    2.2470 C   0  0  0  0  0  0  0  0  0  0  0  0
    3.9470   -1.1890   -0.2090 C   0  0  0  0  0  0  0  0  0  0  0  0
    1.3560   -0.2140   -1.6070 C   0  0  0  0  0  0  0  0  0  0  0  0
    1.8570    0.2220   -2.6210 O   0  0  0  0  0  0  0  0  0  0  0  0
    0.8770   -1.4940   -1.6760 O   0  0  0  0  0  0  0  0  0  0  0  0
   -0.9390    2.7830    0.2250 O   0  0  0  0  0  0  0  0  0  0  0  0
   -3.5400    2.1490    0.5420 O   0  0  0  0  0  0  0  0  0  0  0  0
   -4.6290   -1.9990   -1.2450 H   0  0  0  0  0  0  0  0  0  0  0  0
   -6.1800   -1.2290   -0.9300 H   0  0  0  0  0  0  0  0  0  0  0  0
   -4.9290   -0.3600   -1.8230 H   0  0  0  0  0  0  0  0  0  0  0  0
   -5.1720    0.4600    0.5640 H   0  0  0  0  0  0  0  0  0  0  0  0
   -4.3200   -2.4280    1.2930 H   0  0  0  0  0  0  0  0  0  0  0  0
   -4.3400   -1.0690    2.4190 H   0  0  0  0  0  0  0  0  0  0  0  0
   -5.8390   -1.6270    1.6730 H   0  0  0  0  0  0  0  0  0  0  0  0
   -2.5420   -2.1890   -0.1730 H   0  0  0  0  0  0  0  0  0  0  0  0
    0.7130   -2.2060    1.6000 H   0  0  0  0  0  0  0  0  0  0  0  0
    2.0070   -2.5910    0.4780 H   0  0  0  0  0  0  0  0  0  0  0  0
    1.3570    2.4670   -1.1150 H   0  0  0  0  0  0  0  0  0  0  0  0
    1.4410    2.4180    0.6580 H   0  0  0  0  0  0  0  0  0  0  0  0
    3.6380    1.3890   -1.2610 H   0  0  0  0  0  0  0  0  0  0  0  0
    3.6830    2.8490   -0.3090 H   0  0  0  0  0  0  0  0  0  0  0  0
    4.9020    1.0630    0.9100 H   0  0  0  0  0  0  0  0  0  0  0  0
    3.5030    1.5710    1.8350 H   0  0  0  0  0  0  0  0  0  0  0  0
    3.2750   -0.5220    3.1210 H   0  0  0  0  0  0  0  0  0  0  0  0
    3.4010   -2.0890    2.3290 H   0  0  0  0  0  0  0  0  0  0  0  0
    4.7930   -1.0160    2.3850 H   0  0  0  0  0  0  0  0  0  0  0  0
    5.0400   -1.2330   -0.0860 H   0  0  0  0  0  0  0  0  0  0  0  0
    3.5980   -2.2350   -0.2440 H   0  0  0  0  0  0  0  0  0  0  0  0
    3.7770   -0.7720   -1.2100 H   0  0  0  0  0  0  0  0  0  0  0  0
   -0.2130    2.8730    0.8600 H   0  0  0  0  0  0  0  0  0  0  0  0
   -3.1090    3.0130    0.5410 H   0  0  0  0  0  0  0  0  0  0  0  0
  1 29  1  0
  1 27  1  0
  1 28  1  0
  1  2  1  0
  2  4  1  0
  2 30  1  1
  2  3  1  0
  3 31  1  0
  3 33  1  0
  3 32  1  0
  4  9  2  0
  4  5  1  0
  5  6  2  0
  5 26  1  0
  6  7  1  0
  6 25  1  0
  7  8  2  0
  8 10  1  0
  8  9  1  0
  9 34  1  0
 10 24  1  0
 10 11  1  6
 10 12  1  0
 12 36  1  0
 12 13  1  0
 12 35  1  0
 13 15  1  0
 13 19  1  0
 13 14  1  1
 15  7  1  0
 15 22  1  6
 15 16  1  0
 16 37  1  0
 16 17  1  0
 16 38  1  0
 17 39  1  0
 17 40  1  0
 17 18  1  0
 18 41  1  0
 18 19  1  0
 18 42  1  0
 19 21  1  6
 19 20  1  0
 20 44  1  0
 20 45  1  0
 20 43  1  0
 21 48  1  0
 21 47  1  0
 21 46  1  0
 22 23  2  0
 22 24  1  0
 25 49  1  0
 26 50  1  0
M  END
>  <id>  (341) 
443

>  <scaffolds>  (341) 
['c1ccccc1', 'C1CCOCC1', 'C1CCCCC1', 'c1ccc2c(c1)CCC1CCCCC21', 'O=C1OC2CC3CCCCC13c1ccccc12', 'c1ccc2c(c1)CCCC2']

>  <name>  (341) 
Carnosol

>  <formula>  (341) 
C20H26O4

>  <SMILES>  (341) 
CC(C)C1=C(C(=C2C(=C1)[C@@H]3C[C@@H]4[C@@]2(CCCC4(C)C)C(=O)O3)O)O

>  <ChEMBL_id>  (341) 
CHEMBL218693

>  <ZINC_id>  (341) 


>  <PubChem_id>  (341) 
 442009

>  <DrugBank_id>  (341) 


>  <CAS_no>  (341) 
5957-80-2

>  <references>  (341) 
[{'journal': {'name': 'Journal of Natural Products', 'id': 5}, 'title': 'Bioactive Diterpenes from Orthosiphon labiatus and Salvia africana-lutea', 'year': 2007, 'start_page': 293, 'volume': 70, 'issue': 2, 'doi': '10.1021/np0680376', 'isbn': '', 'despositor': {'code': 'TMM', 'first_name': 'Thommas', 'last_name': 'Musyoka', 'id': 22}, 'refauthors_set': [{'author': {'first_name': 'Ahmed', 'initials': 'AA', 'last_name': 'Hussein', 'id': 440}, 'first_author': True, 'id': 935}, {'author': {'first_name': 'Jacobus', 'initials': 'JJM', 'last_name': 'Meyer', 'id': 467}, 'first_author': False, 'id': 936}, {'author': {'first_name': 'María', 'initials': 'L', 'last_name': 'Jimeno', 'id': 678}, 'first_author': False, 'id': 937}, {'author': {'first_name': 'Benjamin', 'initials': 'B', 'last_name': 'Rodriguez', 'id': 472}, 'first_author': False, 'id': 938}], 'id': 316}]

>  <classifications>  (341) 
[{'classification': 'Diterpene', 'id': 771}, {'classification': 'Terpenoid', 'id': 839}, {'classification': 'Phenol lipids (Classyfire)', 'id': 951}]

>  <molecular_mass>  (341) 
330.42

$$$$
SANC00444_minRM1.pdb
     RDKit          3D

 49 51  0  0  1  0  0  0  0  0999 V2000
   -4.6150    0.8090    1.8650 C   0  0  0  0  0  0  0  0  0  0  0  0
   -4.4540    0.0480    0.5510 C   0  0  1  0  0  0  0  0  0  0  0  0
   -5.2660    0.7100   -0.5580 C   0  0  0  0  0  0  0  0  0  0  0  0
   -3.0060    0.0050    0.1600 C   0  0  0  0  0  0  0  0  0  0  0  0
   -2.3330   -1.2130   -0.0510 C   0  0  0  0  0  0  0  0  0  0  0  0
   -0.9850   -1.1540   -0.3690 C   0  0  0  0  0  0  0  0  0  0  0  0
   -0.2370    0.0340   -0.4700 C   0  0  0  0  0  0  0  0  0  0  0  0
   -0.9420    1.2190   -0.3790 C   0  0  0  0  0  0  0  0  0  0  0  0
   -2.3040    1.1840   -0.0320 C   0  0  0  0  0  0  0  0  0  0  0  0
   -0.3940    2.5490   -0.7190 C   0  0  0  0  0  0  0  0  0  0  0  0
   -0.7920    3.5670   -0.1840 O   0  0  0  0  0  0  0  0  0  0  0  0
    1.2060   -0.3750   -0.6950 C   0  0  1  0  0  0  0  0  0  0  0  0
    1.9320    0.3110   -1.8430 C   0  0  0  0  0  0  0  0  0  0  0  0
    2.7060    1.5550   -1.4320 C   0  0  0  0  0  0  0  0  0  0  0  0
    3.6430    1.2600   -0.2770 C   0  0  0  0  0  0  0  0  0  0  0  0
    2.8840    0.7830    0.9610 C   0  0  1  0  0  0  0  0  0  0  0  0
    2.0130   -0.4420    0.6220 C   0  0  2  0  0  0  0  0  0  0  0  0
    1.2840   -0.5950    1.4620 H   0  0  0  0  0  0  0  0  0  0  0  0
    2.9670   -1.6360    0.5680 C   0  0  0  0  0  0  0  0  0  0  0  0
    2.9590   -2.4680    1.4500 O   0  0  0  0  0  0  0  0  0  0  0  0
    3.9140    0.4140    2.0420 C   0  0  0  0  0  0  0  0  0  0  0  0
    2.0210    1.8960    1.5530 C   0  0  0  0  0  0  0  0  0  0  0  0
    0.9740   -1.8540   -1.0910 C   0  0  0  0  0  0  0  0  0  0  0  0
    1.6750   -2.6570   -1.6560 O   0  0  0  0  0  0  0  0  0  0  0  0
   -0.2760   -2.2880   -0.6960 O   0  0  0  0  0  0  0  0  0  0  0  0
   -3.0330   -2.3600    0.0750 O   0  0  0  0  0  0  0  0  0  0  0  0
   -5.6530    0.7670    2.2270 H   0  0  0  0  0  0  0  0  0  0  0  0
   -3.9850    0.3860    2.6600 H   0  0  0  0  0  0  0  0  0  0  0  0
   -4.3580    1.8740    1.7870 H   0  0  0  0  0  0  0  0  0  0  0  0
   -4.8570   -0.9870    0.7040 H   0  0  0  0  0  0  0  0  0  0  0  0
   -5.0020    1.7640   -0.7210 H   0  0  0  0  0  0  0  0  0  0  0  0
   -5.1350    0.1980   -1.5220 H   0  0  0  0  0  0  0  0  0  0  0  0
   -6.3430    0.6930   -0.3330 H   0  0  0  0  0  0  0  0  0  0  0  0
   -2.8310    2.1410    0.0810 H   0  0  0  0  0  0  0  0  0  0  0  0
    0.3750    2.5760   -1.5150 H   0  0  0  0  0  0  0  0  0  0  0  0
    2.6460   -0.4010   -2.3170 H   0  0  0  0  0  0  0  0  0  0  0  0
    1.2100    0.5500   -2.6530 H   0  0  0  0  0  0  0  0  0  0  0  0
    3.2820    1.9340   -2.3050 H   0  0  0  0  0  0  0  0  0  0  0  0
    2.0280    2.4010   -1.1860 H   0  0  0  0  0  0  0  0  0  0  0  0
    4.4050    0.5140   -0.5910 H   0  0  0  0  0  0  0  0  0  0  0  0
    4.2440    2.1620   -0.0310 H   0  0  0  0  0  0  0  0  0  0  0  0
    3.6620   -1.6810   -0.2910 H   0  0  0  0  0  0  0  0  0  0  0  0
    4.4150    1.3090    2.4420 H   0  0  0  0  0  0  0  0  0  0  0  0
    3.4540   -0.0990    2.8990 H   0  0  0  0  0  0  0  0  0  0  0  0
    4.7220   -0.2390    1.6820 H   0  0  0  0  0  0  0  0  0  0  0  0
    1.0760    2.0370    1.0220 H   0  0  0  0  0  0  0  0  0  0  0  0
    1.7380    1.6900    2.5970 H   0  0  0  0  0  0  0  0  0  0  0  0
    2.5340    2.8680    1.5590 H   0  0  0  0  0  0  0  0  0  0  0  0
   -2.4820   -3.1050   -0.1980 H   0  0  0  0  0  0  0  0  0  0  0  0
  1  2  1  0
  1 29  1  0
  1 27  1  0
  1 28  1  0
  2  3  1  0
  2  4  1  0
  2 30  1  1
  3 32  1  0
  3 31  1  0
  3 33  1  0
  4  5  2  0
  4  9  1  0
  5  6  1  0
  5 26  1  0
  6 25  1  0
  6  7  2  0
  7  8  1  0
  8 10  1  0
  8  9  2  0
  9 34  1  0
 10 35  1  0
 10 11  2  0
 12  7  1  0
 12 13  1  0
 12 23  1  6
 12 17  1  0
 13 37  1  0
 13 36  1  0
 13 14  1  0
 14 38  1  0
 14 39  1  0
 14 15  1  0
 15 40  1  0
 15 41  1  0
 15 16  1  0
 16 17  1  0
 16 22  1  1
 16 21  1  0
 17 19  1  0
 17 18  1  1
 19 42  1  0
 19 20  2  0
 21 45  1  0
 21 43  1  0
 21 44  1  0
 22 46  1  0
 22 48  1  0
 22 47  1  0
 23 24  2  0
 23 25  1  0
 26 49  1  0
M  END
>  <id>  (342) 
444

>  <scaffolds>  (342) 
['c1ccccc1', 'C1CCCCC1', 'O=C1Oc2ccccc2C12CCCCC2']

>  <name>  (342) 
Rosmadial

>  <formula>  (342) 
C20H24O5

>  <SMILES>  (342) 
CC(C)C1=C(C2=C(C(=C1)C=O)[C@]3(CCCC([C@@H]3C=O)(C)C)C(=O)O2)O

>  <ChEMBL_id>  (342) 
CHEMBL494864

>  <ZINC_id>  (342) 


>  <PubChem_id>  (342) 


>  <DrugBank_id>  (342) 


>  <CAS_no>  (342) 
85514-31-4

>  <references>  (342) 
[{'journal': {'name': 'Journal of Natural Products', 'id': 5}, 'title': 'Bioactive Diterpenes from Orthosiphon labiatus and Salvia africana-lutea', 'year': 2007, 'start_page': 293, 'volume': 70, 'issue': 2, 'doi': '10.1021/np0680376', 'isbn': '', 'despositor': {'code': 'TMM', 'first_name': 'Thommas', 'last_name': 'Musyoka', 'id': 22}, 'refauthors_set': [{'author': {'first_name': 'Ahmed', 'initials': 'AA', 'last_name': 'Hussein', 'id': 440}, 'first_author': True, 'id': 935}, {'author': {'first_name': 'Jacobus', 'initials': 'JJM', 'last_name': 'Meyer', 'id': 467}, 'first_author': False, 'id': 936}, {'author': {'first_name': 'María', 'initials': 'L', 'last_name': 'Jimeno', 'id': 678}, 'first_author': False, 'id': 937}, {'author': {'first_name': 'Benjamin', 'initials': 'B', 'last_name': 'Rodriguez', 'id': 472}, 'first_author': False, 'id': 938}], 'id': 316}]

>  <classifications>  (342) 
[{'classification': 'Diterpene', 'id': 771}, {'classification': 'Terpenoid', 'id': 839}, {'classification': 'Benzofurans (Classyfire)', 'id': 985}]

>  <molecular_mass>  (342) 
344.4

$$$$
SANC00445_minRM1.pdb
     RDKit          3D

 52 54  0  0  1  0  0  0  0  0999 V2000
   -5.1130   -1.1630   -1.0920 C   0  0  0  0  0  0  0  0  0  0  0  0
   -4.6570   -0.4180    0.1590 C   0  0  1  0  0  0  0  0  0  0  0  0
   -5.0140   -1.2080    1.4160 C   0  0  0  0  0  0  0  0  0  0  0  0
   -3.1770   -0.1910    0.0980 C   0  0  0  0  0  0  0  0  0  0  0  0
   -2.6240    1.0880    0.0100 C   0  0  0  0  0  0  0  0  0  0  0  0
   -1.2330    1.2640   -0.0320 C   0  0  0  0  0  0  0  0  0  0  0  0
   -0.3540    0.1800    0.0590 C   0  0  0  0  0  0  0  0  0  0  0  0
   -0.9160   -1.0960    0.0730 C   0  0  0  0  0  0  0  0  0  0  0  0
   -2.3020   -1.2670    0.1080 C   0  0  0  0  0  0  0  0  0  0  0  0
   -0.0960   -2.3430    0.0470 C   0  0  0  0  0  0  0  0  0  0  0  0
    1.3460   -2.0840   -0.3680 C   0  0  0  0  0  0  0  0  0  0  0  0
    1.8690   -0.9110    0.4480 C   0  0  2  0  0  0  0  0  0  0  0  0
    1.5880   -1.1240    1.5200 H   0  0  0  0  0  0  0  0  0  0  0  0
    1.1400    0.3950    0.0850 C   0  0  2  0  0  0  0  0  0  0  0  0
    1.5600    1.4280    1.1480 C   0  0  0  0  0  0  0  0  0  0  0  0
    3.0720    1.6190    1.1650 C   0  0  0  0  0  0  0  0  0  0  0  0
    3.8060    0.3140    1.4240 C   0  0  0  0  0  0  0  0  0  0  0  0
    3.4020   -0.7890    0.4370 C   0  0  1  0  0  0  0  0  0  0  0  0
    4.0050   -2.1100    0.9390 C   0  0  0  0  0  0  0  0  0  0  0  0
    3.9870   -0.5110   -0.9420 C   0  0  0  0  0  0  0  0  0  0  0  0
    1.4410    0.9650   -1.2870 C   0  0  0  0  0  0  0  0  0  0  0  0
    1.6750    2.1310   -1.5730 O   0  0  0  0  0  0  0  0  0  0  0  0
    1.3390    0.0870   -2.3080 O   0  0  0  0  0  0  0  0  0  0  0  0
   -0.7990    2.5560   -0.0680 O   0  0  0  0  0  0  0  0  0  0  0  0
   -3.4630    2.1470   -0.1210 O   0  0  0  0  0  0  0  0  0  0  0  0
   -6.2050   -1.2970   -1.1080 H   0  0  0  0  0  0  0  0  0  0  0  0
   -4.8460   -0.6200   -2.0090 H   0  0  0  0  0  0  0  0  0  0  0  0
   -4.6760   -2.1680   -1.1800 H   0  0  0  0  0  0  0  0  0  0  0  0
   -5.2070    0.5580    0.2020 H   0  0  0  0  0  0  0  0  0  0  0  0
   -6.1040   -1.2950    1.5400 H   0  0  0  0  0  0  0  0  0  0  0  0
   -4.6230   -2.2340    1.4120 H   0  0  0  0  0  0  0  0  0  0  0  0
   -4.6280   -0.7250    2.3250 H   0  0  0  0  0  0  0  0  0  0  0  0
   -2.7030   -2.2860    0.1430 H   0  0  0  0  0  0  0  0  0  0  0  0
   -0.1400   -2.8250    1.0490 H   0  0  0  0  0  0  0  0  0  0  0  0
   -0.5510   -3.0910   -0.6380 H   0  0  0  0  0  0  0  0  0  0  0  0
    1.9590   -2.9970   -0.1950 H   0  0  0  0  0  0  0  0  0  0  0  0
    1.4170   -1.9330   -1.4610 H   0  0  0  0  0  0  0  0  0  0  0  0
    1.0870    2.4200    0.9920 H   0  0  0  0  0  0  0  0  0  0  0  0
    1.1880    1.1080    2.1440 H   0  0  0  0  0  0  0  0  0  0  0  0
    3.4280    2.1000    0.2300 H   0  0  0  0  0  0  0  0  0  0  0  0
    3.3390    2.3610    1.9500 H   0  0  0  0  0  0  0  0  0  0  0  0
    4.9040    0.4800    1.3840 H   0  0  0  0  0  0  0  0  0  0  0  0
    3.6190   -0.0160    2.4690 H   0  0  0  0  0  0  0  0  0  0  0  0
    3.6200   -2.4090    1.9250 H   0  0  0  0  0  0  0  0  0  0  0  0
    3.7920   -2.9460    0.2550 H   0  0  0  0  0  0  0  0  0  0  0  0
    5.0980   -2.0550    1.0390 H   0  0  0  0  0  0  0  0  0  0  0  0
    5.0820   -0.6320   -0.9490 H   0  0  0  0  0  0  0  0  0  0  0  0
    3.6000   -1.1950   -1.7100 H   0  0  0  0  0  0  0  0  0  0  0  0
    3.8170    0.5110   -1.3020 H   0  0  0  0  0  0  0  0  0  0  0  0
    1.5070    0.5160   -3.1600 H   0  0  0  0  0  0  0  0  0  0  0  0
   -0.6610    2.7680   -1.0010 H   0  0  0  0  0  0  0  0  0  0  0  0
   -3.0940    2.8890    0.3760 H   0  0  0  0  0  0  0  0  0  0  0  0
  1 27  1  0
  1 28  1  0
  1 26  1  0
  1  2  1  0
  2  4  1  0
  2 29  1  1
  2  3  1  0
  3 31  1  0
  3 30  1  0
  3 32  1  0
  4  5  2  0
  4  9  1  0
  5 25  1  0
  5  6  1  0
  6 24  1  0
  6  7  2  0
  7  8  1  0
  7 14  1  0
  8 10  1  0
  8  9  2  0
  9 33  1  0
 10 35  1  0
 10 11  1  0
 10 34  1  0
 11 37  1  0
 11 36  1  0
 11 12  1  0
 12 14  1  0
 12 18  1  0
 12 13  1  1
 14 21  1  6
 14 15  1  0
 15 38  1  0
 15 16  1  0
 15 39  1  0
 16 40  1  0
 16 17  1  0
 16 41  1  0
 17 18  1  0
 17 42  1  0
 17 43  1  0
 18 20  1  6
 18 19  1  0
 19 45  1  0
 19 46  1  0
 19 44  1  0
 20 48  1  0
 20 49  1  0
 20 47  1  0
 21 23  1  0
 21 22  2  0
 23 50  1  0
 24 51  1  0
 25 52  1  0
M  END
>  <id>  (343) 
445

>  <scaffolds>  (343) 
['c1ccccc1', 'C1CCCCC1', 'c1ccc2c(c1)CCC1CCCCC21', 'c1ccc2c(c1)CCCC2']

>  <name>  (343) 
Carnosic acid

>  <formula>  (343) 
C20H28O4

>  <SMILES>  (343) 
CC(C)C1=C(C(=C2C(=C1)CC[C@@H]3[C@@]2(CCCC3(C)C)C(=O)O)O)O

>  <ChEMBL_id>  (343) 
CHEMBL484853

>  <ZINC_id>  (343) 


>  <PubChem_id>  (343) 
 65126

>  <DrugBank_id>  (343) 


>  <CAS_no>  (343) 
3650-09-7

>  <references>  (343) 
[{'journal': {'name': 'Journal of Natural Products', 'id': 5}, 'title': 'Bioactive Diterpenes from Orthosiphon labiatus and Salvia africana-lutea', 'year': 2007, 'start_page': 293, 'volume': 70, 'issue': 2, 'doi': '10.1021/np0680376', 'isbn': '', 'despositor': {'code': 'TMM', 'first_name': 'Thommas', 'last_name': 'Musyoka', 'id': 22}, 'refauthors_set': [{'author': {'first_name': 'Ahmed', 'initials': 'AA', 'last_name': 'Hussein', 'id': 440}, 'first_author': True, 'id': 935}, {'author': {'first_name': 'Jacobus', 'initials': 'JJM', 'last_name': 'Meyer', 'id': 467}, 'first_author': False, 'id': 936}, {'author': {'first_name': 'María', 'initials': 'L', 'last_name': 'Jimeno', 'id': 678}, 'first_author': False, 'id': 937}, {'author': {'first_name': 'Benjamin', 'initials': 'B', 'last_name': 'Rodriguez', 'id': 472}, 'first_author': False, 'id': 938}], 'id': 316}]

>  <classifications>  (343) 
[{'classification': 'Diterpene', 'id': 771}, {'classification': 'Terpenoid', 'id': 839}, {'classification': 'Phenol lipids (Classyfire)', 'id': 951}]

>  <molecular_mass>  (343) 
332.43

$$$$
SANC00446_minRM1.pdb
     RDKit          3D

144156  0  0  1  0  0  0  0  0999 V2000
   10.9270    1.8340   -0.2180 C   0  0  0  0  0  0  0  0  0  0  0  0
   11.0200    0.4310    0.3770 C   0  0  1  0  0  0  0  0  0  0  0  0
   12.0180    0.3280    0.8770 H   0  0  0  0  0  0  0  0  0  0  0  0
    9.9170    0.1240    1.3950 C   0  0  1  0  0  0  0  0  0  0  0  0
   10.1860   -0.8110    1.9440 H   0  0  0  0  0  0  0  0  0  0  0  0
    9.7520    1.3040    2.3760 C   0  0  0  0  0  0  0  0  0  0  0  0
    8.6260    2.1010    1.7920 C   0  0  0  0  0  0  0  0  0  0  0  0
    7.9470    1.3840    0.8940 C   0  0  0  0  0  0  0  0  0  0  0  0
    8.5280    0.0030    0.7320 C   0  0  1  0  0  0  0  0  0  0  0  0
    8.5280   -0.5720   -0.6920 C   0  0  0  0  0  0  0  0  0  0  0  0
    9.6950   -0.4240   -1.4420 O   0  0  0  0  0  0  0  0  0  0  0  0
   10.9000   -0.6130   -0.7400 C   0  0  2  0  0  0  0  0  0  0  0  0
   11.0650   -2.1100   -0.3250 C   0  0  1  0  0  0  0  0  0  0  0  0
   10.1190   -2.5720    0.0550 H   0  0  0  0  0  0  0  0  0  0  0  0
   11.5430   -2.7440   -1.6420 C   0  0  0  0  0  0  0  0  0  0  0  0
   12.2100   -1.5740   -2.3950 C   0  0  1  0  0  0  0  0  0  0  0  0
   11.8690   -0.3750   -1.7200 O   0  0  0  0  0  0  0  0  0  0  0  0
   13.7350   -1.6730   -2.3540 C   0  0  0  0  0  0  0  0  0  0  0  0
   11.7090   -1.4610   -3.8330 C   0  0  0  0  0  0  0  0  0  0  0  0
   12.0640   -2.1400    0.6480 O   0  0  0  0  0  0  0  0  0  0  0  0
    7.5330   -0.8340    1.5260 C   0  0  0  0  0  0  0  0  0  0  0  0
    7.8600   -1.5640    2.4410 O   0  0  0  0  0  0  0  0  0  0  0  0
    6.0900   -0.7050    1.0890 C   0  0  0  0  0  0  0  0  0  0  0  0
    5.6230    0.7530    1.0270 C   0  0  1  0  0  0  0  0  0  0  0  0
    5.5790    1.1360    2.0820 H   0  0  0  0  0  0  0  0  0  0  0  0
    6.6320    1.6250    0.2570 C   0  0  1  0  0  0  0  0  0  0  0  0
    6.6970    1.3030   -0.8190 H   0  0  0  0  0  0  0  0  0  0  0  0
    6.2050    3.0860    0.3220 C   0  0  0  0  0  0  0  0  0  0  0  0
    4.8340    3.2390   -0.3190 C   0  0  0  0  0  0  0  0  0  0  0  0
    3.8030    2.3540    0.3850 C   0  0  2  0  0  0  0  0  0  0  0  0
    3.7090    2.7020    1.4480 H   0  0  0  0  0  0  0  0  0  0  0  0
    4.2140    0.8720    0.4020 C   0  0  2  0  0  0  0  0  0  0  0  0
    3.2180    0.1100    1.2940 C   0  0  0  0  0  0  0  0  0  0  0  0
    1.7960    0.4310    0.9630 C   0  0  0  0  0  0  0  0  0  0  0  0
    1.4320    1.5840    0.2390 C   0  0  0  0  0  0  0  0  0  0  0  0
    2.4490    2.5330   -0.3020 C   0  0  0  0  0  0  0  0  0  0  0  0
    0.1330    1.8750   -0.0200 N   0  0  0  0  0  0  0  0  0  0  0  0
   -0.7940    1.0120    0.4500 C   0  0  0  0  0  0  0  0  0  0  0  0
   -2.2360    1.3900    0.2050 C   0  0  1  0  0  0  0  0  0  0  0  0
   -2.3410    1.8660   -0.8110 H   0  0  0  0  0  0  0  0  0  0  0  0
   -3.1560    0.1420    0.2790 C   0  0  1  0  0  0  0  0  0  0  0  0
   -2.8750   -0.6030    1.5910 C   0  0  1  0  0  0  0  0  0  0  0  0
   -3.0100    0.1090    2.4480 H   0  0  0  0  0  0  0  0  0  0  0  0
   -3.8440   -1.7720    1.7820 C   0  0  0  0  0  0  0  0  0  0  0  0
   -5.2860   -1.2870    1.7620 C   0  0  0  0  0  0  0  0  0  0  0  0
   -5.5800   -0.6060    0.4270 C   0  0  2  0  0  0  0  0  0  0  0  0
   -5.4390   -1.3510   -0.3980 H   0  0  0  0  0  0  0  0  0  0  0  0
   -4.6340    0.5920    0.2500 C   0  0  2  0  0  0  0  0  0  0  0  0
   -4.8150    1.2910    1.1100 H   0  0  0  0  0  0  0  0  0  0  0  0
   -4.9610    1.3240   -1.0510 C   0  0  0  0  0  0  0  0  0  0  0  0
   -6.4140    1.8320   -1.0450 C   0  0  2  0  0  0  0  0  0  0  0  0
   -6.5420    2.5460   -0.1870 H   0  0  0  0  0  0  0  0  0  0  0  0
   -7.3910    0.6360   -0.8970 C   0  0  1  0  0  0  0  0  0  0  0  0
   -6.9760   -0.0990    0.3530 C   0  0  0  0  0  0  0  0  0  0  0  0
   -7.9330   -0.1660    1.2770 C   0  0  0  0  0  0  0  0  0  0  0  0
   -9.1550    0.5990    0.8710 C   0  0  1  0  0  0  0  0  0  0  0  0
   -9.3730    1.4220    1.5950 H   0  0  0  0  0  0  0  0  0  0  0  0
   -8.8710    1.0710   -0.6010 C   0  0  2  0  0  0  0  0  0  0  0  0
   -9.9900    0.3720   -1.4260 C   0  0  1  0  0  0  0  0  0  0  0  0
   -9.5800   -0.1210   -2.3430 H   0  0  0  0  0  0  0  0  0  0  0  0
  -10.5450   -0.6700   -0.4340 C   0  0  1  0  0  0  0  0  0  0  0  0
  -10.3040   -0.2060    0.8640 O   0  0  0  0  0  0  0  0  0  0  0  0
  -12.0350   -1.0870   -0.5190 C   0  0  1  0  0  0  0  0  0  0  0  0
  -12.3590   -1.1690   -1.5900 H   0  0  0  0  0  0  0  0  0  0  0  0
  -12.0130   -2.4730    0.1510 C   0  0  0  0  0  0  0  0  0  0  0  0
  -10.5510   -2.9420   -0.0190 C   0  0  1  0  0  0  0  0  0  0  0  0
   -9.8220   -1.8660   -0.5760 O   0  0  0  0  0  0  0  0  0  0  0  0
   -9.9200   -3.3350    1.3120 C   0  0  0  0  0  0  0  0  0  0  0  0
  -10.4640   -4.1010   -1.0400 C   0  0  0  0  0  0  0  0  0  0  0  0
   -9.1250   -4.4810   -1.1540 O   0  0  0  0  0  0  0  0  0  0  0  0
  -12.7820   -0.1350    0.1650 O   0  0  0  0  0  0  0  0  0  0  0  0
  -11.0900    1.3180   -1.8880 C   0  0  0  0  0  0  0  0  0  0  0  0
   -8.9120    2.4540   -0.7150 O   0  0  0  0  0  0  0  0  0  0  0  0
   -7.2610   -0.2810   -2.1070 C   0  0  0  0  0  0  0  0  0  0  0  0
   -6.6020    2.4400   -2.2900 O   0  0  0  0  0  0  0  0  0  0  0  0
   -1.4430   -1.1460    1.6310 C   0  0  0  0  0  0  0  0  0  0  0  0
   -0.4340   -0.1500    1.1610 C   0  0  0  0  0  0  0  0  0  0  0  0
    0.8640   -0.4410    1.4200 N   0  0  0  0  0  0  0  0  0  0  0  0
   -2.8310   -0.7380   -0.9270 C   0  0  0  0  0  0  0  0  0  0  0  0
   -2.6170    2.2570    1.2470 O   0  0  0  0  0  0  0  0  0  0  0  0
   -2.3020    3.6060    1.0340 C   0  0  0  0  0  0  0  0  0  0  0  0
    4.1710    0.2630   -0.9970 C   0  0  0  0  0  0  0  0  0  0  0  0
    9.9610    2.0330   -0.7020 H   0  0  0  0  0  0  0  0  0  0  0  0
   11.0760    2.6230    0.5350 H   0  0  0  0  0  0  0  0  0  0  0  0
   11.7020    2.0060   -0.9800 H   0  0  0  0  0  0  0  0  0  0  0  0
    9.4720    0.9520    3.3910 H   0  0  0  0  0  0  0  0  0  0  0  0
   10.6810    1.8840    2.5320 H   0  0  0  0  0  0  0  0  0  0  0  0
    8.4260    3.1130    2.1300 H   0  0  0  0  0  0  0  0  0  0  0  0
    8.2510   -1.6540   -0.6820 H   0  0  0  0  0  0  0  0  0  0  0  0
    7.7610   -0.0660   -1.3280 H   0  0  0  0  0  0  0  0  0  0  0  0
   12.2290   -3.6010   -1.4930 H   0  0  0  0  0  0  0  0  0  0  0  0
   10.6870   -3.1660   -2.2070 H   0  0  0  0  0  0  0  0  0  0  0  0
   14.0940   -2.5510   -2.9080 H   0  0  0  0  0  0  0  0  0  0  0  0
   14.2160   -0.7890   -2.7990 H   0  0  0  0  0  0  0  0  0  0  0  0
   14.1130   -1.7530   -1.3240 H   0  0  0  0  0  0  0  0  0  0  0  0
   10.6230   -1.2880   -3.8790 H   0  0  0  0  0  0  0  0  0  0  0  0
   12.1800   -0.6200   -4.3640 H   0  0  0  0  0  0  0  0  0  0  0  0
   11.9270   -2.3730   -4.4060 H   0  0  0  0  0  0  0  0  0  0  0  0
   12.1590   -3.0550    0.9280 H   0  0  0  0  0  0  0  0  0  0  0  0
    5.9640   -1.2060    0.1020 H   0  0  0  0  0  0  0  0  0  0  0  0
    5.4390   -1.2900    1.7770 H   0  0  0  0  0  0  0  0  0  0  0  0
    6.1860    3.4580    1.3690 H   0  0  0  0  0  0  0  0  0  0  0  0
    6.9520    3.7300   -0.1880 H   0  0  0  0  0  0  0  0  0  0  0  0
    4.5120    4.3020   -0.2790 H   0  0  0  0  0  0  0  0  0  0  0  0
    4.8890    3.0180   -1.4060 H   0  0  0  0  0  0  0  0  0  0  0  0
    3.3840   -0.9880    1.2170 H   0  0  0  0  0  0  0  0  0  0  0  0
    3.3810    0.3410    2.3710 H   0  0  0  0  0  0  0  0  0  0  0  0
    2.1000    3.5850   -0.1870 H   0  0  0  0  0  0  0  0  0  0  0  0
    2.5240    2.3970   -1.4040 H   0  0  0  0  0  0  0  0  0  0  0  0
   -3.6940   -2.5550    1.0070 H   0  0  0  0  0  0  0  0  0  0  0  0
   -3.6290   -2.2930    2.7400 H   0  0  0  0  0  0  0  0  0  0  0  0
   -5.9780   -2.1400    1.9250 H   0  0  0  0  0  0  0  0  0  0  0  0
   -5.4760   -0.6010    2.6150 H   0  0  0  0  0  0  0  0  0  0  0  0
   -4.2760    2.1860   -1.2060 H   0  0  0  0  0  0  0  0  0  0  0  0
   -4.7840    0.6650   -1.9340 H   0  0  0  0  0  0  0  0  0  0  0  0
   -7.9140   -0.6750    2.2360 H   0  0  0  0  0  0  0  0  0  0  0  0
  -12.3000   -2.4140    1.2210 H   0  0  0  0  0  0  0  0  0  0  0  0
  -12.7470   -3.1690   -0.2950 H   0  0  0  0  0  0  0  0  0  0  0  0
  -10.4350   -4.1980    1.7590 H   0  0  0  0  0  0  0  0  0  0  0  0
   -8.8590   -3.6080    1.2000 H   0  0  0  0  0  0  0  0  0  0  0  0
   -9.9510   -2.5110    2.0410 H   0  0  0  0  0  0  0  0  0  0  0  0
  -11.0360   -4.9820   -0.6660 H   0  0  0  0  0  0  0  0  0  0  0  0
  -10.9370   -3.8090   -2.0050 H   0  0  0  0  0  0  0  0  0  0  0  0
   -8.8990   -4.4600   -2.0930 H   0  0  0  0  0  0  0  0  0  0  0  0
  -13.6680   -0.4960    0.2720 H   0  0  0  0  0  0  0  0  0  0  0  0
  -10.6920    2.1440   -2.4980 H   0  0  0  0  0  0  0  0  0  0  0  0
  -11.8250    0.8130   -2.5320 H   0  0  0  0  0  0  0  0  0  0  0  0
  -11.6590    1.7650   -1.0580 H   0  0  0  0  0  0  0  0  0  0  0  0
   -9.7210    2.7750   -0.3030 H   0  0  0  0  0  0  0  0  0  0  0  0
   -6.2350   -0.3060   -2.5080 H   0  0  0  0  0  0  0  0  0  0  0  0
   -7.5290   -1.3240   -1.8740 H   0  0  0  0  0  0  0  0  0  0  0  0
   -7.9000    0.0450   -2.9440 H   0  0  0  0  0  0  0  0  0  0  0  0
   -7.1750    3.2080   -2.1610 H   0  0  0  0  0  0  0  0  0  0  0  0
   -1.1990   -1.4860    2.6630 H   0  0  0  0  0  0  0  0  0  0  0  0
   -1.3380   -2.0660    1.0130 H   0  0  0  0  0  0  0  0  0  0  0  0
   -1.7520   -0.8280   -1.1220 H   0  0  0  0  0  0  0  0  0  0  0  0
   -3.2020   -1.7690   -0.8160 H   0  0  0  0  0  0  0  0  0  0  0  0
   -3.2730   -0.3520   -1.8610 H   0  0  0  0  0  0  0  0  0  0  0  0
   -2.6970    4.1150    1.9280 H   0  0  0  0  0  0  0  0  0  0  0  0
   -1.2190    3.8070    0.9690 H   0  0  0  0  0  0  0  0  0  0  0  0
   -2.7890    4.0340    0.1400 H   0  0  0  0  0  0  0  0  0  0  0  0
    4.6190    0.9030   -1.7700 H   0  0  0  0  0  0  0  0  0  0  0  0
    4.7020   -0.7020   -1.0480 H   0  0  0  0  0  0  0  0  0  0  0  0
    3.1460    0.0550   -1.3350 H   0  0  0  0  0  0  0  0  0  0  0  0
  1 85  1  0
  1 83  1  0
  1  2  1  0
  1 84  1  0
  2 12  1  0
  2  3  1  1
  2  4  1  0
  4  9  1  0
  4  5  1  1
  4  6  1  0
  6  7  1  0
  6 87  1  0
  6 86  1  0
  7  8  2  0
  7 88  1  0
  8 26  1  0
  9  8  1  0
  9 10  1  0
  9 21  1  1
 10 11  1  0
 10 90  1  0
 10 89  1  0
 12 11  1  6
 12 17  1  0
 12 13  1  0
 13 15  1  0
 13 14  1  1
 13 20  1  0
 15 16  1  0
 15 92  1  0
 15 91  1  0
 16 19  1  6
 16 18  1  0
 16 17  1  0
 18 93  1  0
 18 94  1  0
 18 95  1  0
 19 98  1  0
 19 97  1  0
 19 96  1  0
 20 99  1  0
 21 23  1  0
 21 22  2  0
 23100  1  0
 23 24  1  0
 23101  1  0
 24 26  1  0
 24 32  1  0
 24 25  1  1
 26 27  1  6
 26 28  1  0
 28 29  1  0
 28103  1  0
 28102  1  0
 29105  1  0
 29104  1  0
 29 30  1  0
 30 36  1  0
 30 32  1  0
 30 31  1  1
 32 82  1  6
 32 33  1  0
 33 34  1  0
 33106  1  0
 33107  1  0
 34 35  2  0
 34 78  1  0
 35 36  1  0
 35 37  1  0
 36109  1  0
 36108  1  0
 37 38  2  0
 38 39  1  0
 38 77  1  0
 39 40  1  6
 39 41  1  0
 39 80  1  0
 41 79  1  6
 41 48  1  0
 41 42  1  0
 42 76  1  0
 42 44  1  0
 42 43  1  1
 44110  1  0
 44 45  1  0
 44111  1  0
 45 46  1  0
 45112  1  0
 45113  1  0
 46 47  1  6
 46 48  1  0
 46 54  1  0
 48 50  1  0
 48 49  1  1
 50115  1  0
 50114  1  0
 50 51  1  0
 51 75  1  0
 51 53  1  0
 51 52  1  1
 53 74  1  6
 53 58  1  0
 53 54  1  0
 54 55  2  0
 55 56  1  0
 55116  1  0
 56 58  1  0
 56 62  1  0
 56 57  1  1
 58 59  1  0
 58 73  1  1
 59 60  1  6
 59 72  1  0
 59 61  1  0
 61 67  1  1
 61 63  1  0
 61 62  1  0
 63 64  1  6
 63 65  1  0
 63 71  1  0
 65118  1  0
 65 66  1  0
 65117  1  0
 66 69  1  6
 66 67  1  0
 66 68  1  0
 68120  1  0
 68119  1  0
 68121  1  0
 69123  1  0
 69 70  1  0
 69122  1  0
 70124  1  0
 71125  1  0
 72127  1  0
 72126  1  0
 72128  1  0
 73129  1  0
 74132  1  0
 74130  1  0
 74131  1  0
 75133  1  0
 76135  1  0
 76 77  1  0
 76134  1  0
 77 78  2  0
 79138  1  0
 79136  1  0
 79137  1  0
 80 81  1  0
 81141  1  0
 81140  1  0
 81139  1  0
 82142  1  0
 82144  1  0
 82143  1  0
M  END
>  <id>  (344) 
446

>  <scaffolds>  (344) 
['O=C1CC2C(CCC3Cc4nc5c(nc4CC32)CC2CCC3C4=CC6OC7(CCCO7)CC6C4CCC3C2C5)C2=CCC3CC4(CCCO4)OCC123', 'C1CCOCC1', 'C1CCCCC1', 'C=C1CCCC2CCCCC12', 'O=C1CC2C(CCC3Cc4nc5c(nc4CC32)CC2CCC3C4=CC6OC7(CCCO7)CC6C4CCC3C2C5)C2=CCC3CCOCC123', 'C1CCC2CCCCC2C1']

>  <name>  (344) 
Cephalostatin 18

>  <formula>  (344) 
C55H76N2O11

>  <SMILES>  (344) 
C[C@H]1[C@H]2CC=C3[C@]2(CO[C@]14[C@@H](CC(O4)(C)C)O)C(=O)C[C@H]5[C@H]3CC[C@@H]6[C@@]5(CC7=C(C6)N=C8[C@@H]([C@]9([C@@H](CC[C@@H]1[C@@H]9C[C@H]([C@]2(C1=C[C@H]1[C@@]2([C@@H]([C@@]2(O1)[C@@H](C[C@@](O2)(C)CO)O)C)O)C)O)CC8=N7)C)OC)C

>  <ChEMBL_id>  (344) 
CHEMBL504202

>  <ZINC_id>  (344) 


>  <PubChem_id>  (344) 
 10533864

>  <DrugBank_id>  (344) 


>  <CAS_no>  (344) 
211050-18-9

>  <references>  (344) 
[{'journal': {'name': 'Journal of Natural Products', 'id': 5}, 'title': 'Antineoplastic Agents. 398. Isolation and Structure Elucidation of Cephalostatins 18 and 19', 'year': 1998, 'start_page': 955, 'volume': 61, 'issue': 7, 'doi': '10.1021/np9800405', 'isbn': '', 'despositor': {'code': 'TMM', 'first_name': 'Thommas', 'last_name': 'Musyoka', 'id': 22}, 'refauthors_set': [{'author': {'first_name': 'George', 'initials': 'GR', 'last_name': 'Pettit', 'id': 478}, 'first_author': True, 'id': 1051}, {'author': {'first_name': '', 'initials': 'R', 'last_name': 'Tan', 'id': 679}, 'first_author': None, 'id': 1052}, {'author': {'first_name': '', 'initials': 'J', 'last_name': 'Xu', 'id': 680}, 'first_author': None, 'id': 1053}, {'author': {'first_name': '', 'initials': 'Y', 'last_name': 'Ichihara', 'id': 681}, 'first_author': None, 'id': 1054}, {'author': {'first_name': 'Michael', 'initials': 'D', 'last_name': 'Williams', 'id': 682}, 'first_author': None, 'id': 1055}, {'author': {'first_name': 'Michael', 'initials': 'R', 'last_name': 'Boyd', 'id': 683}, 'first_author': None, 'id': 1056}], 'id': 317}]

>  <classifications>  (344) 
[{'classification': 'Alkaloid', 'id': 738}, {'classification': 'Cephalostatin', 'id': 759}, {'classification': 'Steroid', 'id': 835}, {'classification': 'Steroids and steroid derivatives (Classyfire)', 'id': 942}]

>  <molecular_mass>  (344) 
941.2

$$$$
SANC00447_minRM1.pdb
     RDKit          3D

144156  0  0  1  0  0  0  0  0999 V2000
   12.1170   -1.6400    0.1200 C   0  0  0  0  0  0  0  0  0  0  0  0
   10.8000   -1.2310   -0.5340 C   0  0  1  0  0  0  0  0  0  0  0  0
   10.4680   -2.0520   -1.2280 H   0  0  0  0  0  0  0  0  0  0  0  0
    9.7330   -1.0900    0.5540 C   0  0  1  0  0  0  0  0  0  0  0  0
    9.4310   -2.1300    0.8500 H   0  0  0  0  0  0  0  0  0  0  0  0
   10.1690   -0.3490    1.8340 C   0  0  0  0  0  0  0  0  0  0  0  0
    8.8800    0.1970    2.3710 C   0  0  0  0  0  0  0  0  0  0  0  0
    7.9290    0.2040    1.4330 C   0  0  0  0  0  0  0  0  0  0  0  0
    8.4640   -0.3200    0.1270 C   0  0  1  0  0  0  0  0  0  0  0  0
    8.8320    0.8940   -0.7340 C   0  0  0  0  0  0  0  0  0  0  0  0
    9.6750    0.5320   -1.7880 O   0  0  0  0  0  0  0  0  0  0  0  0
   10.9310    0.0170   -1.4210 C   0  0  2  0  0  0  0  0  0  0  0  0
   11.6260   -0.1540   -2.8160 C   0  0  1  0  0  0  0  0  0  0  0  0
   10.8740   -0.3400   -3.6280 H   0  0  0  0  0  0  0  0  0  0  0  0
   12.3550    1.1900   -3.0040 C   0  0  0  0  0  0  0  0  0  0  0  0
   12.2870    1.8900   -1.6320 C   0  0  1  0  0  0  0  0  0  0  0  0
   11.6080    1.0290   -0.7380 O   0  0  0  0  0  0  0  0  0  0  0  0
   13.6760    2.1180   -1.0340 C   0  0  0  0  0  0  0  0  0  0  0  0
   11.5090    3.2060   -1.7030 C   0  0  0  0  0  0  0  0  0  0  0  0
   12.5290   -1.2090   -2.7290 O   0  0  0  0  0  0  0  0  0  0  0  0
    7.4510   -1.1820   -0.5770 C   0  0  0  0  0  0  0  0  0  0  0  0
    7.7630   -2.1960   -1.1710 O   0  0  0  0  0  0  0  0  0  0  0  0
    6.0200   -0.7140   -0.5230 C   0  0  0  0  0  0  0  0  0  0  0  0
    5.5920   -0.3670    0.9050 C   0  0  1  0  0  0  0  0  0  0  0  0
    5.6890   -1.2910    1.5340 H   0  0  0  0  0  0  0  0  0  0  0  0
    6.5320    0.6950    1.4930 C   0  0  1  0  0  0  0  0  0  0  0  0
    6.4900    1.6330    0.8790 H   0  0  0  0  0  0  0  0  0  0  0  0
    6.1210    1.0100    2.9300 C   0  0  0  0  0  0  0  0  0  0  0  0
    4.6900    1.5210    2.9580 C   0  0  0  0  0  0  0  0  0  0  0  0
    3.7330    0.4820    2.3720 C   0  0  2  0  0  0  0  0  0  0  0  0
    3.7810   -0.4420    3.0070 H   0  0  0  0  0  0  0  0  0  0  0  0
    4.1230    0.1150    0.9340 C   0  0  2  0  0  0  0  0  0  0  0  0
    3.1920   -1.0290    0.4460 C   0  0  2  0  0  0  0  0  0  0  0  0
    3.3910   -1.2280   -0.6450 H   0  0  0  0  0  0  0  0  0  0  0  0
    1.7400   -0.6610    0.6440 C   0  0  0  0  0  0  0  0  0  0  0  0
    0.8420   -1.3150   -0.1310 N   0  0  0  0  0  0  0  0  0  0  0  0
   -0.4660   -1.0120    0.0560 C   0  0  0  0  0  0  0  0  0  0  0  0
   -0.8660   -0.0490    1.0050 C   0  0  0  0  0  0  0  0  0  0  0  0
   -2.3010    0.2970    1.2320 C   0  0  0  0  0  0  0  0  0  0  0  0
   -3.1850   -0.0960    0.0360 C   0  0  1  0  0  0  0  0  0  0  0  0
   -2.8860   -1.5660   -0.2980 C   0  0  2  0  0  0  0  0  0  0  0  0
   -2.9950   -2.1710    0.6410 H   0  0  0  0  0  0  0  0  0  0  0  0
   -1.4520   -1.7260   -0.8110 C   0  0  0  0  0  0  0  0  0  0  0  0
   -3.8590   -2.1200   -1.3390 C   0  0  0  0  0  0  0  0  0  0  0  0
   -5.2980   -1.9660   -0.8670 C   0  0  0  0  0  0  0  0  0  0  0  0
   -5.6080   -0.4920   -0.6130 C   0  0  2  0  0  0  0  0  0  0  0  0
   -5.4730    0.0740   -1.5700 H   0  0  0  0  0  0  0  0  0  0  0  0
   -4.6600    0.0420    0.4730 C   0  0  2  0  0  0  0  0  0  0  0  0
   -4.8130   -0.5830    1.3950 H   0  0  0  0  0  0  0  0  0  0  0  0
   -4.9970    1.4910    0.8260 C   0  0  0  0  0  0  0  0  0  0  0  0
   -6.4630    1.6410    1.2680 C   0  0  2  0  0  0  0  0  0  0  0  0
   -6.6240    1.0390    2.2030 H   0  0  0  0  0  0  0  0  0  0  0  0
   -7.4290    1.1310    0.1670 C   0  0  1  0  0  0  0  0  0  0  0  0
   -6.9960   -0.2850   -0.1230 C   0  0  0  0  0  0  0  0  0  0  0  0
   -7.9010   -1.2010    0.2220 C   0  0  0  0  0  0  0  0  0  0  0  0
   -9.0760   -0.5780    0.9160 C   0  0  1  0  0  0  0  0  0  0  0  0
   -9.0970   -0.8690    1.9970 H   0  0  0  0  0  0  0  0  0  0  0  0
   -8.9010    0.9610    0.6770 C   0  0  2  0  0  0  0  0  0  0  0  0
  -10.0240    1.2610   -0.3460 C   0  0  1  0  0  0  0  0  0  0  0  0
   -9.6020    1.1750   -1.3870 H   0  0  0  0  0  0  0  0  0  0  0  0
  -11.0050    0.0900   -0.1570 C   0  0  1  0  0  0  0  0  0  0  0  0
  -10.2900   -1.0060    0.3580 O   0  0  0  0  0  0  0  0  0  0  0  0
  -12.2720    0.2820    0.7270 C   0  0  1  0  0  0  0  0  0  0  0  0
  -12.7630    1.2750    0.5630 H   0  0  0  0  0  0  0  0  0  0  0  0
  -13.1710   -0.8490    0.2040 C   0  0  0  0  0  0  0  0  0  0  0  0
  -12.7340   -0.9800   -1.2710 C   0  0  1  0  0  0  0  0  0  0  0  0
  -11.4790   -0.3380   -1.4040 O   0  0  0  0  0  0  0  0  0  0  0  0
  -12.5890   -2.4320   -1.7090 C   0  0  0  0  0  0  0  0  0  0  0  0
  -13.7240   -0.2090   -2.1810 C   0  0  0  0  0  0  0  0  0  0  0  0
  -13.2950   -0.3600   -3.5010 O   0  0  0  0  0  0  0  0  0  0  0  0
  -11.8700    0.1440    2.0500 O   0  0  0  0  0  0  0  0  0  0  0  0
  -10.6570    2.6300   -0.2130 C   0  0  0  0  0  0  0  0  0  0  0  0
   -9.0290    1.6920    1.8460 O   0  0  0  0  0  0  0  0  0  0  0  0
   -7.3530    2.0150   -1.0670 C   0  0  0  0  0  0  0  0  0  0  0  0
   -6.6500    3.0100    1.4700 O   0  0  0  0  0  0  0  0  0  0  0  0
   -2.8620    0.8150   -1.1440 C   0  0  0  0  0  0  0  0  0  0  0  0
    0.0330    0.6000    1.7820 N   0  0  0  0  0  0  0  0  0  0  0  0
    1.3400    0.2880    1.6020 C   0  0  0  0  0  0  0  0  0  0  0  0
    2.3130    1.0480    2.4410 C   0  0  0  0  0  0  0  0  0  0  0  0
    3.4550   -2.1510    1.2550 O   0  0  0  0  0  0  0  0  0  0  0  0
    3.1340   -3.3840    0.6680 C   0  0  0  0  0  0  0  0  0  0  0  0
    3.9220    1.3090    0.0010 C   0  0  0  0  0  0  0  0  0  0  0  0
   12.6520   -0.8030    0.5910 H   0  0  0  0  0  0  0  0  0  0  0  0
   11.9610   -2.3980    0.9030 H   0  0  0  0  0  0  0  0  0  0  0  0
   12.8260   -2.0960   -0.5840 H   0  0  0  0  0  0  0  0  0  0  0  0
   10.6850   -1.0100    2.5560 H   0  0  0  0  0  0  0  0  0  0  0  0
   10.8820    0.4740    1.6310 H   0  0  0  0  0  0  0  0  0  0  0  0
    8.8090    0.5280    3.4030 H   0  0  0  0  0  0  0  0  0  0  0  0
    7.9510    1.3330   -1.2520 H   0  0  0  0  0  0  0  0  0  0  0  0
    9.2660    1.7090   -0.1090 H   0  0  0  0  0  0  0  0  0  0  0  0
   13.3980    1.0620   -3.3530 H   0  0  0  0  0  0  0  0  0  0  0  0
   11.8730    1.7940   -3.7980 H   0  0  0  0  0  0  0  0  0  0  0  0
   14.2730    2.8000   -1.6560 H   0  0  0  0  0  0  0  0  0  0  0  0
   13.6240    2.5580   -0.0280 H   0  0  0  0  0  0  0  0  0  0  0  0
   14.2420    1.1790   -0.9390 H   0  0  0  0  0  0  0  0  0  0  0  0
   10.4910    3.0630   -2.0970 H   0  0  0  0  0  0  0  0  0  0  0  0
   11.3980    3.6710   -0.7130 H   0  0  0  0  0  0  0  0  0  0  0  0
   12.0110    3.9380   -2.3510 H   0  0  0  0  0  0  0  0  0  0  0  0
   12.8220   -1.4020   -3.6270 H   0  0  0  0  0  0  0  0  0  0  0  0
    5.8980    0.1590   -1.2050 H   0  0  0  0  0  0  0  0  0  0  0  0
    5.3500   -1.4910   -0.9540 H   0  0  0  0  0  0  0  0  0  0  0  0
    6.2360    0.1160    3.5790 H   0  0  0  0  0  0  0  0  0  0  0  0
    6.7990    1.7710    3.3720 H   0  0  0  0  0  0  0  0  0  0  0  0
    4.3930    1.7700    4.0000 H   0  0  0  0  0  0  0  0  0  0  0  0
    4.6210    2.4880    2.4140 H   0  0  0  0  0  0  0  0  0  0  0  0
   -2.6350   -0.2100    2.1640 H   0  0  0  0  0  0  0  0  0  0  0  0
   -2.4110    1.3830    1.4560 H   0  0  0  0  0  0  0  0  0  0  0  0
   -1.3470   -1.3540   -1.8540 H   0  0  0  0  0  0  0  0  0  0  0  0
   -1.1940   -2.8060   -0.8830 H   0  0  0  0  0  0  0  0  0  0  0  0
   -3.7220   -1.6330   -2.3280 H   0  0  0  0  0  0  0  0  0  0  0  0
   -3.6350   -3.1920   -1.5350 H   0  0  0  0  0  0  0  0  0  0  0  0
   -5.9980   -2.3830   -1.6220 H   0  0  0  0  0  0  0  0  0  0  0  0
   -5.4700   -2.5790    0.0430 H   0  0  0  0  0  0  0  0  0  0  0  0
   -4.3450    1.8530    1.6510 H   0  0  0  0  0  0  0  0  0  0  0  0
   -4.7570    2.1790   -0.0130 H   0  0  0  0  0  0  0  0  0  0  0  0
   -7.8650   -2.2770    0.0860 H   0  0  0  0  0  0  0  0  0  0  0  0
  -13.0050   -1.7920    0.7640 H   0  0  0  0  0  0  0  0  0  0  0  0
  -14.2480   -0.6350    0.3250 H   0  0  0  0  0  0  0  0  0  0  0  0
  -13.5480   -2.9640   -1.6460 H   0  0  0  0  0  0  0  0  0  0  0  0
  -12.2350   -2.5170   -2.7490 H   0  0  0  0  0  0  0  0  0  0  0  0
  -11.8610   -2.9780   -1.0900 H   0  0  0  0  0  0  0  0  0  0  0  0
  -14.7480   -0.6400   -2.0860 H   0  0  0  0  0  0  0  0  0  0  0  0
  -13.8020    0.8530   -1.8520 H   0  0  0  0  0  0  0  0  0  0  0  0
  -13.3840    0.5020   -3.9280 H   0  0  0  0  0  0  0  0  0  0  0  0
  -12.6510   -0.0650    2.5720 H   0  0  0  0  0  0  0  0  0  0  0  0
   -9.9310    3.4260   -0.4400 H   0  0  0  0  0  0  0  0  0  0  0  0
  -11.4940    2.7590   -0.9160 H   0  0  0  0  0  0  0  0  0  0  0  0
  -11.0410    2.8600    0.7900 H   0  0  0  0  0  0  0  0  0  0  0  0
   -9.8740    1.4730    2.2530 H   0  0  0  0  0  0  0  0  0  0  0  0
   -6.3450    2.0770   -1.4980 H   0  0  0  0  0  0  0  0  0  0  0  0
   -8.0050    1.6500   -1.8790 H   0  0  0  0  0  0  0  0  0  0  0  0
   -7.6530    3.0500   -0.8480 H   0  0  0  0  0  0  0  0  0  0  0  0
   -7.1920    3.1240    2.2680 H   0  0  0  0  0  0  0  0  0  0  0  0
   -1.7870    1.0250   -1.2390 H   0  0  0  0  0  0  0  0  0  0  0  0
   -3.1760    0.4020   -2.1130 H   0  0  0  0  0  0  0  0  0  0  0  0
   -3.3510    1.8000   -1.0590 H   0  0  0  0  0  0  0  0  0  0  0  0
    1.9700    1.0710    3.5000 H   0  0  0  0  0  0  0  0  0  0  0  0
    2.2820    2.1160    2.1260 H   0  0  0  0  0  0  0  0  0  0  0  0
    3.4260   -4.1220    1.4300 H   0  0  0  0  0  0  0  0  0  0  0  0
    2.0610   -3.5080    0.4510 H   0  0  0  0  0  0  0  0  0  0  0  0
    3.7040   -3.5870   -0.2550 H   0  0  0  0  0  0  0  0  0  0  0  0
    4.2320    2.2630    0.4520 H   0  0  0  0  0  0  0  0  0  0  0  0
    4.4920    1.2150   -0.9370 H   0  0  0  0  0  0  0  0  0  0  0  0
    2.8750    1.4540   -0.3050 H   0  0  0  0  0  0  0  0  0  0  0  0
  1 85  1  0
  1  2  1  0
  1 83  1  0
  1 84  1  0
  2 12  1  0
  2  3  1  6
  2  4  1  0
  4  9  1  0
  4  5  1  1
  4  6  1  0
  6 87  1  0
  6  7  1  0
  6 86  1  0
  7  8  2  0
  7 88  1  0
  8 26  1  0
  9  8  1  0
  9 10  1  0
  9 21  1  6
 10 11  1  0
 10 89  1  0
 10 90  1  0
 12 11  1  6
 12 13  1  0
 12 17  1  0
 13 14  1  6
 13 15  1  0
 13 20  1  0
 15 92  1  0
 15 91  1  0
 15 16  1  0
 16 19  1  6
 16 18  1  0
 16 17  1  0
 18 93  1  0
 18 95  1  0
 18 94  1  0
 19 98  1  0
 19 96  1  0
 19 97  1  0
 20 99  1  0
 21 22  2  0
 21 23  1  0
 23100  1  0
 23101  1  0
 23 24  1  0
 24 32  1  0
 24 26  1  0
 24 25  1  1
 26 27  1  6
 26 28  1  0
 28 29  1  0
 28103  1  0
 28102  1  0
 29 30  1  0
 29105  1  0
 29104  1  0
 30 32  1  0
 30 79  1  0
 30 31  1  1
 32 82  1  6
 32 33  1  0
 33 34  1  6
 33 35  1  0
 33 80  1  0
 35 36  2  0
 35 78  1  0
 36 37  1  0
 37 43  1  0
 37 38  2  0
 38 39  1  0
 38 77  1  0
 39 40  1  0
 39107  1  0
 39106  1  0
 40 76  1  6
 40 41  1  0
 40 48  1  0
 41 44  1  0
 41 43  1  0
 41 42  1  1
 43108  1  0
 43109  1  0
 44110  1  0
 44111  1  0
 44 45  1  0
 45112  1  0
 45 46  1  0
 45113  1  0
 46 47  1  6
 46 54  1  0
 46 48  1  0
 48 50  1  0
 48 49  1  1
 50115  1  0
 50 51  1  0
 50114  1  0
 51 53  1  0
 51 75  1  0
 51 52  1  1
 53 74  1  6
 53 54  1  0
 53 58  1  0
 54 55  2  0
 55116  1  0
 55 56  1  0
 56 62  1  0
 56 58  1  0
 56 57  1  1
 58 59  1  0
 58 73  1  1
 59 60  1  6
 59 72  1  0
 59 61  1  0
 61 67  1  6
 61 62  1  0
 61 63  1  0
 63 65  1  0
 63 64  1  1
 63 71  1  0
 65 66  1  0
 65118  1  0
 65117  1  0
 66 69  1  6
 66 68  1  0
 66 67  1  0
 68120  1  0
 68119  1  0
 68121  1  0
 69 70  1  0
 69122  1  0
 69123  1  0
 70124  1  0
 71125  1  0
 72127  1  0
 72126  1  0
 72128  1  0
 73129  1  0
 74131  1  0
 74130  1  0
 74132  1  0
 75133  1  0
 76135  1  0
 76134  1  0
 76136  1  0
 77 78  2  0
 78 79  1  0
 79138  1  0
 79137  1  0
 80 81  1  0
 81141  1  0
 81140  1  0
 81139  1  0
 82143  1  0
 82144  1  0
 82142  1  0
M  END
>  <id>  (345) 
447

>  <scaffolds>  (345) 
['O=C1CC2C(CCC3Cc4nc5c(nc4CC32)CC2CCC3C4=CC6OC7(CCCO7)CC6C4CCC3C2C5)C2=CCC3CC4(CCCO4)OCC123', 'C1CCOCC1', 'C1CCCCC1', 'C=C1CCCC2CCCCC12', 'O=C1CC2C(CCC3Cc4nc5c(nc4CC32)CC2CCC3C4=CC6OC7(CCCO7)CC6C4CCC3C2C5)C2=CCC3CCOCC123', 'C1CCC2CCCCC2C1']

>  <name>  (345) 
Cephalostatin 19

>  <formula>  (345) 
C55H76N2O11

>  <SMILES>  (345) 
C[C@H]1[C@H]2CC=C3[C@]2(CO[C@]14[C@@H](CC(O4)(C)C)O)C(=O)C[C@H]5[C@H]3CC[C@@H]6[C@@]5([C@H](C7=NC8=C(C[C@]9([C@H](C8)CC[C@@H]1[C@@H]9C[C@H]([C@]2(C1=C[C@H]1[C@@]2([C@@H]([C@@]2(O1)[C@@H](C[C@@](O2)(C)CO)O)C)O)C)O)C)N=C7C6)OC)C

>  <ChEMBL_id>  (345) 
CHEMBL445707

>  <ZINC_id>  (345) 


>  <PubChem_id>  (345) 
 10748407

>  <DrugBank_id>  (345) 


>  <CAS_no>  (345) 
211050-19-0

>  <references>  (345) 
[{'journal': {'name': 'Journal of Natural Products', 'id': 5}, 'title': 'Antineoplastic Agents. 398. Isolation and Structure Elucidation of Cephalostatins 18 and 19', 'year': 1998, 'start_page': 955, 'volume': 61, 'issue': 7, 'doi': '10.1021/np9800405', 'isbn': '', 'despositor': {'code': 'TMM', 'first_name': 'Thommas', 'last_name': 'Musyoka', 'id': 22}, 'refauthors_set': [{'author': {'first_name': 'George', 'initials': 'GR', 'last_name': 'Pettit', 'id': 478}, 'first_author': True, 'id': 1051}, {'author': {'first_name': '', 'initials': 'R', 'last_name': 'Tan', 'id': 679}, 'first_author': None, 'id': 1052}, {'author': {'first_name': '', 'initials': 'J', 'last_name': 'Xu', 'id': 680}, 'first_author': None, 'id': 1053}, {'author': {'first_name': '', 'initials': 'Y', 'last_name': 'Ichihara', 'id': 681}, 'first_author': None, 'id': 1054}, {'author': {'first_name': 'Michael', 'initials': 'D', 'last_name': 'Williams', 'id': 682}, 'first_author': None, 'id': 1055}, {'author': {'first_name': 'Michael', 'initials': 'R', 'last_name': 'Boyd', 'id': 683}, 'first_author': None, 'id': 1056}], 'id': 317}]

>  <classifications>  (345) 
[{'classification': 'Alkaloid', 'id': 738}, {'classification': 'Cephalostatin', 'id': 759}, {'classification': 'Steroid', 'id': 835}, {'classification': 'Steroids and steroid derivatives (Classyfire)', 'id': 942}]

>  <molecular_mass>  (345) 
941.2

$$$$
SANC00448_minRM1.pdb
     RDKit          3D

138150  0  0  1  0  0  0  0  0999 V2000
  -10.3430   -1.2150    1.9000 C   0  0  0  0  0  0  0  0  0  0  0  0
   -9.6300   -0.2400    0.9850 C   0  0  2  0  0  0  0  0  0  0  0  0
   -9.2200    0.5990    1.6110 H   0  0  0  0  0  0  0  0  0  0  0  0
  -10.5390    0.3800   -0.0990 C   0  0  2  0  0  0  0  0  0  0  0  0
  -11.1360    1.5470    0.3870 O   0  0  0  0  0  0  0  0  0  0  0  0
  -12.3070    1.8310   -0.3510 C   0  0  2  0  0  0  0  0  0  0  0  0
  -11.9760    2.7690   -1.5080 C   0  0  0  0  0  0  0  0  0  0  0  0
  -13.2950    2.4840    0.6440 C   0  0  0  0  0  0  0  0  0  0  0  0
  -12.8400    3.7640    0.9560 O   0  0  0  0  0  0  0  0  0  0  0  0
  -12.8530    0.4810   -0.8700 C   0  0  0  0  0  0  0  0  0  0  0  0
  -11.6900   -0.5090   -0.6690 C   0  0  1  0  0  0  0  0  0  0  0  0
  -11.9730   -1.3300    0.0530 H   0  0  0  0  0  0  0  0  0  0  0  0
  -11.1950   -1.0850   -1.8360 O   0  0  0  0  0  0  0  0  0  0  0  0
   -9.7040    0.7960   -1.1480 O   0  0  0  0  0  0  0  0  0  0  0  0
   -8.5490   -0.0060   -1.1760 C   0  0  1  0  0  0  0  0  0  0  0  0
   -8.5850   -0.6220   -2.1090 H   0  0  0  0  0  0  0  0  0  0  0  0
   -7.3050    0.8310   -1.1460 C   0  0  0  0  0  0  0  0  0  0  0  0
   -6.4660    0.4290   -0.1910 C   0  0  0  0  0  0  0  0  0  0  0  0
   -5.0520    0.8340    0.0380 C   0  0  2  0  0  0  0  0  0  0  0  0
   -4.9620    1.2310    1.0820 H   0  0  0  0  0  0  0  0  0  0  0  0
   -4.5840    1.9130   -0.9370 C   0  0  0  0  0  0  0  0  0  0  0  0
   -3.1240    2.2650   -0.6700 C   0  0  0  0  0  0  0  0  0  0  0  0
   -2.2290    1.0320   -0.8020 C   0  0  1  0  0  0  0  0  0  0  0  0
   -2.2870    0.6660   -1.8610 H   0  0  0  0  0  0  0  0  0  0  0  0
   -0.7740    1.4170   -0.5070 C   0  0  0  0  0  0  0  0  0  0  0  0
    0.1160    0.2190   -0.4030 C   0  0  0  0  0  0  0  0  0  0  0  0
    1.4550    0.4390   -0.4500 N   0  0  0  0  0  0  0  0  0  0  0  0
    2.2630   -0.6430   -0.3260 C   0  0  0  0  0  0  0  0  0  0  0  0
    3.7400   -0.3980   -0.4020 C   0  0  0  0  0  0  0  0  0  0  0  0
    4.5410   -1.5610    0.2120 C   0  0  2  0  0  0  0  0  0  0  0  0
    4.3480   -1.5560    1.7300 C   0  0  0  0  0  0  0  0  0  0  0  0
    6.0190   -1.3860   -0.0420 C   0  0  0  0  0  0  0  0  0  0  0  0
    6.5620   -0.1220    0.1950 C   0  0  0  0  0  0  0  0  0  0  0  0
    7.9390    0.0700    0.0530 C   0  0  0  0  0  0  0  0  0  0  0  0
    8.4750    1.2710    0.4180 O   0  0  0  0  0  0  0  0  0  0  0  0
    9.8740    1.3860    0.3450 C   0  0  1  0  0  0  0  0  0  0  0  0
   10.1240    1.8860   -0.9410 O   0  0  0  0  0  0  0  0  0  0  0  0
   10.7790    3.1420   -0.8970 C   0  0  2  0  0  0  0  0  0  0  0  0
    9.7740    4.2030   -1.3380 C   0  0  0  0  0  0  0  0  0  0  0  0
   11.9410    3.0610   -1.8890 C   0  0  0  0  0  0  0  0  0  0  0  0
   11.2850    3.3310    0.5520 C   0  0  1  0  0  0  0  0  0  0  0  0
   12.3040    2.8770    0.6500 H   0  0  0  0  0  0  0  0  0  0  0  0
   11.3740    4.7740    0.9980 C   0  0  0  0  0  0  0  0  0  0  0  0
   10.3000    2.4770    1.3780 C   0  0  1  0  0  0  0  0  0  0  0  0
   10.7940    2.0180    2.2750 H   0  0  0  0  0  0  0  0  0  0  0  0
    9.1520    3.1870    1.7150 O   0  0  0  0  0  0  0  0  0  0  0  0
   10.6970    0.0750    0.5100 C   0  0  1  0  0  0  0  0  0  0  0  0
   11.7740    0.3110    0.3200 H   0  0  0  0  0  0  0  0  0  0  0  0
   10.5420   -0.4760    1.9170 C   0  0  0  0  0  0  0  0  0  0  0  0
   10.1890   -0.9090   -0.5440 C   0  0  1  0  0  0  0  0  0  0  0  0
   10.4350   -0.5250   -1.5680 H   0  0  0  0  0  0  0  0  0  0  0  0
   10.6300   -2.3750   -0.4290 C   0  0  0  0  0  0  0  0  0  0  0  0
    9.3460   -3.2140   -0.7410 C   0  0  1  0  0  0  0  0  0  0  0  0
    9.3430   -3.5680   -1.8050 H   0  0  0  0  0  0  0  0  0  0  0  0
    9.2250   -4.2740    0.1570 O   0  0  0  0  0  0  0  0  0  0  0  0
    8.2010   -2.2620   -0.5070 C   0  0  0  0  0  0  0  0  0  0  0  0
    8.7220   -0.9870   -0.3570 C   0  0  0  0  0  0  0  0  0  0  0  0
    6.8370   -2.4760   -0.3900 C   0  0  0  0  0  0  0  0  0  0  0  0
    6.2890   -3.8310   -0.6700 C   0  0  0  0  0  0  0  0  0  0  0  0
    4.9170   -4.0300   -0.0470 C   0  0  0  0  0  0  0  0  0  0  0  0
    4.0250   -2.8560   -0.4290 C   0  0  1  0  0  0  0  0  0  0  0  0
    4.0460   -2.7340   -1.5440 H   0  0  0  0  0  0  0  0  0  0  0  0
    2.5900   -3.1480   -0.0030 C   0  0  0  0  0  0  0  0  0  0  0  0
    1.7290   -1.9380   -0.1570 C   0  0  0  0  0  0  0  0  0  0  0  0
    0.3950   -2.1580   -0.1080 N   0  0  0  0  0  0  0  0  0  0  0  0
   -0.4100   -1.0760   -0.2320 C   0  0  0  0  0  0  0  0  0  0  0  0
   -1.8760   -1.3510   -0.2130 C   0  0  0  0  0  0  0  0  0  0  0  0
   -2.6940   -0.0970    0.1300 C   0  0  1  0  0  0  0  0  0  0  0  0
   -2.4690    0.2700    1.5940 C   0  0  0  0  0  0  0  0  0  0  0  0
   -4.1790   -0.4160   -0.1480 C   0  0  1  0  0  0  0  0  0  0  0  0
   -4.2770   -0.7440   -1.2180 H   0  0  0  0  0  0  0  0  0  0  0  0
   -4.6630   -1.5560    0.7480 C   0  0  0  0  0  0  0  0  0  0  0  0
   -6.1320   -1.9050    0.4610 C   0  0  1  0  0  0  0  0  0  0  0  0
   -6.2270   -2.2480   -0.6060 H   0  0  0  0  0  0  0  0  0  0  0  0
   -6.4530   -2.9100    1.3780 O   0  0  0  0  0  0  0  0  0  0  0  0
   -7.0300   -0.6640    0.6850 C   0  0  1  0  0  0  0  0  0  0  0  0
   -7.0130   -0.2580    2.1500 C   0  0  0  0  0  0  0  0  0  0  0  0
   -8.4840   -0.8550    0.1440 C   0  0  1  0  0  0  0  0  0  0  0  0
   -8.6790   -2.2070   -0.0900 O   0  0  0  0  0  0  0  0  0  0  0  0
   -9.6350   -1.8070    2.4980 H   0  0  0  0  0  0  0  0  0  0  0  0
  -11.0060   -0.6930    2.6040 H   0  0  0  0  0  0  0  0  0  0  0  0
  -10.9740   -1.9430    1.3620 H   0  0  0  0  0  0  0  0  0  0  0  0
  -11.3540    2.2840   -2.2750 H   0  0  0  0  0  0  0  0  0  0  0  0
  -12.8890    3.1310   -2.0050 H   0  0  0  0  0  0  0  0  0  0  0  0
  -11.4190    3.6560   -1.1660 H   0  0  0  0  0  0  0  0  0  0  0  0
  -14.2940    2.5960    0.1600 H   0  0  0  0  0  0  0  0  0  0  0  0
  -13.4520    1.8280    1.5320 H   0  0  0  0  0  0  0  0  0  0  0  0
  -12.6960    3.8010    1.9130 H   0  0  0  0  0  0  0  0  0  0  0  0
  -13.7570    0.1490   -0.3200 H   0  0  0  0  0  0  0  0  0  0  0  0
  -13.1940    0.5570   -1.9220 H   0  0  0  0  0  0  0  0  0  0  0  0
  -11.9340   -1.2670   -2.4230 H   0  0  0  0  0  0  0  0  0  0  0  0
   -7.1740    1.6280   -1.8720 H   0  0  0  0  0  0  0  0  0  0  0  0
   -4.7140    1.5870   -1.9900 H   0  0  0  0  0  0  0  0  0  0  0  0
   -5.2170    2.8200   -0.8430 H   0  0  0  0  0  0  0  0  0  0  0  0
   -2.7890    3.0540   -1.3770 H   0  0  0  0  0  0  0  0  0  0  0  0
   -3.0200    2.7360    0.3300 H   0  0  0  0  0  0  0  0  0  0  0  0
   -0.4000    2.1120   -1.2920 H   0  0  0  0  0  0  0  0  0  0  0  0
   -0.6890    2.0040    0.4350 H   0  0  0  0  0  0  0  0  0  0  0  0
    4.0280   -0.2440   -1.4650 H   0  0  0  0  0  0  0  0  0  0  0  0
    4.0030    0.5630    0.0950 H   0  0  0  0  0  0  0  0  0  0  0  0
    3.2960   -1.4630    2.0330 H   0  0  0  0  0  0  0  0  0  0  0  0
    4.7380   -2.4680    2.2020 H   0  0  0  0  0  0  0  0  0  0  0  0
    4.8680   -0.7160    2.2140 H   0  0  0  0  0  0  0  0  0  0  0  0
    5.9340    0.7190    0.5070 H   0  0  0  0  0  0  0  0  0  0  0  0
    8.9410    4.3040   -0.6270 H   0  0  0  0  0  0  0  0  0  0  0  0
   10.2410    5.1910   -1.4540 H   0  0  0  0  0  0  0  0  0  0  0  0
    9.3230    3.9500   -2.3090 H   0  0  0  0  0  0  0  0  0  0  0  0
   11.5900    2.9170   -2.9210 H   0  0  0  0  0  0  0  0  0  0  0  0
   12.5390    3.9830   -1.8740 H   0  0  0  0  0  0  0  0  0  0  0  0
   12.6220    2.2240   -1.6770 H   0  0  0  0  0  0  0  0  0  0  0  0
   10.4040    5.2860    1.0460 H   0  0  0  0  0  0  0  0  0  0  0  0
   11.8210    4.8570    2.0000 H   0  0  0  0  0  0  0  0  0  0  0  0
   12.0060    5.3610    0.3180 H   0  0  0  0  0  0  0  0  0  0  0  0
    9.3130    3.5710    2.5800 H   0  0  0  0  0  0  0  0  0  0  0  0
    9.4950   -0.6590    2.1970 H   0  0  0  0  0  0  0  0  0  0  0  0
   11.0680   -1.4390    2.0280 H   0  0  0  0  0  0  0  0  0  0  0  0
   10.9570    0.2100    2.6730 H   0  0  0  0  0  0  0  0  0  0  0  0
   11.4570   -2.6220   -1.1190 H   0  0  0  0  0  0  0  0  0  0  0  0
   11.0220   -2.5970    0.5860 H   0  0  0  0  0  0  0  0  0  0  0  0
    9.9580   -4.8730   -0.0150 H   0  0  0  0  0  0  0  0  0  0  0  0
    6.2450   -3.9680   -1.7750 H   0  0  0  0  0  0  0  0  0  0  0  0
    6.9630   -4.6380   -0.3190 H   0  0  0  0  0  0  0  0  0  0  0  0
    4.4760   -4.9910   -0.3870 H   0  0  0  0  0  0  0  0  0  0  0  0
    4.9990   -4.1370    1.0560 H   0  0  0  0  0  0  0  0  0  0  0  0
    2.1800   -3.9960   -0.5980 H   0  0  0  0  0  0  0  0  0  0  0  0
    2.5360   -3.5120    1.0470 H   0  0  0  0  0  0  0  0  0  0  0  0
   -2.1610   -1.7580   -1.2100 H   0  0  0  0  0  0  0  0  0  0  0  0
   -2.1150   -2.1760    0.4970 H   0  0  0  0  0  0  0  0  0  0  0  0
   -1.4370    0.0930    1.9230 H   0  0  0  0  0  0  0  0  0  0  0  0
   -2.6810    1.3250    1.8160 H   0  0  0  0  0  0  0  0  0  0  0  0
   -3.1060   -0.3170    2.2760 H   0  0  0  0  0  0  0  0  0  0  0  0
   -4.0420   -2.4660    0.5960 H   0  0  0  0  0  0  0  0  0  0  0  0
   -4.5130   -1.3090    1.8230 H   0  0  0  0  0  0  0  0  0  0  0  0
   -7.0800   -3.5200    0.9420 H   0  0  0  0  0  0  0  0  0  0  0  0
   -5.9980   -0.0890    2.5370 H   0  0  0  0  0  0  0  0  0  0  0  0
   -7.5730    0.6740    2.3270 H   0  0  0  0  0  0  0  0  0  0  0  0
   -7.4530   -1.0320    2.7950 H   0  0  0  0  0  0  0  0  0  0  0  0
   -9.5020   -2.3190   -0.5740 H   0  0  0  0  0  0  0  0  0  0  0  0
  1  2  1  0
  1 82  1  0
  1 80  1  0
  1 81  1  0
  2  4  1  0
  2 78  1  0
  2  3  1  1
  4 14  1  6
  4 11  1  0
  4  5  1  0
  5  6  1  0
  6  7  1  6
  6 10  1  0
  6  8  1  0
  7 83  1  0
  7 84  1  0
  7 85  1  0
  8 86  1  0
  8  9  1  0
  8 87  1  0
  9 88  1  0
 10 90  1  0
 10 11  1  0
 10 89  1  0
 11 13  1  0
 11 12  1  1
 13 91  1  0
 14 15  1  0
 15 16  1  6
 15 17  1  0
 15 78  1  0
 17 92  1  0
 17 18  2  0
 18 19  1  0
 18 76  1  0
 19 21  1  0
 19 70  1  0
 19 20  1  1
 21 93  1  0
 21 94  1  0
 21 22  1  0
 22 95  1  0
 22 23  1  0
 22 96  1  0
 23 24  1  6
 23 25  1  0
 23 68  1  0
 25 97  1  0
 25 26  1  0
 25 98  1  0
 26 27  2  0
 26 66  1  0
 27 28  1  0
 28 29  1  0
 28 64  2  0
 29 99  1  0
 29100  1  0
 29 30  1  0
 30 61  1  0
 30 32  1  0
 30 31  1  1
 31101  1  0
 31102  1  0
 31103  1  0
 32 58  2  0
 32 33  1  0
 33 34  2  0
 33104  1  0
 34 57  1  0
 34 35  1  0
 36 35  1  6
 36 37  1  0
 36 47  1  0
 36 44  1  0
 37 38  1  0
 38 40  1  6
 38 39  1  0
 38 41  1  0
 39107  1  0
 39106  1  0
 39105  1  0
 40108  1  0
 40109  1  0
 40110  1  0
 41 42  1  6
 41 43  1  0
 41 44  1  0
 43113  1  0
 43111  1  0
 43112  1  0
 44 46  1  0
 44 45  1  1
 46114  1  0
 47 50  1  0
 47 48  1  6
 47 49  1  0
 49116  1  0
 49115  1  0
 49117  1  0
 50 51  1  6
 50 52  1  0
 50 57  1  0
 52118  1  0
 52 53  1  0
 52119  1  0
 53 54  1  6
 53 56  1  0
 53 55  1  0
 55120  1  0
 56 58  1  0
 56 57  2  0
 58 59  1  0
 59121  1  0
 59122  1  0
 59 60  1  0
 60 61  1  0
 60123  1  0
 60124  1  0
 61 62  1  6
 61 63  1  0
 63125  1  0
 63 64  1  0
 63126  1  0
 64 65  1  0
 65 66  2  0
 66 67  1  0
 67127  1  0
 67 68  1  0
 67128  1  0
 68 70  1  0
 68 69  1  1
 69130  1  0
 69129  1  0
 69131  1  0
 70 71  1  6
 70 72  1  0
 72 73  1  0
 72132  1  0
 72133  1  0
 73 74  1  6
 73 76  1  0
 73 75  1  0
 75134  1  0
 76 78  1  0
 76 77  1  1
 77136  1  0
 77135  1  0
 77137  1  0
 78 79  1  6
 79138  1  0
M  END
>  <id>  (346) 
448

>  <scaffolds>  (346) 
['c1ccccc1', 'C1CCCCC1', 'C=C1CCCC2CCCCC12', 'C1=C2C(CCC3C2CCC2Cc4nc5c(nc4CC23)CC2CCc3c(cc4c6c3CCC6CC3(CCCO3)O4)C2C5)C2CC3(CCCO3)OC12', 'c1ccc2c(c1)CCCC2', 'C1CCC2CCCCC2C1']

>  <name>  (346) 
Cephalostatin 5

>  <formula>  (346) 
C54H72N2O10

>  <SMILES>  (346) 
C[C@@H]6[C@@]1(O[C@](C)(CO)C[C@H]1O)O[C@H]7/C=C5/[C@@H]8CC[C@H]9Cc%10nc%11C[C@]%12(C)c%13cc4OC2(O[C@](C)(C)[C@@H](C)[C@H]2O)[C@@H](C)[C@H]3C[C@@H](O)c(c34)c%13CC[C@H]%12Cc%11nc%10C[C@]9(C)[C@H]8C[C@@H](O)[C@]5(C)[C@@]67O

>  <ChEMBL_id>  (346) 


>  <ZINC_id>  (346) 


>  <PubChem_id>  (346) 


>  <DrugBank_id>  (346) 


>  <CAS_no>  (346) 
121071-11-2

>  <references>  (346) 
[{'journal': {'name': 'Canadian Journal of Chemistry', 'id': 30}, 'title': 'Isolation and structure of the unusual Indian Ocean Cephalodiscus gilchristi components, cephalostatins 5 and 6', 'year': 1989, 'start_page': 1509, 'volume': 67, 'issue': 10, 'doi': '10.1139/v89-231', 'isbn': '', 'despositor': {'code': 'TMM', 'first_name': 'Thommas', 'last_name': 'Musyoka', 'id': 22}, 'refauthors_set': [{'author': {'first_name': 'George', 'initials': 'GR', 'last_name': 'Pettit', 'id': 478}, 'first_author': True, 'id': 939}, {'author': {'first_name': '', 'initials': 'Y', 'last_name': 'Kamano', 'id': 507}, 'first_author': False, 'id': 940}, {'author': {'first_name': '', 'initials': 'D', 'last_name': 'Claude', 'id': 510}, 'first_author': False, 'id': 941}, {'author': {'first_name': '', 'initials': 'I', 'last_name': 'Masuo', 'id': 506}, 'first_author': False, 'id': 942}, {'author': {'first_name': '', 'initials': 'DC', 'last_name': 'Nigel', 'id': 502}, 'first_author': False, 'id': 943}, {'author': {'first_name': '', 'initials': 'MS', 'last_name': 'Jean', 'id': 499}, 'first_author': False, 'id': 944}, {'author': {'first_name': '', 'initials': 'LD', 'last_name': 'Dennis', 'id': 511}, 'first_author': False, 'id': 945}], 'id': 318}]

>  <classifications>  (346) 
[{'classification': 'Alkaloid', 'id': 738}, {'classification': 'Cephalostatin', 'id': 759}, {'classification': 'Steroid', 'id': 835}, {'classification': 'Steroids and steroid derivatives (Classyfire)', 'id': 942}]

>  <molecular_mass>  (346) 
909.15

$$$$
SANC00449_minRM1.pdb
     RDKit          3D

135147  0  0  1  0  0  0  0  0999 V2000
    9.9850    0.1080   -1.9970 C   0  0  0  0  0  0  0  0  0  0  0  0
   10.2010   -0.2000   -0.5230 C   0  0  1  0  0  0  0  0  0  0  0  0
    9.7100    0.9400    0.3690 C   0  0  1  0  0  0  0  0  0  0  0  0
   10.1280    2.3750    0.0160 C   0  0  0  0  0  0  0  0  0  0  0  0
    8.8600    3.2460    0.3120 C   0  0  1  0  0  0  0  0  0  0  0  0
    8.6860    4.2280   -0.6620 O   0  0  0  0  0  0  0  0  0  0  0  0
    7.7110    2.2750    0.2250 C   0  0  0  0  0  0  0  0  0  0  0  0
    6.3400    2.4700    0.1380 C   0  0  0  0  0  0  0  0  0  0  0  0
    5.7880    3.8470    0.2580 C   0  0  0  0  0  0  0  0  0  0  0  0
    4.3310    3.9340   -0.1720 C   0  0  0  0  0  0  0  0  0  0  0  0
    3.5470    2.7960    0.4700 C   0  0  1  0  0  0  0  0  0  0  0  0
    2.0510    3.0000    0.2450 C   0  0  0  0  0  0  0  0  0  0  0  0
    1.2670    1.7780    0.6000 C   0  0  0  0  0  0  0  0  0  0  0  0
   -0.0740    1.9390    0.7160 N   0  0  0  0  0  0  0  0  0  0  0  0
   -0.7990    0.8260    0.9770 C   0  0  0  0  0  0  0  0  0  0  0  0
   -2.2710    0.9870    1.1470 C   0  0  0  0  0  0  0  0  0  0  0  0
   -3.0190   -0.2510    0.6250 C   0  0  1  0  0  0  0  0  0  0  0  0
   -2.6770   -0.4230   -0.8590 C   0  0  0  0  0  0  0  0  0  0  0  0
   -2.5150   -1.4570    1.4300 C   0  0  1  0  0  0  0  0  0  0  0  0
   -3.2220   -2.7480    1.0130 C   0  0  0  0  0  0  0  0  0  0  0  0
   -4.7270   -2.5830    0.8170 C   0  0  0  0  0  0  0  0  0  0  0  0
   -5.2310   -1.2890    1.4420 C   0  0  2  0  0  0  0  0  0  0  0  0
   -6.7020   -1.1170    1.2910 C   0  0  0  0  0  0  0  0  0  0  0  0
   -7.5720   -1.9390    0.7070 C   0  0  0  0  0  0  0  0  0  0  0  0
   -8.9650   -1.3880    0.7220 C   0  0  2  0  0  0  0  0  0  0  0  0
   -9.4750   -1.2810   -0.5840 O   0  0  0  0  0  0  0  0  0  0  0  0
   -9.1650   -0.0130   -1.0880 C   0  0  1  0  0  0  0  0  0  0  0  0
   -7.8560   -0.0940   -1.5920 O   0  0  0  0  0  0  0  0  0  0  0  0
   -7.8620   -0.5400   -2.9340 C   0  0  1  0  0  0  0  0  0  0  0  0
   -6.9230    0.3820   -3.7040 C   0  0  0  0  0  0  0  0  0  0  0  0
   -7.3330   -1.9930   -2.9220 C   0  0  0  0  0  0  0  0  0  0  0  0
   -7.3270   -2.4040   -4.2540 O   0  0  0  0  0  0  0  0  0  0  0  0
   -9.3130   -0.4590   -3.4460 C   0  0  0  0  0  0  0  0  0  0  0  0
  -10.0610    0.2740   -2.3200 C   0  0  1  0  0  0  0  0  0  0  0  0
  -11.3310   -0.2260   -2.0520 O   0  0  0  0  0  0  0  0  0  0  0  0
   -9.1740    0.9730    0.1000 C   0  0  1  0  0  0  0  0  0  0  0  0
  -10.5290    1.6520    0.2250 C   0  0  0  0  0  0  0  0  0  0  0  0
   -8.8170    0.0630    1.3110 C   0  0  1  0  0  0  0  0  0  0  0  0
   -9.6520    0.2630    2.3990 O   0  0  0  0  0  0  0  0  0  0  0  0
   -7.3380    0.1350    1.8490 C   0  0  1  0  0  0  0  0  0  0  0  0
   -7.2960    0.0640    3.3770 C   0  0  0  0  0  0  0  0  0  0  0  0
   -6.5440    1.3520    1.3350 C   0  0  1  0  0  0  0  0  0  0  0  0
   -6.9870    2.4530    2.0740 O   0  0  0  0  0  0  0  0  0  0  0  0
   -5.0220    1.1720    1.4980 C   0  0  0  0  0  0  0  0  0  0  0  0
   -4.5600   -0.0860    0.7560 C   0  0  1  0  0  0  0  0  0  0  0  0
   -1.0010   -1.6850    1.3080 C   0  0  0  0  0  0  0  0  0  0  0  0
   -0.1990   -0.4410    1.1090 C   0  0  0  0  0  0  0  0  0  0  0  0
    1.1450   -0.5960    1.0200 N   0  0  0  0  0  0  0  0  0  0  0  0
    1.8770    0.5170    0.7710 C   0  0  0  0  0  0  0  0  0  0  0  0
    3.3590    0.3400    0.7080 C   0  0  0  0  0  0  0  0  0  0  0  0
    4.0210    1.4590   -0.1120 C   0  0  1  0  0  0  0  0  0  0  0  0
    3.6370    1.3100   -1.5840 C   0  0  0  0  0  0  0  0  0  0  0  0
    5.5220    1.3400   -0.0230 C   0  0  0  0  0  0  0  0  0  0  0  0
    6.0660    0.0620   -0.1600 C   0  0  0  0  0  0  0  0  0  0  0  0
    7.4470   -0.1070   -0.0500 C   0  0  0  0  0  0  0  0  0  0  0  0
    7.9790   -1.3410   -0.2580 O   0  0  0  0  0  0  0  0  0  0  0  0
    9.3900   -1.4490   -0.1040 C   0  0  1  0  0  0  0  0  0  0  0  0
    9.7080   -2.4980   -0.9650 O   0  0  0  0  0  0  0  0  0  0  0  0
    9.5770   -3.7500   -0.3160 C   0  0  1  0  0  0  0  0  0  0  0  0
    8.3940   -4.4840   -0.9430 C   0  0  0  0  0  0  0  0  0  0  0  0
   10.8830   -4.5020   -0.5650 C   0  0  0  0  0  0  0  0  0  0  0  0
    9.3530   -3.4810    1.1860 C   0  0  0  0  0  0  0  0  0  0  0  0
    9.6110   -1.9730    1.3530 C   0  0  1  0  0  0  0  0  0  0  0  0
   10.9370   -1.7090    1.6900 O   0  0  0  0  0  0  0  0  0  0  0  0
    8.2360    0.9910    0.2180 C   0  0  0  0  0  0  0  0  0  0  0  0
    8.9230    0.1980   -2.2690 H   0  0  0  0  0  0  0  0  0  0  0  0
   10.4640    1.0590   -2.2810 H   0  0  0  0  0  0  0  0  0  0  0  0
   10.4070   -0.6710   -2.6470 H   0  0  0  0  0  0  0  0  0  0  0  0
   11.2880   -0.3940   -0.3510 H   0  0  0  0  0  0  0  0  0  0  0  0
    9.9900    0.7310    1.4330 H   0  0  0  0  0  0  0  0  0  0  0  0
   11.0060    2.7150    0.5930 H   0  0  0  0  0  0  0  0  0  0  0  0
   10.4310    2.4530   -1.0500 H   0  0  0  0  0  0  0  0  0  0  0  0
    8.9100    3.6910    1.3420 H   0  0  0  0  0  0  0  0  0  0  0  0
    9.4550    4.8040   -0.6250 H   0  0  0  0  0  0  0  0  0  0  0  0
    5.9040    4.1830    1.3130 H   0  0  0  0  0  0  0  0  0  0  0  0
    6.3800    4.5750   -0.3340 H   0  0  0  0  0  0  0  0  0  0  0  0
    3.9060    4.9200    0.1080 H   0  0  0  0  0  0  0  0  0  0  0  0
    4.2470    3.9000   -1.2810 H   0  0  0  0  0  0  0  0  0  0  0  0
    3.7440    2.7970    1.5740 H   0  0  0  0  0  0  0  0  0  0  0  0
    1.6950    3.8760    0.8320 H   0  0  0  0  0  0  0  0  0  0  0  0
    1.8330    3.2790   -0.8110 H   0  0  0  0  0  0  0  0  0  0  0  0
   -2.4600    1.1550    2.2320 H   0  0  0  0  0  0  0  0  0  0  0  0
   -2.6380    1.9120    0.6470 H   0  0  0  0  0  0  0  0  0  0  0  0
   -1.6140   -0.6260   -1.0480 H   0  0  0  0  0  0  0  0  0  0  0  0
   -3.2260   -1.2460   -1.3320 H   0  0  0  0  0  0  0  0  0  0  0  0
   -2.9100    0.4810   -1.4400 H   0  0  0  0  0  0  0  0  0  0  0  0
   -2.7370   -1.2580    2.5110 H   0  0  0  0  0  0  0  0  0  0  0  0
   -2.7800   -3.1620    0.0800 H   0  0  0  0  0  0  0  0  0  0  0  0
   -3.0110   -3.5370    1.7710 H   0  0  0  0  0  0  0  0  0  0  0  0
   -4.9840   -2.6130   -0.2630 H   0  0  0  0  0  0  0  0  0  0  0  0
   -5.2620   -3.4560    1.2500 H   0  0  0  0  0  0  0  0  0  0  0  0
   -4.9950   -1.3110    2.5380 H   0  0  0  0  0  0  0  0  0  0  0  0
   -7.3830   -2.8960    0.2270 H   0  0  0  0  0  0  0  0  0  0  0  0
   -9.6730   -2.0520    1.2730 H   0  0  0  0  0  0  0  0  0  0  0  0
   -5.9070    0.3800   -3.2810 H   0  0  0  0  0  0  0  0  0  0  0  0
   -6.8340    0.0750   -4.7550 H   0  0  0  0  0  0  0  0  0  0  0  0
   -7.2690    1.4240   -3.6900 H   0  0  0  0  0  0  0  0  0  0  0  0
   -6.3160   -2.0320   -2.4720 H   0  0  0  0  0  0  0  0  0  0  0  0
   -7.9730   -2.6360   -2.2810 H   0  0  0  0  0  0  0  0  0  0  0  0
   -7.0500   -3.3230   -4.2690 H   0  0  0  0  0  0  0  0  0  0  0  0
   -9.3850    0.0720   -4.4090 H   0  0  0  0  0  0  0  0  0  0  0  0
   -9.7360   -1.4600   -3.6450 H   0  0  0  0  0  0  0  0  0  0  0  0
  -10.0990    1.3770   -2.5290 H   0  0  0  0  0  0  0  0  0  0  0  0
  -11.8040   -0.2700   -2.8920 H   0  0  0  0  0  0  0  0  0  0  0  0
   -8.4120    1.7770   -0.0560 H   0  0  0  0  0  0  0  0  0  0  0  0
  -11.3710    0.9430    0.2300 H   0  0  0  0  0  0  0  0  0  0  0  0
  -10.5970    2.2590    1.1420 H   0  0  0  0  0  0  0  0  0  0  0  0
  -10.7210    2.3500   -0.6030 H   0  0  0  0  0  0  0  0  0  0  0  0
  -10.5430   -0.0030    2.1540 H   0  0  0  0  0  0  0  0  0  0  0  0
   -7.7790   -0.8470    3.7590 H   0  0  0  0  0  0  0  0  0  0  0  0
   -6.2710    0.0660    3.7730 H   0  0  0  0  0  0  0  0  0  0  0  0
   -7.8020    0.9180    3.8560 H   0  0  0  0  0  0  0  0  0  0  0  0
   -6.7560    1.5090    0.2370 H   0  0  0  0  0  0  0  0  0  0  0  0
   -6.5450    3.2360    1.7320 H   0  0  0  0  0  0  0  0  0  0  0  0
   -4.5180    2.0760    1.0910 H   0  0  0  0  0  0  0  0  0  0  0  0
   -4.7390    1.1480    2.5700 H   0  0  0  0  0  0  0  0  0  0  0  0
   -4.9840   -0.0200   -0.2840 H   0  0  0  0  0  0  0  0  0  0  0  0
   -0.6400   -2.2210    2.2150 H   0  0  0  0  0  0  0  0  0  0  0  0
   -0.7570   -2.3850    0.4780 H   0  0  0  0  0  0  0  0  0  0  0  0
    3.7660    0.3180    1.7430 H   0  0  0  0  0  0  0  0  0  0  0  0
    3.6190   -0.6590    0.2880 H   0  0  0  0  0  0  0  0  0  0  0  0
    2.5570    1.1750   -1.7350 H   0  0  0  0  0  0  0  0  0  0  0  0
    3.9360    2.1860   -2.1780 H   0  0  0  0  0  0  0  0  0  0  0  0
    4.1160    0.4370   -2.0530 H   0  0  0  0  0  0  0  0  0  0  0  0
    5.4310   -0.8090   -0.3580 H   0  0  0  0  0  0  0  0  0  0  0  0
    8.5430   -4.6470   -2.0200 H   0  0  0  0  0  0  0  0  0  0  0  0
    8.2410   -5.4700   -0.4830 H   0  0  0  0  0  0  0  0  0  0  0  0
    7.4570   -3.9180   -0.8440 H   0  0  0  0  0  0  0  0  0  0  0  0
   11.7450   -3.9850   -0.1200 H   0  0  0  0  0  0  0  0  0  0  0  0
   10.8510   -5.5150   -0.1410 H   0  0  0  0  0  0  0  0  0  0  0  0
   11.0950   -4.6090   -1.6370 H   0  0  0  0  0  0  0  0  0  0  0  0
    8.3220   -3.7370    1.5030 H   0  0  0  0  0  0  0  0  0  0  0  0
   10.0000   -4.1080    1.8280 H   0  0  0  0  0  0  0  0  0  0  0  0
    8.9050   -1.4940    2.0800 H   0  0  0  0  0  0  0  0  0  0  0  0
   11.0860   -2.0670    2.5690 H   0  0  0  0  0  0  0  0  0  0  0  0
  1 68  1  0
  1 67  1  0
  1 66  1  0
  1  2  1  0
  2 69  1  6
  2 57  1  0
  2  3  1  0
  3  4  1  0
  3 65  1  0
  3 70  1  1
  4 72  1  0
  4  5  1  0
  4 71  1  0
  5  6  1  0
  5  7  1  0
  5 73  1  1
  6 74  1  0
  7  8  2  0
  7 65  1  0
  8 53  1  0
  8  9  1  0
  9 76  1  0
  9 10  1  0
  9 75  1  0
 10 78  1  0
 10 77  1  0
 10 11  1  0
 11 51  1  0
 11 12  1  0
 11 79  1  1
 12 81  1  0
 12 13  1  0
 12 80  1  0
 13 14  2  0
 13 49  1  0
 14 15  1  0
 15 47  2  0
 15 16  1  0
 16 17  1  0
 16 83  1  0
 16 82  1  0
 17 18  1  6
 17 45  1  0
 17 19  1  0
 18 86  1  0
 18 85  1  0
 18 84  1  0
 19 20  1  0
 19 46  1  0
 19 87  1  1
 20 88  1  0
 20 21  1  0
 20 89  1  0
 21 90  1  0
 21 91  1  0
 21 22  1  0
 22 45  1  0
 22 23  1  0
 22 92  1  1
 23 24  2  0
 23 40  1  0
 24 93  1  0
 24 25  1  0
 25 26  1  0
 25 94  1  1
 25 38  1  0
 27 26  1  1
 27 34  1  0
 27 28  1  0
 27 36  1  0
 28 29  1  0
 29 30  1  6
 29 33  1  0
 29 31  1  0
 30 96  1  0
 30 97  1  0
 30 95  1  0
 31 32  1  0
 31 98  1  0
 31 99  1  0
 32100  1  0
 33101  1  0
 33102  1  0
 33 34  1  0
 34103  1  6
 34 35  1  0
 35104  1  0
 36105  1  6
 36 37  1  0
 36 38  1  0
 37108  1  0
 37106  1  0
 37107  1  0
 38 40  1  0
 38 39  1  1
 39109  1  0
 40 42  1  0
 40 41  1  1
 41110  1  0
 41111  1  0
 41112  1  0
 42113  1  6
 42 44  1  0
 42 43  1  0
 43114  1  0
 44 45  1  0
 44115  1  0
 44116  1  0
 45117  1  6
 46119  1  0
 46 47  1  0
 46118  1  0
 47 48  1  0
 48 49  2  0
 49 50  1  0
 50 51  1  0
 50121  1  0
 50120  1  0
 51 52  1  6
 51 53  1  0
 52123  1  0
 52124  1  0
 52122  1  0
 53 54  2  0
 54125  1  0
 54 55  1  0
 55 56  1  0
 55 65  2  0
 57 56  1  1
 57 58  1  0
 57 63  1  0
 58 59  1  0
 59 60  1  6
 59 61  1  0
 59 62  1  0
 60126  1  0
 60128  1  0
 60127  1  0
 61131  1  0
 61130  1  0
 61129  1  0
 62 63  1  0
 62132  1  0
 62133  1  0
 63 64  1  0
 63134  1  1
 64135  1  0
M  END
>  <id>  (347) 
449

>  <scaffolds>  (347) 
['c1ccccc1', 'C1CCCCC1', 'C=C1CCCC2CCCCC12', 'C1=C2C(CCC3C2CCC2Cc4nc5c(nc4CC23)CC2CCc3c(cc4c6c3CCC6CC3(CCCO3)O4)C2C5)C2CC3(CCCO3)OC12', 'c1ccc2c(c1)CCCC2', 'C1CCC2CCCCC2C1']

>  <name>  (347) 
Cephalostatin 6

>  <formula>  (347) 
C53H70N2O10

>  <SMILES>  (347) 
CC%10C%13CC(O)c%12c9CCC8Cc7nc6CC5(C)C(CCC4C3=CC2OC1(OC(C)(CO)CC1O)C(C)C2(O)C3(C)C(O)CC45)Cc6nc7CC8(C)c9cc(OC%10%11OC(C)(C)CC%11O)c%12%13

>  <ChEMBL_id>  (347) 


>  <ZINC_id>  (347) 


>  <PubChem_id>  (347) 


>  <DrugBank_id>  (347) 


>  <CAS_no>  (347) 
121038-34-4

>  <references>  (347) 
[{'journal': {'name': 'Canadian Journal of Chemistry', 'id': 30}, 'title': 'Isolation and structure of the unusual Indian Ocean Cephalodiscus gilchristi components, cephalostatins 5 and 6', 'year': 1989, 'start_page': 1509, 'volume': 67, 'issue': 10, 'doi': '10.1139/v89-231', 'isbn': '', 'despositor': {'code': 'TMM', 'first_name': 'Thommas', 'last_name': 'Musyoka', 'id': 22}, 'refauthors_set': [{'author': {'first_name': 'George', 'initials': 'GR', 'last_name': 'Pettit', 'id': 478}, 'first_author': True, 'id': 939}, {'author': {'first_name': '', 'initials': 'Y', 'last_name': 'Kamano', 'id': 507}, 'first_author': False, 'id': 940}, {'author': {'first_name': '', 'initials': 'D', 'last_name': 'Claude', 'id': 510}, 'first_author': False, 'id': 941}, {'author': {'first_name': '', 'initials': 'I', 'last_name': 'Masuo', 'id': 506}, 'first_author': False, 'id': 942}, {'author': {'first_name': '', 'initials': 'DC', 'last_name': 'Nigel', 'id': 502}, 'first_author': False, 'id': 943}, {'author': {'first_name': '', 'initials': 'MS', 'last_name': 'Jean', 'id': 499}, 'first_author': False, 'id': 944}, {'author': {'first_name': '', 'initials': 'LD', 'last_name': 'Dennis', 'id': 511}, 'first_author': False, 'id': 945}], 'id': 318}]

>  <classifications>  (347) 
[{'classification': 'Alkaloid', 'id': 738}, {'classification': 'Cephalostatin', 'id': 759}, {'classification': 'Steroid', 'id': 835}, {'classification': 'Steroids and steroid derivatives (Classyfire)', 'id': 942}]

>  <molecular_mass>  (347) 
895.13

$$$$
SANC00450_minRM1.pdb
     RDKit          3D

 76 78  0  0  0  0  0  0  0  0999 V2000
    4.3070    4.6710   -1.3770 C   0  0  0  0  0  0  0  0  0  0  0  0
    3.2790    4.1270   -0.4520 N   0  0  0  0  0  0  0  0  0  0  0  0
    2.0050    4.8710   -0.6150 C   0  0  0  0  0  0  0  0  0  0  0  0
    3.0780    2.6660   -0.6890 C   0  0  0  0  0  0  0  0  0  0  0  0
    2.6040    2.0210    0.6270 C   0  0  0  0  0  0  0  0  0  0  0  0
    2.5680    0.5310    0.4460 C   0  0  0  0  0  0  0  0  0  0  0  0
    1.3990   -0.0990    0.0080 C   0  0  0  0  0  0  0  0  0  0  0  0
    0.0220    0.9540   -0.2610 S   0  0  0  0  0  0  0  0  0  0  0  0
    0.0200    1.2070   -1.7010 O   0  0  0  0  0  0  0  0  0  0  0  0
   -1.3660   -0.0830    0.0090 C   0  0  0  0  0  0  0  0  0  0  0  0
   -2.5240    0.5600    0.4570 C   0  0  0  0  0  0  0  0  0  0  0  0
   -2.5250    2.0410    0.6990 C   0  0  0  0  0  0  0  0  0  0  0  0
   -2.9840    2.7540   -0.5870 C   0  0  0  0  0  0  0  0  0  0  0  0
   -3.1850    4.2030   -0.2840 N   0  0  0  0  0  0  0  0  0  0  0  0
   -1.8980    4.9390   -0.3340 C   0  0  0  0  0  0  0  0  0  0  0  0
   -4.1540    4.8040   -1.2380 C   0  0  0  0  0  0  0  0  0  0  0  0
   -3.7080   -0.1540    0.6670 C   0  0  0  0  0  0  0  0  0  0  0  0
   -5.1570    0.6600    1.2230 S   0  0  0  0  0  0  0  0  0  0  0  0
   -5.1810    0.1590    2.9460 C   0  0  0  0  0  0  0  0  0  0  0  0
   -3.7320   -1.5070    0.3510 C   0  0  0  0  0  0  0  0  0  0  0  0
   -4.8970   -2.2240    0.4050 O   0  0  0  0  0  0  0  0  0  0  0  0
   -4.9600   -3.0930    1.5140 C   0  0  0  0  0  0  0  0  0  0  0  0
   -2.5770   -2.1310   -0.1330 C   0  0  0  0  0  0  0  0  0  0  0  0
   -2.6170   -3.4750   -0.4070 O   0  0  0  0  0  0  0  0  0  0  0  0
   -3.1920   -3.7520   -1.6700 C   0  0  0  0  0  0  0  0  0  0  0  0
   -1.3760   -1.4410   -0.2580 C   0  0  0  0  0  0  0  0  0  0  0  0
    0.0010   -2.4560   -0.6640 S   0  0  0  0  0  0  0  0  0  0  0  0
    0.0070   -2.5470   -2.1170 O   0  0  0  0  0  0  0  0  0  0  0  0
    1.3880   -1.4590   -0.2460 C   0  0  0  0  0  0  0  0  0  0  0  0
    2.5760   -2.1690   -0.1060 C   0  0  0  0  0  0  0  0  0  0  0  0
    2.5900   -3.5130   -0.3810 O   0  0  0  0  0  0  0  0  0  0  0  0
    3.1930   -3.8020   -1.6290 C   0  0  0  0  0  0  0  0  0  0  0  0
    3.7350   -1.5630    0.3930 C   0  0  0  0  0  0  0  0  0  0  0  0
    4.8920   -2.2870    0.4830 O   0  0  0  0  0  0  0  0  0  0  0  0
    4.8950   -3.2130    1.5480 C   0  0  0  0  0  0  0  0  0  0  0  0
    3.7330   -0.2040    0.6870 C   0  0  0  0  0  0  0  0  0  0  0  0
    5.2010    0.5740    1.2460 S   0  0  0  0  0  0  0  0  0  0  0  0
    4.9630    0.5120    3.0230 C   0  0  0  0  0  0  0  0  0  0  0  0
    4.4520    5.7500   -1.1910 H   0  0  0  0  0  0  0  0  0  0  0  0
    5.2820    4.1910   -1.1820 H   0  0  0  0  0  0  0  0  0  0  0  0
    4.0950    4.5550   -2.4560 H   0  0  0  0  0  0  0  0  0  0  0  0
    1.5320    4.8150   -1.6150 H   0  0  0  0  0  0  0  0  0  0  0  0
    1.2560    4.5130    0.1110 H   0  0  0  0  0  0  0  0  0  0  0  0
    2.1610    5.9410   -0.3930 H   0  0  0  0  0  0  0  0  0  0  0  0
    2.3710    2.4280   -1.5210 H   0  0  0  0  0  0  0  0  0  0  0  0
    4.0360    2.1850   -0.9980 H   0  0  0  0  0  0  0  0  0  0  0  0
    3.2790    2.3160    1.4610 H   0  0  0  0  0  0  0  0  0  0  0  0
    1.6260    2.4270    0.9610 H   0  0  0  0  0  0  0  0  0  0  0  0
   -3.1940    2.3110    1.5470 H   0  0  0  0  0  0  0  0  0  0  0  0
   -1.5370    2.4090    1.0480 H   0  0  0  0  0  0  0  0  0  0  0  0
   -2.2700    2.5540   -1.4230 H   0  0  0  0  0  0  0  0  0  0  0  0
   -3.9420    2.2960   -0.9290 H   0  0  0  0  0  0  0  0  0  0  0  0
   -1.3510    4.9020   -1.2970 H   0  0  0  0  0  0  0  0  0  0  0  0
   -2.0600    6.0050   -0.0990 H   0  0  0  0  0  0  0  0  0  0  0  0
   -1.2110    4.5580    0.4400 H   0  0  0  0  0  0  0  0  0  0  0  0
   -5.1420    4.3270   -1.1210 H   0  0  0  0  0  0  0  0  0  0  0  0
   -4.2990    5.8740   -1.0080 H   0  0  0  0  0  0  0  0  0  0  0  0
   -3.8820    4.7380   -2.3080 H   0  0  0  0  0  0  0  0  0  0  0  0
   -6.0920    0.5720    3.3920 H   0  0  0  0  0  0  0  0  0  0  0  0
   -5.2030   -0.9320    3.0650 H   0  0  0  0  0  0  0  0  0  0  0  0
   -4.3220    0.5440    3.5040 H   0  0  0  0  0  0  0  0  0  0  0  0
   -4.9990   -2.5400    2.4730 H   0  0  0  0  0  0  0  0  0  0  0  0
   -5.9090   -3.6320    1.3730 H   0  0  0  0  0  0  0  0  0  0  0  0
   -4.1370   -3.8230    1.5660 H   0  0  0  0  0  0  0  0  0  0  0  0
   -4.2350   -3.4080   -1.7600 H   0  0  0  0  0  0  0  0  0  0  0  0
   -2.6050   -3.3270   -2.5020 H   0  0  0  0  0  0  0  0  0  0  0  0
   -3.1670   -4.8500   -1.7330 H   0  0  0  0  0  0  0  0  0  0  0  0
    3.1250   -4.8970   -1.7040 H   0  0  0  0  0  0  0  0  0  0  0  0
    2.6510   -3.3450   -2.4750 H   0  0  0  0  0  0  0  0  0  0  0  0
    4.2510   -3.5010   -1.6810 H   0  0  0  0  0  0  0  0  0  0  0  0
    4.6990   -2.7500    2.5280 H   0  0  0  0  0  0  0  0  0  0  0  0
    4.1890   -4.0470    1.4120 H   0  0  0  0  0  0  0  0  0  0  0  0
    5.9210   -3.6120    1.5400 H   0  0  0  0  0  0  0  0  0  0  0  0
    5.7360    1.1430    3.4750 H   0  0  0  0  0  0  0  0  0  0  0  0
    3.9870    0.8910    3.3380 H   0  0  0  0  0  0  0  0  0  0  0  0
    5.0760   -0.5010    3.4210 H   0  0  0  0  0  0  0  0  0  0  0  0
  1 41  1  0
  1 39  1  0
  1 40  1  0
  1  2  1  0
  2  4  1  0
  2  3  1  0
  3 42  1  0
  3 44  1  0
  3 43  1  0
  4 45  1  0
  4 46  1  0
  4  5  1  0
  5  6  1  0
  5 48  1  0
  5 47  1  0
  6  7  2  0
  6 36  1  0
  7  8  1  0
  7 29  1  0
  8  9  2  0
  8 10  1  0
 10 26  2  0
 10 11  1  0
 11 17  2  0
 11 12  1  0
 12 13  1  0
 12 50  1  0
 12 49  1  0
 13 51  1  0
 13 52  1  0
 13 14  1  0
 14 16  1  0
 14 15  1  0
 15 53  1  0
 15 54  1  0
 15 55  1  0
 16 58  1  0
 16 56  1  0
 16 57  1  0
 17 20  1  0
 17 18  1  0
 18 19  1  0
 19 60  1  0
 19 59  1  0
 19 61  1  0
 20 23  2  0
 20 21  1  0
 21 22  1  0
 22 63  1  0
 22 64  1  0
 22 62  1  0
 23 24  1  0
 23 26  1  0
 24 25  1  0
 25 66  1  0
 25 65  1  0
 25 67  1  0
 26 27  1  0
 27 28  2  0
 27 29  1  0
 29 30  2  0
 30 31  1  0
 30 33  1  0
 31 32  1  0
 32 69  1  0
 32 68  1  0
 32 70  1  0
 33 34  1  0
 33 36  2  0
 34 35  1  0
 35 72  1  0
 35 73  1  0
 35 71  1  0
 36 37  1  0
 37 38  1  0
 38 75  1  0
 38 76  1  0
 38 74  1  0
M  END
>  <id>  (348) 
450

>  <scaffolds>  (348) 
['c1ccccc1']

>  <name>  (348) 
Lissocline disulfoxide

>  <formula>  (348) 
C26H38N2O6S4

>  <SMILES>  (348) 
CN(C)CCc3c2S(=O)c1c(CCN(C)C)c(SC)c(OC)c(OC)c1S(=O)c2c(OC)c(OC)c3SC

>  <ChEMBL_id>  (348) 


>  <ZINC_id>  (348) 


>  <PubChem_id>  (348) 


>  <DrugBank_id>  (348) 


>  <CAS_no>  (348) 
195303-92-5

>  <references>  (348) 
[{'journal': {'name': 'Natural Product Letters', 'id': 31}, 'title': 'lissoclin Disulfoxide, A Novel Dimeric Alkaloid from the Ascidian lissoclinum Sp.: Inhibitor of Interleukin-8 Receptors', 'year': 1997, 'start_page': 225, 'volume': 10, 'issue': 3, 'doi': '10.1080/10575639708041199', 'isbn': '', 'despositor': {'code': 'TMM', 'first_name': 'Thommas', 'last_name': 'Musyoka', 'id': 22}, 'refauthors_set': [{'author': {'first_name': 'Ashok', 'initials': 'D', 'last_name': 'Patil', 'id': 684}, 'first_author': True, 'id': 946}, {'author': {'first_name': 'Alan', 'initials': 'J', 'last_name': 'Freyer', 'id': 685}, 'first_author': False, 'id': 947}, {'author': {'first_name': '', 'initials': 'L', 'last_name': 'Killmer', 'id': 686}, 'first_author': False, 'id': 948}, {'author': {'first_name': '', 'initials': 'G', 'last_name': 'Zuber', 'id': 687}, 'first_author': False, 'id': 949}, {'author': {'first_name': '', 'initials': 'B', 'last_name': 'Carte', 'id': 688}, 'first_author': False, 'id': 950}, {'author': {'first_name': 'Anthony', 'initials': 'J', 'last_name': 'Jurewicz', 'id': 689}, 'first_author': False, 'id': 952}, {'author': {'first_name': 'Randall', 'initials': 'K', 'last_name': 'Johnson', 'id': 690}, 'first_author': False, 'id': 953}], 'id': 319}]

>  <classifications>  (348) 
[{'classification': 'Alkaloid', 'id': 738}, {'classification': 'Carboline', 'id': 755}, {'classification': 'Benzodithiins (Classyfire)', 'id': 986}]

>  <molecular_mass>  (348) 
602.85

$$$$
SANC00451_minRM1.pdb
     RDKit          3D

 31 32  0  0  0  0  0  0  0  0999 V2000
    4.5900    0.9870    1.1730 C   0  0  0  0  0  0  0  0  0  0  0  0
    3.4820    1.5690    0.5300 O   0  0  0  0  0  0  0  0  0  0  0  0
    2.4020    0.7750    0.3160 C   0  0  0  0  0  0  0  0  0  0  0  0
    1.2530    1.4790   -0.1160 C   0  0  0  0  0  0  0  0  0  0  0  0
    0.0860    0.7940   -0.4090 C   0  0  0  0  0  0  0  0  0  0  0  0
    0.0450   -0.5990   -0.2430 C   0  0  0  0  0  0  0  0  0  0  0  0
    1.1690   -1.2860    0.1960 C   0  0  0  0  0  0  0  0  0  0  0  0
    2.3600   -0.6000    0.4670 C   0  0  0  0  0  0  0  0  0  0  0  0
    1.1880   -2.7700    0.3840 C   0  0  0  0  0  0  0  0  0  0  0  0
    1.8750   -3.4150   -0.8340 C   0  0  0  0  0  0  0  0  0  0  0  0
    2.0440   -4.8460   -0.5870 N   0  0  0  0  0  0  0  0  0  0  0  0
   -1.3870   -1.5020   -0.6640 S   0  0  0  0  0  0  0  0  0  0  0  0
   -2.5880   -1.2660    0.9840 S   0  0  0  0  0  0  0  0  0  0  0  0
   -3.7610    0.3520    0.5290 S   0  0  0  0  0  0  0  0  0  0  0  0
   -2.4720    1.9460    0.5950 S   0  0  0  0  0  0  0  0  0  0  0  0
   -1.2840    1.6760   -1.0540 S   0  0  0  0  0  0  0  0  0  0  0  0
    1.2970    2.8450   -0.1250 O   0  0  0  0  0  0  0  0  0  0  0  0
    1.8890    3.3710   -1.2930 C   0  0  0  0  0  0  0  0  0  0  0  0
    5.2670    1.8420    1.3310 H   0  0  0  0  0  0  0  0  0  0  0  0
    4.3480    0.5400    2.1510 H   0  0  0  0  0  0  0  0  0  0  0  0
    5.1050    0.2390    0.5480 H   0  0  0  0  0  0  0  0  0  0  0  0
    3.2310   -1.1700    0.8030 H   0  0  0  0  0  0  0  0  0  0  0  0
    1.7200   -3.0360    1.3240 H   0  0  0  0  0  0  0  0  0  0  0  0
    0.1700   -3.1890    0.5320 H   0  0  0  0  0  0  0  0  0  0  0  0
    1.2980   -3.1630   -1.7600 H   0  0  0  0  0  0  0  0  0  0  0  0
    2.8820   -2.9620   -0.9990 H   0  0  0  0  0  0  0  0  0  0  0  0
    1.1680   -5.3360   -0.4430 H   0  0  0  0  0  0  0  0  0  0  0  0
    2.5890   -5.3110   -1.3040 H   0  0  0  0  0  0  0  0  0  0  0  0
    2.9330    3.0520   -1.4450 H   0  0  0  0  0  0  0  0  0  0  0  0
    1.3140    3.1340   -2.2030 H   0  0  0  0  0  0  0  0  0  0  0  0
    1.8690    4.4580   -1.1270 H   0  0  0  0  0  0  0  0  0  0  0  0
  1  2  1  0
  1 21  1  0
  1 19  1  0
  1 20  1  0
  2  3  1  0
  3  4  2  0
  3  8  1  0
  4  5  1  0
  4 17  1  0
  5 16  1  0
  5  6  2  0
  6 12  1  0
  6  7  1  0
  7  9  1  0
  7  8  2  0
  8 22  1  0
  9 10  1  0
  9 24  1  0
  9 23  1  0
 10 25  1  0
 10 26  1  0
 10 11  1  0
 11 28  1  0
 11 27  1  0
 12 13  1  0
 13 14  1  0
 14 15  1  0
 15 16  1  0
 17 18  1  0
 18 30  1  0
 18 29  1  0
 18 31  1  0
M  END
>  <id>  (349) 
451

>  <scaffolds>  (349) 
['c1ccccc1', 'c1ccc2c(c1)SSSSS2']

>  <name>  (349) 
Varacin

>  <formula>  (349) 
C10H13NO2S5

>  <SMILES>  (349) 
COC1=C(C2=C(C(=C1)CCN)SSSSS2)OC

>  <ChEMBL_id>  (349) 
CHEMBL151233

>  <ZINC_id>  (349) 


>  <PubChem_id>  (349) 
 179269

>  <DrugBank_id>  (349) 


>  <CAS_no>  (349) 
134029-48-4

>  <references>  (349) 
[{'journal': {'name': 'Natural Product Letters', 'id': 31}, 'title': 'lissoclin Disulfoxide, A Novel Dimeric Alkaloid from the Ascidian lissoclinum Sp.: Inhibitor of Interleukin-8 Receptors', 'year': 1997, 'start_page': 225, 'volume': 10, 'issue': 3, 'doi': '10.1080/10575639708041199', 'isbn': '', 'despositor': {'code': 'TMM', 'first_name': 'Thommas', 'last_name': 'Musyoka', 'id': 22}, 'refauthors_set': [{'author': {'first_name': 'Ashok', 'initials': 'D', 'last_name': 'Patil', 'id': 684}, 'first_author': True, 'id': 946}, {'author': {'first_name': 'Alan', 'initials': 'J', 'last_name': 'Freyer', 'id': 685}, 'first_author': False, 'id': 947}, {'author': {'first_name': '', 'initials': 'L', 'last_name': 'Killmer', 'id': 686}, 'first_author': False, 'id': 948}, {'author': {'first_name': '', 'initials': 'G', 'last_name': 'Zuber', 'id': 687}, 'first_author': False, 'id': 949}, {'author': {'first_name': '', 'initials': 'B', 'last_name': 'Carte', 'id': 688}, 'first_author': False, 'id': 950}, {'author': {'first_name': 'Anthony', 'initials': 'J', 'last_name': 'Jurewicz', 'id': 689}, 'first_author': False, 'id': 952}, {'author': {'first_name': 'Randall', 'initials': 'K', 'last_name': 'Johnson', 'id': 690}, 'first_author': False, 'id': 953}], 'id': 319}]

>  <classifications>  (349) 
[{'classification': 'Organosulfur', 'id': 801}, {'classification': 'Benzene and substituted derivatives (Classyfire)', 'id': 961}]

>  <molecular_mass>  (349) 
339.54

$$$$
SANC00452_minRM1.pdb
     RDKit          3D

 41 42  0  0  0  0  0  0  0  0999 V2000
    5.1320    2.1920   -1.5420 C   0  0  0  0  0  0  0  0  0  0  0  0
    4.0440    2.3150   -0.5390 N   0  0  0  0  0  0  0  0  0  0  0  0
    3.5880    3.7250   -0.4500 C   0  0  0  0  0  0  0  0  0  0  0  0
    2.9080    1.4060   -0.8740 C   0  0  0  0  0  0  0  0  0  0  0  0
    2.1860    1.0320    0.4320 C   0  0  0  0  0  0  0  0  0  0  0  0
    1.1300    0.0140    0.1290 C   0  0  0  0  0  0  0  0  0  0  0  0
   -0.1420    0.4170   -0.2780 C   0  0  0  0  0  0  0  0  0  0  0  0
   -1.1280   -0.5200   -0.6040 C   0  0  0  0  0  0  0  0  0  0  0  0
   -0.8340   -1.8700   -0.4790 C   0  0  0  0  0  0  0  0  0  0  0  0
    0.4400   -2.2830   -0.0490 C   0  0  0  0  0  0  0  0  0  0  0  0
    1.4260   -1.3520    0.2440 C   0  0  0  0  0  0  0  0  0  0  0  0
    3.0420   -1.8760    0.6770 S   0  0  0  0  0  0  0  0  0  0  0  0
    2.8290   -2.1910    2.4300 C   0  0  0  0  0  0  0  0  0  0  0  0
    0.7000   -3.6250   -0.0230 O   0  0  0  0  0  0  0  0  0  0  0  0
    0.2100   -4.2570    1.1410 C   0  0  0  0  0  0  0  0  0  0  0  0
   -1.7900   -2.8270   -0.6770 O   0  0  0  0  0  0  0  0  0  0  0  0
   -1.7020   -3.4300   -1.9520 C   0  0  0  0  0  0  0  0  0  0  0  0
   -2.6850   -0.0360   -1.2460 S   0  0  0  0  0  0  0  0  0  0  0  0
   -3.7620    0.3890    0.4470 S   0  0  0  0  0  0  0  0  0  0  0  0
   -3.4860    2.4050    0.6990 S   0  0  0  0  0  0  0  0  0  0  0  0
   -1.5200    2.5760    1.2500 S   0  0  0  0  0  0  0  0  0  0  0  0
   -0.4680    2.1290   -0.4550 S   0  0  0  0  0  0  0  0  0  0  0  0
    5.9640    2.8690   -1.2840 H   0  0  0  0  0  0  0  0  0  0  0  0
    5.5480    1.1700   -1.5250 H   0  0  0  0  0  0  0  0  0  0  0  0
    4.8510    2.4130   -2.5900 H   0  0  0  0  0  0  0  0  0  0  0  0
    3.2030    4.1700   -1.3880 H   0  0  0  0  0  0  0  0  0  0  0  0
    2.7880    3.8290    0.3020 H   0  0  0  0  0  0  0  0  0  0  0  0
    4.4200    4.3650   -0.1080 H   0  0  0  0  0  0  0  0  0  0  0  0
    2.1820    1.8330   -1.6080 H   0  0  0  0  0  0  0  0  0  0  0  0
    3.2820    0.4750   -1.3620 H   0  0  0  0  0  0  0  0  0  0  0  0
    2.9150    0.6550    1.1830 H   0  0  0  0  0  0  0  0  0  0  0  0
    1.7490    1.9230    0.9300 H   0  0  0  0  0  0  0  0  0  0  0  0
    2.0530   -2.9430    2.6260 H   0  0  0  0  0  0  0  0  0  0  0  0
    3.7830   -2.5730    2.8110 H   0  0  0  0  0  0  0  0  0  0  0  0
    2.5750   -1.2840    2.9880 H   0  0  0  0  0  0  0  0  0  0  0  0
    0.7410   -3.9190    2.0510 H   0  0  0  0  0  0  0  0  0  0  0  0
   -0.8730   -4.1330    1.2980 H   0  0  0  0  0  0  0  0  0  0  0  0
    0.4300   -5.3220    0.9720 H   0  0  0  0  0  0  0  0  0  0  0  0
   -2.5010   -4.1870   -1.9370 H   0  0  0  0  0  0  0  0  0  0  0  0
   -1.8960   -2.7180   -2.7700 H   0  0  0  0  0  0  0  0  0  0  0  0
   -0.7360   -3.9270   -2.1380 H   0  0  0  0  0  0  0  0  0  0  0  0
  1 25  1  0
  1 24  1  0
  1 23  1  0
  1  2  1  0
  2  4  1  0
  2  3  1  0
  3 26  1  0
  3 28  1  0
  3 27  1  0
  4 29  1  0
  4 30  1  0
  4  5  1  0
  5  6  1  0
  5 32  1  0
  5 31  1  0
  6  7  2  0
  6 11  1  0
  7  8  1  0
  7 22  1  0
  8 18  1  0
  8  9  2  0
  9 16  1  0
  9 10  1  0
 10 14  1  0
 10 11  2  0
 11 12  1  0
 12 13  1  0
 13 33  1  0
 13 34  1  0
 13 35  1  0
 14 15  1  0
 15 38  1  0
 15 37  1  0
 15 36  1  0
 16 17  1  0
 17 40  1  0
 17 41  1  0
 17 39  1  0
 18 19  1  0
 19 20  1  0
 20 21  1  0
 21 22  1  0
M  END
>  <id>  (350) 
452

>  <scaffolds>  (350) 
['c1ccccc1', 'c1ccc2c(c1)SSSSS2']

>  <name>  (350) 
N,N-dimethyl-5-(methylthio)varacin

>  <formula>  (350) 
C13H19NO2S6

>  <SMILES>  (350) 
CN(C)CCC1=C2C(=C(C(=C1SC)OC)OC)SSSSS2

>  <ChEMBL_id>  (350) 
CHEMBL222470

>  <ZINC_id>  (350) 


>  <PubChem_id>  (350) 
 10319580

>  <DrugBank_id>  (350) 


>  <CAS_no>  (350) 
159645-82-6

>  <references>  (350) 
[{'journal': {'name': 'Natural Product Letters', 'id': 31}, 'title': 'lissoclin Disulfoxide, A Novel Dimeric Alkaloid from the Ascidian lissoclinum Sp.: Inhibitor of Interleukin-8 Receptors', 'year': 1997, 'start_page': 225, 'volume': 10, 'issue': 3, 'doi': '10.1080/10575639708041199', 'isbn': '', 'despositor': {'code': 'TMM', 'first_name': 'Thommas', 'last_name': 'Musyoka', 'id': 22}, 'refauthors_set': [{'author': {'first_name': 'Ashok', 'initials': 'D', 'last_name': 'Patil', 'id': 684}, 'first_author': True, 'id': 946}, {'author': {'first_name': 'Alan', 'initials': 'J', 'last_name': 'Freyer', 'id': 685}, 'first_author': False, 'id': 947}, {'author': {'first_name': '', 'initials': 'L', 'last_name': 'Killmer', 'id': 686}, 'first_author': False, 'id': 948}, {'author': {'first_name': '', 'initials': 'G', 'last_name': 'Zuber', 'id': 687}, 'first_author': False, 'id': 949}, {'author': {'first_name': '', 'initials': 'B', 'last_name': 'Carte', 'id': 688}, 'first_author': False, 'id': 950}, {'author': {'first_name': 'Anthony', 'initials': 'J', 'last_name': 'Jurewicz', 'id': 689}, 'first_author': False, 'id': 952}, {'author': {'first_name': 'Randall', 'initials': 'K', 'last_name': 'Johnson', 'id': 690}, 'first_author': False, 'id': 953}], 'id': 319}]

>  <classifications>  (350) 
[{'classification': 'Organosulfur', 'id': 801}, {'classification': 'Benzene and substituted derivatives (Classyfire)', 'id': 961}]

>  <molecular_mass>  (350) 
413.68

$$$$
SANC00453_minRM1.pdb
     RDKit          3D

 39 40  0  0  0  0  0  0  0  0999 V2000
   -0.9240    3.7480    1.3720 C   0  0  0  0  0  0  0  0  0  0  0  0
   -0.8800    3.2170    0.0640 O   0  0  0  0  0  0  0  0  0  0  0  0
   -0.6620    1.8650    0.0510 C   0  0  0  0  0  0  0  0  0  0  0  0
   -1.7570    1.0160    0.2650 C   0  0  0  0  0  0  0  0  0  0  0  0
   -2.9600    1.5580    0.6300 O   0  0  0  0  0  0  0  0  0  0  0  0
   -3.6940    2.0370   -0.4780 C   0  0  0  0  0  0  0  0  0  0  0  0
   -1.5920   -0.3610    0.2050 C   0  0  0  0  0  0  0  0  0  0  0  0
   -2.9210   -1.4270    0.5510 S   0  0  0  0  0  0  0  0  0  0  0  0
   -2.0940   -3.1480   -0.2460 S   0  0  0  0  0  0  0  0  0  0  0  0
   -0.1000   -2.6020   -0.1660 S   0  0  0  0  0  0  0  0  0  0  0  0
   -0.3290   -0.8740   -0.0990 C   0  0  0  0  0  0  0  0  0  0  0  0
    0.7570   -0.0370   -0.3390 C   0  0  0  0  0  0  0  0  0  0  0  0
    2.0900   -0.6330   -0.6650 C   0  0  0  0  0  0  0  0  0  0  0  0
    2.8570   -0.9020    0.6410 C   0  0  0  0  0  0  0  0  0  0  0  0
    4.0240   -1.7870    0.3490 N   0  0  0  0  0  0  0  0  0  0  0  0
    5.1160   -1.0310   -0.3150 C   0  0  0  0  0  0  0  0  0  0  0  0
    4.5240   -2.4110    1.6010 C   0  0  0  0  0  0  0  0  0  0  0  0
    0.5920    1.3520   -0.2600 C   0  0  0  0  0  0  0  0  0  0  0  0
    1.9740    2.3910   -0.5040 S   0  0  0  0  0  0  0  0  0  0  0  0
    1.4330    3.4260   -1.8700 C   0  0  0  0  0  0  0  0  0  0  0  0
   -1.1260    4.8180    1.2120 H   0  0  0  0  0  0  0  0  0  0  0  0
   -1.7260    3.3200    1.9950 H   0  0  0  0  0  0  0  0  0  0  0  0
    0.0330    3.6380    1.9050 H   0  0  0  0  0  0  0  0  0  0  0  0
   -3.1890    2.8580   -1.0130 H   0  0  0  0  0  0  0  0  0  0  0  0
   -3.9390    1.2440   -1.2040 H   0  0  0  0  0  0  0  0  0  0  0  0
   -4.6250    2.4180   -0.0320 H   0  0  0  0  0  0  0  0  0  0  0  0
    1.9800   -1.5660   -1.2630 H   0  0  0  0  0  0  0  0  0  0  0  0
    2.6640    0.0380   -1.3410 H   0  0  0  0  0  0  0  0  0  0  0  0
    3.1240    0.0640    1.1350 H   0  0  0  0  0  0  0  0  0  0  0  0
    2.1810   -1.4110    1.3690 H   0  0  0  0  0  0  0  0  0  0  0  0
    5.5330   -0.1800    0.2570 H   0  0  0  0  0  0  0  0  0  0  0  0
    5.9580   -1.7070   -0.5420 H   0  0  0  0  0  0  0  0  0  0  0  0
    4.7760   -0.6320   -1.2850 H   0  0  0  0  0  0  0  0  0  0  0  0
    3.7430   -3.0530    2.0440 H   0  0  0  0  0  0  0  0  0  0  0  0
    5.3770   -3.0750    1.3780 H   0  0  0  0  0  0  0  0  0  0  0  0
    4.8580   -1.7120    2.3900 H   0  0  0  0  0  0  0  0  0  0  0  0
    0.9160    2.8560   -2.6490 H   0  0  0  0  0  0  0  0  0  0  0  0
    0.7730    4.2350   -1.5450 H   0  0  0  0  0  0  0  0  0  0  0  0
    2.3330    3.8730   -2.3110 H   0  0  0  0  0  0  0  0  0  0  0  0
  1  2  1  0
  1 21  1  0
  1 23  1  0
  1 22  1  0
  2  3  1  0
  3 18  2  0
  3  4  1  0
  4  7  2  0
  4  5  1  0
  5  6  1  0
  6 25  1  0
  6 24  1  0
  6 26  1  0
  7 11  1  0
  7  8  1  0
  8  9  1  0
  9 10  1  0
 10 11  1  0
 11 12  2  0
 12 13  1  0
 12 18  1  0
 13 28  1  0
 13 27  1  0
 13 14  1  0
 14 15  1  0
 14 29  1  0
 14 30  1  0
 15 16  1  0
 15 17  1  0
 16 33  1  0
 16 32  1  0
 16 31  1  0
 17 35  1  0
 17 34  1  0
 17 36  1  0
 18 19  1  0
 19 20  1  0
 20 37  1  0
 20 39  1  0
 20 38  1  0
M  END
>  <id>  (351) 
453

>  <scaffolds>  (351) 
['c1ccccc1', 'c1ccc2c(c1)SSS2']

>  <name>  (351) 
3,4-dimethoxy-6-(2'-N,N- dimethylaminoethyl)-5-(methylthio)bemtrithian

>  <formula>  (351) 
C13H19NO2S4

>  <SMILES>  (351) 
COc2c(OC)c1sssc1c(CCN(C)C)c2SC

>  <ChEMBL_id>  (351) 


>  <ZINC_id>  (351) 


>  <PubChem_id>  (351) 


>  <DrugBank_id>  (351) 


>  <CAS_no>  (351) 
159645-84-8

>  <references>  (351) 
[{'journal': {'name': 'Natural Product Letters', 'id': 31}, 'title': 'lissoclin Disulfoxide, A Novel Dimeric Alkaloid from the Ascidian lissoclinum Sp.: Inhibitor of Interleukin-8 Receptors', 'year': 1997, 'start_page': 225, 'volume': 10, 'issue': 3, 'doi': '10.1080/10575639708041199', 'isbn': '', 'despositor': {'code': 'TMM', 'first_name': 'Thommas', 'last_name': 'Musyoka', 'id': 22}, 'refauthors_set': [{'author': {'first_name': 'Ashok', 'initials': 'D', 'last_name': 'Patil', 'id': 684}, 'first_author': True, 'id': 946}, {'author': {'first_name': 'Alan', 'initials': 'J', 'last_name': 'Freyer', 'id': 685}, 'first_author': False, 'id': 947}, {'author': {'first_name': '', 'initials': 'L', 'last_name': 'Killmer', 'id': 686}, 'first_author': False, 'id': 948}, {'author': {'first_name': '', 'initials': 'G', 'last_name': 'Zuber', 'id': 687}, 'first_author': False, 'id': 949}, {'author': {'first_name': '', 'initials': 'B', 'last_name': 'Carte', 'id': 688}, 'first_author': False, 'id': 950}, {'author': {'first_name': 'Anthony', 'initials': 'J', 'last_name': 'Jurewicz', 'id': 689}, 'first_author': False, 'id': 952}, {'author': {'first_name': 'Randall', 'initials': 'K', 'last_name': 'Johnson', 'id': 690}, 'first_author': False, 'id': 953}], 'id': 319}]

>  <classifications>  (351) 
[{'classification': 'Organosulfur', 'id': 801}, {'classification': 'Benzene and substituted derivatives (Classyfire)', 'id': 961}]

>  <molecular_mass>  (351) 
349.55

$$$$
SANC00454_minRM1.pdb
     RDKit          3D

136142  0  0  1  0  0  0  0  0999 V2000
    0.0870   -1.3200   -0.7170 H   0  0  0  0  0  0  0  0  0  0  0  0
    0.2530   -0.2230   -0.9190 C   0  0  1  0  0  0  0  0  0  0  0  0
   -0.8710    0.4240   -1.4460 O   0  0  0  0  0  0  0  0  0  0  0  0
   -2.0920    0.1210   -0.8030 C   0  0  1  0  0  0  0  0  0  0  0  0
   -1.9660   -0.1080    0.2890 H   0  0  0  0  0  0  0  0  0  0  0  0
   -2.9680    1.3640   -0.9820 C   0  0  0  0  0  0  0  0  0  0  0  0
   -4.3340    1.0880   -0.3740 C   0  0  0  0  0  0  0  0  0  0  0  0
   -5.0380   -0.1160   -1.0260 C   0  0  1  0  0  0  0  0  0  0  0  0
   -5.3510    0.1950   -2.4920 C   0  0  0  0  0  0  0  0  0  0  0  0
   -4.1190   -1.3010   -1.0050 C   0  0  0  0  0  0  0  0  0  0  0  0
   -4.4930   -2.5180   -0.6140 C   0  0  0  0  0  0  0  0  0  0  0  0
   -5.8450   -2.8390   -0.0940 C   0  0  0  0  0  0  0  0  0  0  0  0
   -6.8790   -1.7900   -0.5030 C   0  0  2  0  0  0  0  0  0  0  0  0
   -7.0550   -1.8830   -1.6080 H   0  0  0  0  0  0  0  0  0  0  0  0
   -6.3290   -0.3960   -0.2110 C   0  0  2  0  0  0  0  0  0  0  0  0
   -6.0570   -0.3480    0.8770 H   0  0  0  0  0  0  0  0  0  0  0  0
   -7.4000    0.6540   -0.4960 C   0  0  0  0  0  0  0  0  0  0  0  0
   -8.6070    0.3970    0.4070 C   0  0  1  0  0  0  0  0  0  0  0  0
   -8.2990    0.4180    1.4870 H   0  0  0  0  0  0  0  0  0  0  0  0
   -9.5940    1.3860    0.1610 O   0  0  0  0  0  0  0  0  0  0  0  0
   -9.4200    2.6260    0.6850 C   0  0  0  0  0  0  0  0  0  0  0  0
   -8.4620    2.8750    1.3980 O   0  0  0  0  0  0  0  0  0  0  0  0
  -10.5060    3.5550    0.3210 C   0  0  0  0  0  0  0  0  0  0  0  0
  -11.2270    3.3190   -0.9560 C   0  0  0  0  0  0  0  0  0  0  0  0
  -10.7920    4.5540    1.1660 C   0  0  0  0  0  0  0  0  0  0  0  0
  -11.8800    5.5270    0.9110 C   0  0  0  0  0  0  0  0  0  0  0  0
   -9.2790   -0.9480    0.0430 C   0  0  2  0  0  0  0  0  0  0  0  0
   -9.8620   -0.8990   -1.3600 C   0  0  0  0  0  0  0  0  0  0  0  0
  -10.3170   -1.2830    1.1320 C   0  0  1  0  0  0  0  0  0  0  0  0
  -10.8830   -0.3710    1.4460 H   0  0  0  0  0  0  0  0  0  0  0  0
  -11.3260   -2.3030    0.6480 C   0  0  0  0  0  0  0  0  0  0  0  0
  -12.5710   -1.7810   -0.0140 C   0  0  0  0  0  0  0  0  0  0  0  0
  -11.1820   -3.5000    0.8200 O   0  0  0  0  0  0  0  0  0  0  0  0
   -9.4820   -1.8160    2.3070 C   0  0  0  0  0  0  0  0  0  0  0  0
   -8.1320   -2.2590    1.7390 C   0  0  0  0  0  0  0  0  0  0  0  0
   -8.2200   -2.0770    0.2100 C   0  0  2  0  0  0  0  0  0  0  0  0
   -8.7190   -3.2180   -0.4280 O   0  0  0  0  0  0  0  0  0  0  0  0
   -2.7350   -1.0740   -1.5200 C   0  0  0  0  0  0  0  0  0  0  0  0
    1.3860   -0.0020   -1.9340 C   0  0  0  0  0  0  0  0  0  0  0  0
    2.7140   -0.4460   -1.3080 C   0  0  2  0  0  0  0  0  0  0  0  0
    3.5660   -0.1920   -1.9930 H   0  0  0  0  0  0  0  0  0  0  0  0
    2.6320   -1.8190   -1.0110 O   0  0  0  0  0  0  0  0  0  0  0  0
    3.2300   -2.6500   -1.9680 C   0  0  0  0  0  0  0  0  0  0  0  0
    2.8960    0.2810    0.0460 C   0  0  2  0  0  0  0  0  0  0  0  0
    3.0240    1.3790   -0.1510 H   0  0  0  0  0  0  0  0  0  0  0  0
    3.9720   -0.3100    0.7300 O   0  0  0  0  0  0  0  0  0  0  0  0
    5.1710    0.4130    0.7290 C   0  0  1  0  0  0  0  0  0  0  0  0
    5.0450    1.4900    1.0430 H   0  0  0  0  0  0  0  0  0  0  0  0
    6.1050   -0.3490    1.6840 C   0  0  0  0  0  0  0  0  0  0  0  0
    7.5310    0.1920    1.5340 C   0  0  2  0  0  0  0  0  0  0  0  0
    8.2450   -0.4210    2.1460 H   0  0  0  0  0  0  0  0  0  0  0  0
    7.5360    1.5560    1.8790 O   0  0  0  0  0  0  0  0  0  0  0  0
    7.9560    1.8140    3.1900 C   0  0  0  0  0  0  0  0  0  0  0  0
    7.9250    0.1200    0.0400 C   0  0  2  0  0  0  0  0  0  0  0  0
    7.9630   -0.9580   -0.2720 H   0  0  0  0  0  0  0  0  0  0  0  0
    9.1420    0.8070   -0.1250 O   0  0  0  0  0  0  0  0  0  0  0  0
   10.2660    0.0050   -0.3370 C   0  0  2  0  0  0  0  0  0  0  0  0
   10.1580   -0.6710   -1.2340 H   0  0  0  0  0  0  0  0  0  0  0  0
   10.4080   -0.7220    0.8580 O   0  0  0  0  0  0  0  0  0  0  0  0
   11.5580   -1.5320    0.8780 C   0  0  2  0  0  0  0  0  0  0  0  0
   11.5540   -2.2680    0.0270 H   0  0  0  0  0  0  0  0  0  0  0  0
   11.5040   -2.2680    2.2140 C   0  0  0  0  0  0  0  0  0  0  0  0
   12.8160   -0.6290    0.8020 C   0  0  1  0  0  0  0  0  0  0  0  0
   12.8610    0.0380    1.7040 H   0  0  0  0  0  0  0  0  0  0  0  0
   13.9080   -1.4890    0.6930 O   0  0  0  0  0  0  0  0  0  0  0  0
   12.7720    0.2230   -0.4910 C   0  0  2  0  0  0  0  0  0  0  0  0
   12.8590   -0.4320   -1.3990 H   0  0  0  0  0  0  0  0  0  0  0  0
   13.8390    1.1240   -0.3490 O   0  0  0  0  0  0  0  0  0  0  0  0
   14.4350    1.5230   -1.5560 C   0  0  0  0  0  0  0  0  0  0  0  0
   11.4420    1.0120   -0.5130 C   0  0  1  0  0  0  0  0  0  0  0  0
   11.4310    1.7800    0.3090 H   0  0  0  0  0  0  0  0  0  0  0  0
   11.3490    1.5830   -1.7800 O   0  0  0  0  0  0  0  0  0  0  0  0
    6.8850    0.8850   -0.8180 C   0  0  1  0  0  0  0  0  0  0  0  0
    6.8890    1.9790   -0.5620 H   0  0  0  0  0  0  0  0  0  0  0  0
    7.1670    0.6920   -2.3070 C   0  0  0  0  0  0  0  0  0  0  0  0
    5.6170    0.3150   -0.6060 O   0  0  0  0  0  0  0  0  0  0  0  0
    1.6580    0.0440    0.9490 C   0  0  1  0  0  0  0  0  0  0  0  0
    1.5760   -1.0420    1.2250 H   0  0  0  0  0  0  0  0  0  0  0  0
    1.7350    0.9020    2.2100 C   0  0  0  0  0  0  0  0  0  0  0  0
    0.5090    0.4900    0.2710 O   0  0  0  0  0  0  0  0  0  0  0  0
   -2.4930    2.2410   -0.4930 H   0  0  0  0  0  0  0  0  0  0  0  0
   -3.0420    1.6580   -2.0490 H   0  0  0  0  0  0  0  0  0  0  0  0
   -4.2210    0.9230    0.7200 H   0  0  0  0  0  0  0  0  0  0  0  0
   -4.9690    1.9970   -0.4480 H   0  0  0  0  0  0  0  0  0  0  0  0
   -4.4640    0.1390   -3.1400 H   0  0  0  0  0  0  0  0  0  0  0  0
   -6.0730   -0.5110   -2.9270 H   0  0  0  0  0  0  0  0  0  0  0  0
   -5.7550    1.2060   -2.6380 H   0  0  0  0  0  0  0  0  0  0  0  0
   -3.7950   -3.3630   -0.6320 H   0  0  0  0  0  0  0  0  0  0  0  0
   -6.1640   -3.8450   -0.4450 H   0  0  0  0  0  0  0  0  0  0  0  0
   -5.7540   -2.9410    1.0090 H   0  0  0  0  0  0  0  0  0  0  0  0
   -6.9970    1.6760   -0.3340 H   0  0  0  0  0  0  0  0  0  0  0  0
   -7.7270    0.6450   -1.5580 H   0  0  0  0  0  0  0  0  0  0  0  0
  -12.1220    2.6930   -0.7980 H   0  0  0  0  0  0  0  0  0  0  0  0
  -11.5680    4.2510   -1.4310 H   0  0  0  0  0  0  0  0  0  0  0  0
  -10.6050    2.8080   -1.7100 H   0  0  0  0  0  0  0  0  0  0  0  0
  -10.2190    4.6950    2.0920 H   0  0  0  0  0  0  0  0  0  0  0  0
  -12.0760    6.1770    1.7760 H   0  0  0  0  0  0  0  0  0  0  0  0
  -11.6380    6.1940    0.0690 H   0  0  0  0  0  0  0  0  0  0  0  0
  -12.8330    5.0320    0.6670 H   0  0  0  0  0  0  0  0  0  0  0  0
   -9.0910   -0.6670   -2.1110 H   0  0  0  0  0  0  0  0  0  0  0  0
  -10.3140   -1.8510   -1.6770 H   0  0  0  0  0  0  0  0  0  0  0  0
  -10.6410   -0.1330   -1.4690 H   0  0  0  0  0  0  0  0  0  0  0  0
  -12.5540   -0.7010   -0.2150 H   0  0  0  0  0  0  0  0  0  0  0  0
  -12.7540   -2.2840   -0.9750 H   0  0  0  0  0  0  0  0  0  0  0  0
  -13.4520   -1.9750    0.6160 H   0  0  0  0  0  0  0  0  0  0  0  0
   -9.3530   -1.0350    3.0820 H   0  0  0  0  0  0  0  0  0  0  0  0
   -9.9900   -2.6350    2.8510 H   0  0  0  0  0  0  0  0  0  0  0  0
   -7.3030   -1.6720    2.1800 H   0  0  0  0  0  0  0  0  0  0  0  0
   -7.8950   -3.3030    2.0280 H   0  0  0  0  0  0  0  0  0  0  0  0
   -8.8910   -3.9090    0.2200 H   0  0  0  0  0  0  0  0  0  0  0  0
   -2.7630   -0.9070   -2.6190 H   0  0  0  0  0  0  0  0  0  0  0  0
   -2.0980   -1.9770   -1.4070 H   0  0  0  0  0  0  0  0  0  0  0  0
    1.1760   -0.5610   -2.8670 H   0  0  0  0  0  0  0  0  0  0  0  0
    1.4430    1.0620   -2.2420 H   0  0  0  0  0  0  0  0  0  0  0  0
    2.8000   -2.5370   -2.9780 H   0  0  0  0  0  0  0  0  0  0  0  0
    4.3220   -2.5100   -2.0410 H   0  0  0  0  0  0  0  0  0  0  0  0
    3.0300   -3.6700   -1.6150 H   0  0  0  0  0  0  0  0  0  0  0  0
    5.7440   -0.2480    2.7270 H   0  0  0  0  0  0  0  0  0  0  0  0
    6.0840   -1.4390    1.4780 H   0  0  0  0  0  0  0  0  0  0  0  0
    7.3430    1.3090    3.9550 H   0  0  0  0  0  0  0  0  0  0  0  0
    9.0130    1.5540    3.3650 H   0  0  0  0  0  0  0  0  0  0  0  0
    7.8380    2.9030    3.3050 H   0  0  0  0  0  0  0  0  0  0  0  0
   10.6110   -2.9080    2.2890 H   0  0  0  0  0  0  0  0  0  0  0  0
   12.3800   -2.9190    2.3390 H   0  0  0  0  0  0  0  0  0  0  0  0
   11.4760   -1.5840    3.0750 H   0  0  0  0  0  0  0  0  0  0  0  0
   14.5760   -1.1860    1.3230 H   0  0  0  0  0  0  0  0  0  0  0  0
   14.9040    0.6840   -2.1000 H   0  0  0  0  0  0  0  0  0  0  0  0
   13.7490    2.0440   -2.2440 H   0  0  0  0  0  0  0  0  0  0  0  0
   15.2260    2.2230   -1.2470 H   0  0  0  0  0  0  0  0  0  0  0  0
   10.6020    2.1910   -1.7670 H   0  0  0  0  0  0  0  0  0  0  0  0
    7.1320   -0.3640   -2.6110 H   0  0  0  0  0  0  0  0  0  0  0  0
    6.4350    1.2240   -2.9310 H   0  0  0  0  0  0  0  0  0  0  0  0
    8.1620    1.0770   -2.5730 H   0  0  0  0  0  0  0  0  0  0  0  0
    1.7800    1.9780    1.9870 H   0  0  0  0  0  0  0  0  0  0  0  0
    0.8570    0.7530    2.8550 H   0  0  0  0  0  0  0  0  0  0  0  0
    2.6240    0.6510    2.8050 H   0  0  0  0  0  0  0  0  0  0  0  0
  2  1  1  1
  2 39  1  0
  2  3  1  0
  2 80  1  0
  3  4  1  0
  4 38  1  0
  4  6  1  0
  4  5  1  1
  6 82  1  0
  6 81  1  0
  6  7  1  0
  7  8  1  0
  7 84  1  0
  7 83  1  0
  8  9  1  6
  8 10  1  0
  8 15  1  0
  9 85  1  0
  9 86  1  0
  9 87  1  0
 10 38  1  0
 10 11  2  0
 11 88  1  0
 11 12  1  0
 12 13  1  0
 12 89  1  0
 12 90  1  0
 13 14  1  6
 13 15  1  0
 13 36  1  0
 15 17  1  0
 15 16  1  1
 17 92  1  0
 17 91  1  0
 17 18  1  0
 18 27  1  0
 18 20  1  0
 18 19  1  1
 20 21  1  0
 21 23  1  0
 21 22  2  0
 23 24  1  0
 23 25  2  0
 24 95  1  0
 24 94  1  0
 24 93  1  0
 25 26  1  0
 25 96  1  0
 26 98  1  0
 26 99  1  0
 26 97  1  0
 27 28  1  6
 27 36  1  0
 27 29  1  0
 28100  1  0
 28101  1  0
 28102  1  0
 29 31  1  0
 29 30  1  1
 29 34  1  0
 31 32  1  0
 31 33  2  0
 32104  1  0
 32103  1  0
 32105  1  0
 34 35  1  0
 34107  1  0
 34106  1  0
 35 36  1  0
 35109  1  0
 35108  1  0
 36 37  1  6
 37110  1  0
 38111  1  0
 38112  1  0
 39113  1  0
 39114  1  0
 39 40  1  0
 40 41  1  6
 40 42  1  0
 40 44  1  0
 42 43  1  0
 43115  1  0
 43116  1  0
 43117  1  0
 44 45  1  6
 44 46  1  0
 44 77  1  0
 46 47  1  0
 47 76  1  0
 47 48  1  1
 47 49  1  0
 49119  1  0
 49 50  1  0
 49118  1  0
 50 54  1  0
 50 52  1  0
 50 51  1  1
 52 53  1  0
 53122  1  0
 53121  1  0
 53120  1  0
 54 73  1  0
 54 55  1  6
 54 56  1  0
 56 57  1  0
 57 58  1  6
 57 70  1  0
 57 59  1  0
 59 60  1  0
 60 61  1  6
 60 63  1  0
 60 62  1  0
 62123  1  0
 62124  1  0
 62125  1  0
 63 66  1  0
 63 65  1  0
 63 64  1  1
 65126  1  0
 66 67  1  6
 66 70  1  0
 66 68  1  0
 68 69  1  0
 69128  1  0
 69127  1  0
 69129  1  0
 70 72  1  0
 70 71  1  1
 72130  1  0
 73 75  1  0
 73 76  1  0
 73 74  1  1
 75132  1  0
 75131  1  0
 75133  1  0
 77 80  1  0
 77 78  1  1
 77 79  1  0
 79134  1  0
 79136  1  0
 79135  1  0
M  END
>  <id>  (352) 
454

>  <scaffolds>  (352) 
['C1=C2CCCCC2C2CCC3CCCC3C2C1', 'C1=CCCCC1', 'C1=CCC2CCCCC2C1', 'C1CCOCC1', 'C1=C2CC(OC3CCCCO3)CCC2C2CCC3CCCC3C2C1', 'C1CCCCC1', 'C1=C2CCCCC2CCC1', 'C1CCC(OC2CCCOC2)OC1', 'C1=C2CC(OC3CCC(OC4CCC(OC5CCCCO5)CO4)CO3)CCC2C2CCC3CCCC3C2C1']

>  <name>  (352) 
Pregn-5-en-20-one, 3-[(O-6-deoxy-3-O-methyl-[beta]-D-glucopyranosyl-(1[to]4)-O-2,6-dideoxy-3-O-methyl-[beta]-D-ribo-hexopyranosyl-(1[to]4)-2,6-dideoxy-3-O-methyl-[beta]-D-ribo-hexopyranosyl)oxy]-14-hydroxy-12-[[(2E)-2-methyl-1-oxo-2-buten-1-yl]oxy]-, (3[b

>  <formula>  (352) 
C47H74O15

>  <SMILES>  (352) 
[H][C@]7(O[C@H]4CC[C@@]1(C)C(=CC[C@]2([H])[C@]1([H])C[C@@H](OC(=O)/C(C)=C/C)[C@]3(C)[C@@H](C(C)=O)CC[C@]23O)C4)C[C@H](OC)[C@H](O[C@@]6([H])C[C@H](OC)[C@H](O[C@]5([H])O[C@H](C)[C@@H](O)[C@H](OC)[C@H]5O)[C@@H](C)O6)[C@@H](C)O7

>  <ChEMBL_id>  (352) 


>  <ZINC_id>  (352) 


>  <PubChem_id>  (352) 


>  <DrugBank_id>  (352) 


>  <CAS_no>  (352) 
384329-61-7

>  <references>  (352) 
[{'journal': {'name': 'Phytochemistry', 'id': 10}, 'title': 'An appetite suppressant from Hoodia species', 'year': 2007, 'start_page': 2545, 'volume': 68, 'issue': None, 'doi': '10.1016/j.phytochem.2007.05.022', 'isbn': '', 'despositor': {'code': 'DLP', 'first_name': 'David', 'last_name': 'Penkler', 'id': 23}, 'refauthors_set': [{'author': {'first_name': 'Fanie', 'initials': 'FR', 'last_name': 'Van Heerden', 'id': 634}, 'first_author': True, 'id': 956}, {'author': {'first_name': '', 'initials': 'R', 'last_name': 'Marthinus Horak', 'id': 695}, 'first_author': False, 'id': 957}, {'author': {'first_name': '', 'initials': 'VJ', 'last_name': 'Maharaj', 'id': 675}, 'first_author': False, 'id': 958}, {'author': {'first_name': 'Robert', 'initials': 'R', 'last_name': 'Vleggaar', 'id': 696}, 'first_author': False, 'id': 959}, {'author': {'first_name': '', 'initials': 'J', 'last_name': 'Senabe', 'id': 676}, 'first_author': False, 'id': 960}, {'author': {'first_name': 'Philip', 'initials': 'Pj', 'last_name': 'Gunning', 'id': 697}, 'first_author': False, 'id': 961}], 'id': 321}]

>  <classifications>  (352) 
[{'classification': 'Glycoside', 'id': 781}, {'classification': 'Pregnane', 'id': 813}, {'classification': 'Steroid', 'id': 835}, {'classification': 'Steroids and steroid derivatives (Classyfire)', 'id': 942}]

>  <molecular_mass>  (352) 
879.08

$$$$
SANC00455_minRM1.pdb
     RDKit          3D

158165  0  0  1  0  0  0  0  0999 V2000
   -2.3210   -0.9120   -1.4090 H   0  0  0  0  0  0  0  0  0  0  0  0
   -2.1790    0.1890   -1.2170 C   0  0  1  0  0  0  0  0  0  0  0  0
   -3.3380    0.9460   -1.4170 O   0  0  0  0  0  0  0  0  0  0  0  0
   -4.5170    0.4030   -0.8600 C   0  0  1  0  0  0  0  0  0  0  0  0
   -4.3230   -0.2100    0.0600 H   0  0  0  0  0  0  0  0  0  0  0  0
   -5.4000    1.6050   -0.5120 C   0  0  0  0  0  0  0  0  0  0  0  0
   -6.7220    1.0950    0.0390 C   0  0  0  0  0  0  0  0  0  0  0  0
   -7.4720    0.1970   -0.9610 C   0  0  1  0  0  0  0  0  0  0  0  0
   -7.8880    1.0140   -2.1870 C   0  0  0  0  0  0  0  0  0  0  0  0
   -6.5560   -0.8900   -1.4430 C   0  0  0  0  0  0  0  0  0  0  0  0
   -6.9050   -2.1730   -1.5080 C   0  0  0  0  0  0  0  0  0  0  0  0
   -8.2180   -2.6940   -1.0520 C   0  0  0  0  0  0  0  0  0  0  0  0
   -9.2740   -1.5920   -0.9790 C   0  0  2  0  0  0  0  0  0  0  0  0
   -9.5230   -1.2720   -2.0260 H   0  0  0  0  0  0  0  0  0  0  0  0
   -8.7030   -0.3940   -0.2250 C   0  0  2  0  0  0  0  0  0  0  0  0
   -8.3580   -0.7440    0.7830 H   0  0  0  0  0  0  0  0  0  0  0  0
   -9.7890    0.6620   -0.0330 C   0  0  0  0  0  0  0  0  0  0  0  0
  -10.9340    0.0620    0.7820 C   0  0  1  0  0  0  0  0  0  0  0  0
  -10.5590   -0.3100    1.7730 H   0  0  0  0  0  0  0  0  0  0  0  0
  -11.9370    1.0460    0.9800 O   0  0  0  0  0  0  0  0  0  0  0  0
  -11.7240    2.0200    1.9000 C   0  0  0  0  0  0  0  0  0  0  0  0
  -10.7170    2.0220    2.5880 O   0  0  0  0  0  0  0  0  0  0  0  0
  -12.8310    2.9900    1.9670 C   0  0  0  0  0  0  0  0  0  0  0  0
  -13.6290    3.2220    0.7380 C   0  0  0  0  0  0  0  0  0  0  0  0
  -13.0630    3.6030    3.1320 C   0  0  0  0  0  0  0  0  0  0  0  0
  -14.1630    4.5800    3.3150 C   0  0  0  0  0  0  0  0  0  0  0  0
  -11.6300   -1.0690   -0.0140 C   0  0  2  0  0  0  0  0  0  0  0  0
  -12.3040   -0.5170   -1.2590 C   0  0  0  0  0  0  0  0  0  0  0  0
  -12.5960   -1.8070    0.9350 C   0  0  1  0  0  0  0  0  0  0  0  0
  -13.1340   -1.0900    1.6030 H   0  0  0  0  0  0  0  0  0  0  0  0
  -13.6380   -2.5910    0.1660 C   0  0  0  0  0  0  0  0  0  0  0  0
  -14.9270   -1.8900   -0.1600 C   0  0  0  0  0  0  0  0  0  0  0  0
  -13.4810   -3.7560   -0.1480 O   0  0  0  0  0  0  0  0  0  0  0  0
  -11.6910   -2.7270    1.7700 C   0  0  0  0  0  0  0  0  0  0  0  0
  -10.3750   -2.8840    1.0040 C   0  0  0  0  0  0  0  0  0  0  0  0
  -10.5650   -2.1540   -0.3420 C   0  0  2  0  0  0  0  0  0  0  0  0
  -11.1100   -2.9900   -1.3210 O   0  0  0  0  0  0  0  0  0  0  0  0
   -5.2110   -0.4540   -1.9270 C   0  0  0  0  0  0  0  0  0  0  0  0
   -1.1110    0.7930   -2.1440 C   0  0  0  0  0  0  0  0  0  0  0  0
    0.2580    0.2050   -1.7830 C   0  0  2  0  0  0  0  0  0  0  0  0
    1.0640    0.7070   -2.3810 H   0  0  0  0  0  0  0  0  0  0  0  0
    0.2160   -1.1890   -1.9750 O   0  0  0  0  0  0  0  0  0  0  0  0
    0.7500   -1.6120   -3.1990 C   0  0  0  0  0  0  0  0  0  0  0  0
    0.5070    0.4290   -0.2730 C   0  0  2  0  0  0  0  0  0  0  0  0
    0.5870    1.5340   -0.0860 H   0  0  0  0  0  0  0  0  0  0  0  0
    1.6450   -0.3010    0.1100 O   0  0  0  0  0  0  0  0  0  0  0  0
    2.8140    0.4450    0.3040 C   0  0  1  0  0  0  0  0  0  0  0  0
    2.6670    1.3440    0.9710 H   0  0  0  0  0  0  0  0  0  0  0  0
    3.8350   -0.5360    0.9030 C   0  0  0  0  0  0  0  0  0  0  0  0
    5.2240    0.1140    0.8880 C   0  0  2  0  0  0  0  0  0  0  0  0
    5.9980   -0.6230    1.2310 H   0  0  0  0  0  0  0  0  0  0  0  0
    5.1820    1.2810    1.6730 O   0  0  0  0  0  0  0  0  0  0  0  0
    5.7060    1.1270    2.9650 C   0  0  0  0  0  0  0  0  0  0  0  0
    5.5330    0.5700   -0.5570 C   0  0  2  0  0  0  0  0  0  0  0  0
    5.6030   -0.3380   -1.2150 H   0  0  0  0  0  0  0  0  0  0  0  0
    6.7030    1.3510   -0.5350 O   0  0  0  0  0  0  0  0  0  0  0  0
    7.8630    0.7320   -1.0090 C   0  0  2  0  0  0  0  0  0  0  0  0
    7.7460    0.3160   -2.0500 H   0  0  0  0  0  0  0  0  0  0  0  0
    8.1310   -0.2730   -0.0660 O   0  0  0  0  0  0  0  0  0  0  0  0
    9.3390   -0.9520   -0.3120 C   0  0  2  0  0  0  0  0  0  0  0  0
    9.3430   -1.4110   -1.3380 H   0  0  0  0  0  0  0  0  0  0  0  0
    9.4010   -2.0480    0.7460 C   0  0  0  0  0  0  0  0  0  0  0  0
   10.5210    0.0420   -0.1660 C   0  0  1  0  0  0  0  0  0  0  0  0
   10.5640    0.4560    0.8740 H   0  0  0  0  0  0  0  0  0  0  0  0
   11.6760   -0.6550   -0.5640 O   0  0  0  0  0  0  0  0  0  0  0  0
   12.6140   -0.9120    0.4460 C   0  0  1  0  0  0  0  0  0  0  0  0
   12.1500   -1.3210    1.3890 H   0  0  0  0  0  0  0  0  0  0  0  0
   13.6220   -1.9030   -0.1650 C   0  0  0  0  0  0  0  0  0  0  0  0
   14.8290   -2.0270    0.7740 C   0  0  2  0  0  0  0  0  0  0  0  0
   15.6280   -2.6590    0.3000 H   0  0  0  0  0  0  0  0  0  0  0  0
   14.3800   -2.5290    2.0080 O   0  0  0  0  0  0  0  0  0  0  0  0
   14.6530   -3.8870    2.2140 C   0  0  0  0  0  0  0  0  0  0  0  0
   15.3900   -0.6100    1.0460 C   0  0  2  0  0  0  0  0  0  0  0  0
   15.7850   -0.1900    0.0800 H   0  0  0  0  0  0  0  0  0  0  0  0
   16.4040   -0.7950    1.9850 O   0  0  0  0  0  0  0  0  0  0  0  0
   14.2650    0.3010    1.6010 C   0  0  1  0  0  0  0  0  0  0  0  0
   13.9150   -0.0780    2.6000 H   0  0  0  0  0  0  0  0  0  0  0  0
   14.7310    1.7500    1.7280 C   0  0  0  0  0  0  0  0  0  0  0  0
   13.2140    0.3420    0.6640 O   0  0  0  0  0  0  0  0  0  0  0  0
   10.3390    1.1940   -1.1870 C   0  0  2  0  0  0  0  0  0  0  0  0
   10.4220    0.8060   -2.2360 H   0  0  0  0  0  0  0  0  0  0  0  0
   11.3030    2.1560   -0.8540 O   0  0  0  0  0  0  0  0  0  0  0  0
   11.9150    2.7720   -1.9560 C   0  0  0  0  0  0  0  0  0  0  0  0
    8.9520    1.8400   -0.9500 C   0  0  1  0  0  0  0  0  0  0  0  0
    8.9320    2.3580    0.0480 H   0  0  0  0  0  0  0  0  0  0  0  0
    8.7510    2.7160   -2.0140 O   0  0  0  0  0  0  0  0  0  0  0  0
    4.4120    1.5110   -1.0660 C   0  0  1  0  0  0  0  0  0  0  0  0
    4.3850    2.4560   -0.4570 H   0  0  0  0  0  0  0  0  0  0  0  0
    4.6110    1.8420   -2.5440 C   0  0  0  0  0  0  0  0  0  0  0  0
    3.1830    0.8290   -1.0010 O   0  0  0  0  0  0  0  0  0  0  0  0
   -0.6640   -0.1630    0.5520 C   0  0  1  0  0  0  0  0  0  0  0  0
   -0.7040   -1.2800    0.4290 H   0  0  0  0  0  0  0  0  0  0  0  0
   -0.5260    0.2000    2.0300 C   0  0  0  0  0  0  0  0  0  0  0  0
   -1.8630    0.4430    0.1360 O   0  0  0  0  0  0  0  0  0  0  0  0
   -4.8900    2.2530    0.2320 H   0  0  0  0  0  0  0  0  0  0  0  0
   -5.5460    2.2670   -1.3900 H   0  0  0  0  0  0  0  0  0  0  0  0
   -6.5360    0.5460    0.9880 H   0  0  0  0  0  0  0  0  0  0  0  0
   -7.3590    1.9540    0.3420 H   0  0  0  0  0  0  0  0  0  0  0  0
   -7.0480    1.2340   -2.8620 H   0  0  0  0  0  0  0  0  0  0  0  0
   -8.6340    0.4930   -2.8060 H   0  0  0  0  0  0  0  0  0  0  0  0
   -8.3110    1.9940   -1.9240 H   0  0  0  0  0  0  0  0  0  0  0  0
   -6.2130   -2.9350   -1.8840 H   0  0  0  0  0  0  0  0  0  0  0  0
   -8.5650   -3.5080   -1.7270 H   0  0  0  0  0  0  0  0  0  0  0  0
   -8.0500   -3.1910   -0.0720 H   0  0  0  0  0  0  0  0  0  0  0  0
   -9.3730    1.5600    0.4700 H   0  0  0  0  0  0  0  0  0  0  0  0
  -10.1840    1.0400   -1.0010 H   0  0  0  0  0  0  0  0  0  0  0  0
  -14.5200    2.5750    0.7220 H   0  0  0  0  0  0  0  0  0  0  0  0
  -13.9810    4.2610    0.6480 H   0  0  0  0  0  0  0  0  0  0  0  0
  -13.0670    3.0110   -0.1840 H   0  0  0  0  0  0  0  0  0  0  0  0
  -12.4360    3.4040    4.0100 H   0  0  0  0  0  0  0  0  0  0  0  0
  -14.2980    4.8680    4.3660 H   0  0  0  0  0  0  0  0  0  0  0  0
  -13.9690    5.5120    2.7590 H   0  0  0  0  0  0  0  0  0  0  0  0
  -15.1330    4.1900    2.9660 H   0  0  0  0  0  0  0  0  0  0  0  0
  -11.5870    0.0090   -1.9090 H   0  0  0  0  0  0  0  0  0  0  0  0
  -12.7650   -1.2940   -1.8850 H   0  0  0  0  0  0  0  0  0  0  0  0
  -13.0980    0.2060   -1.0260 H   0  0  0  0  0  0  0  0  0  0  0  0
  -14.9260   -0.8160    0.0710 H   0  0  0  0  0  0  0  0  0  0  0  0
  -15.1810   -1.9880   -1.2250 H   0  0  0  0  0  0  0  0  0  0  0  0
  -15.7600   -2.3350    0.4040 H   0  0  0  0  0  0  0  0  0  0  0  0
  -11.5180   -2.3000    2.7790 H   0  0  0  0  0  0  0  0  0  0  0  0
  -12.1640   -3.7060    1.9840 H   0  0  0  0  0  0  0  0  0  0  0  0
   -9.5260   -2.4720    1.5830 H   0  0  0  0  0  0  0  0  0  0  0  0
  -10.1080   -3.9520    0.8730 H   0  0  0  0  0  0  0  0  0  0  0  0
  -11.2040   -3.8820   -0.9760 H   0  0  0  0  0  0  0  0  0  0  0  0
   -5.3180    0.1100   -2.8800 H   0  0  0  0  0  0  0  0  0  0  0  0
   -4.5690   -1.3180   -2.2030 H   0  0  0  0  0  0  0  0  0  0  0  0
   -1.3690    0.5920   -3.2020 H   0  0  0  0  0  0  0  0  0  0  0  0
   -1.0890    1.8990   -2.0580 H   0  0  0  0  0  0  0  0  0  0  0  0
    0.2440   -1.1710   -4.0750 H   0  0  0  0  0  0  0  0  0  0  0  0
    1.8320   -1.4200   -3.2920 H   0  0  0  0  0  0  0  0  0  0  0  0
    0.5820   -2.6990   -3.2090 H   0  0  0  0  0  0  0  0  0  0  0  0
    3.5320   -0.8180    1.9320 H   0  0  0  0  0  0  0  0  0  0  0  0
    3.8510   -1.4910    0.3350 H   0  0  0  0  0  0  0  0  0  0  0  0
    5.5480    2.1040    3.4460 H   0  0  0  0  0  0  0  0  0  0  0  0
    5.1890    0.3520    3.5570 H   0  0  0  0  0  0  0  0  0  0  0  0
    6.7860    0.9030    2.9690 H   0  0  0  0  0  0  0  0  0  0  0  0
    8.5150   -2.6980    0.7090 H   0  0  0  0  0  0  0  0  0  0  0  0
   10.2750   -2.6970    0.5930 H   0  0  0  0  0  0  0  0  0  0  0  0
    9.4570   -1.6490    1.7660 H   0  0  0  0  0  0  0  0  0  0  0  0
   13.1380   -2.8860   -0.3270 H   0  0  0  0  0  0  0  0  0  0  0  0
   13.9500   -1.5710   -1.1720 H   0  0  0  0  0  0  0  0  0  0  0  0
   14.1960   -4.1170    3.1880 H   0  0  0  0  0  0  0  0  0  0  0  0
   14.2030   -4.5410    1.4480 H   0  0  0  0  0  0  0  0  0  0  0  0
   15.7310   -4.1100    2.2720 H   0  0  0  0  0  0  0  0  0  0  0  0
   16.8510    0.0480    2.0970 H   0  0  0  0  0  0  0  0  0  0  0  0
   15.1770    2.1350    0.8000 H   0  0  0  0  0  0  0  0  0  0  0  0
   13.8940    2.4230    1.9690 H   0  0  0  0  0  0  0  0  0  0  0  0
   15.4710    1.8700    2.5310 H   0  0  0  0  0  0  0  0  0  0  0  0
   11.2040    3.2760   -2.6310 H   0  0  0  0  0  0  0  0  0  0  0  0
   12.5740    3.5290   -1.5050 H   0  0  0  0  0  0  0  0  0  0  0  0
   12.5340    2.0740   -2.5470 H   0  0  0  0  0  0  0  0  0  0  0  0
    7.9940    3.2680   -1.7900 H   0  0  0  0  0  0  0  0  0  0  0  0
    4.6040    0.9460   -3.1830 H   0  0  0  0  0  0  0  0  0  0  0  0
    3.8180    2.5030   -2.9220 H   0  0  0  0  0  0  0  0  0  0  0  0
    5.5680    2.3570   -2.7080 H   0  0  0  0  0  0  0  0  0  0  0  0
   -0.5150    1.2860    2.2000 H   0  0  0  0  0  0  0  0  0  0  0  0
   -1.3570   -0.2040    2.6250 H   0  0  0  0  0  0  0  0  0  0  0  0
    0.4030   -0.2100    2.4490 H   0  0  0  0  0  0  0  0  0  0  0  0
  2  1  1  1
  2 39  1  0
  2  3  1  0
  2 94  1  0
  3  4  1  0
  4 38  1  0
  4  6  1  0
  4  5  1  1
  6 96  1  0
  6  7  1  0
  6 95  1  0
  7  8  1  0
  7 98  1  0
  7 97  1  0
  8  9  1  6
  8 10  1  0
  8 15  1  0
  9 99  1  0
  9100  1  0
  9101  1  0
 10 38  1  0
 10 11  2  0
 11102  1  0
 11 12  1  0
 12103  1  0
 12 13  1  0
 12104  1  0
 13 14  1  6
 13 36  1  0
 13 15  1  0
 15 17  1  0
 15 16  1  1
 17106  1  0
 17105  1  0
 17 18  1  0
 18 27  1  0
 18 20  1  0
 18 19  1  1
 20 21  1  0
 21 23  1  0
 21 22  2  0
 23 24  1  0
 23 25  2  0
 24109  1  0
 24108  1  0
 24107  1  0
 25 26  1  0
 25110  1  0
 26112  1  0
 26113  1  0
 26111  1  0
 27 28  1  6
 27 36  1  0
 27 29  1  0
 28114  1  0
 28115  1  0
 28116  1  0
 29 31  1  0
 29 30  1  1
 29 34  1  0
 31 32  1  0
 31 33  2  0
 32118  1  0
 32117  1  0
 32119  1  0
 34 35  1  0
 34121  1  0
 34120  1  0
 35 36  1  0
 35123  1  0
 35122  1  0
 36 37  1  6
 37124  1  0
 38125  1  0
 38126  1  0
 39127  1  0
 39128  1  0
 39 40  1  0
 40 41  1  6
 40 42  1  0
 40 44  1  0
 42 43  1  0
 43129  1  0
 43130  1  0
 43131  1  0
 44 45  1  6
 44 46  1  0
 44 91  1  0
 46 47  1  0
 47 90  1  0
 47 49  1  0
 47 48  1  1
 49133  1  0
 49 50  1  0
 49132  1  0
 50 54  1  0
 50 51  1  1
 50 52  1  0
 52 53  1  0
 53136  1  0
 53134  1  0
 53135  1  0
 54 55  1  6
 54 87  1  0
 54 56  1  0
 56 57  1  0
 57 58  1  6
 57 84  1  0
 57 59  1  0
 59 60  1  0
 60 61  1  6
 60 63  1  0
 60 62  1  0
 62138  1  0
 62137  1  0
 62139  1  0
 63 80  1  0
 63 65  1  0
 63 64  1  1
 65 66  1  0
 66 68  1  0
 66 79  1  0
 66 67  1  1
 68141  1  0
 68140  1  0
 68 69  1  0
 69 70  1  6
 69 73  1  0
 69 71  1  0
 71 72  1  0
 72143  1  0
 72144  1  0
 72142  1  0
 73 74  1  6
 73 76  1  0
 73 75  1  0
 75145  1  0
 76 79  1  0
 76 78  1  0
 76 77  1  1
 78146  1  0
 78147  1  0
 78148  1  0
 80 81  1  6
 80 84  1  0
 80 82  1  0
 82 83  1  0
 83149  1  0
 83151  1  0
 83150  1  0
 84 86  1  0
 84 85  1  1
 86152  1  0
 87 89  1  0
 87 90  1  0
 87 88  1  1
 89153  1  0
 89154  1  0
 89155  1  0
 91 94  1  0
 91 92  1  1
 91 93  1  0
 93156  1  0
 93158  1  0
 93157  1  0
M  END
>  <id>  (353) 
455

>  <scaffolds>  (353) 
['C1=C2CCCCC2C2CCC3CCCC3C2C1', 'C1=CCCCC1', 'C1=CCC2CCCCC2C1', 'C1CCOCC1', 'C1=C2CC(OC3CCCCO3)CCC2C2CCC3CCCC3C2C1', 'C1CCCCC1', 'C1=C2CC(OC3CCC(OC4CCC(OC5CCC(OC6CCCCO6)CO5)CO4)CO3)CCC2C2CCC3CCCC3C2C1', 'C1=C2CCCCC2CCC1', 'C1CCC(OC2CCCOC2)OC1', 'C1=C2CC(OC3CCC(OC4CCC(OC5CCCCO5)CO4)CO3)CCC2C2CCC3CCCC3C2C1']

>  <name>  (353) 
Pregn-5-en-20-one, 3-[(O-2,6-dideoxy-3-O-methyl-[beta]-D-ribo-hexopyranosyl-(1[to]4)-O-6-deoxy-3-O-methyl-[beta]-D-glucopyranosyl-(1[to]4)-O-2,6-dideoxy-3-O-methyl-[beta]-D-ribo-hexopyranosyl-(1[to]4)-2,6-dideoxy-3-O-methyl-[beta]-D-ribo-hexopyranosyl)oxy

>  <formula>  (353) 
C54H86O18

>  <SMILES>  (353) 
[H][C@]8(O[C@H]4CC[C@@]1(C)C(=CC[C@]2([H])[C@]1([H])C[C@@H](OC(=O)/C(C)=C/C)[C@]3(C)[C@@H](C(C)=O)CC[C@]23O)C4)C[C@H](OC)[C@H](O[C@@]7([H])C[C@H](OC)[C@H](O[C@]6([H])O[C@H](C)[C@@H](O[C@@]5([H])C[C@H](OC)[C@H](O)[C@@H](C)O5)[C@H](OC)[C@H]6O)[C@@H](C)O7)[C@@H](C)O8

>  <ChEMBL_id>  (353) 


>  <ZINC_id>  (353) 


>  <PubChem_id>  (353) 


>  <DrugBank_id>  (353) 


>  <CAS_no>  (353) 
957217-38-8

>  <references>  (353) 
[{'journal': {'name': 'Phytochemistry', 'id': 10}, 'title': 'An appetite suppressant from Hoodia species', 'year': 2007, 'start_page': 2545, 'volume': 68, 'issue': None, 'doi': '10.1016/j.phytochem.2007.05.022', 'isbn': '', 'despositor': {'code': 'DLP', 'first_name': 'David', 'last_name': 'Penkler', 'id': 23}, 'refauthors_set': [{'author': {'first_name': 'Fanie', 'initials': 'FR', 'last_name': 'Van Heerden', 'id': 634}, 'first_author': True, 'id': 956}, {'author': {'first_name': '', 'initials': 'R', 'last_name': 'Marthinus Horak', 'id': 695}, 'first_author': False, 'id': 957}, {'author': {'first_name': '', 'initials': 'VJ', 'last_name': 'Maharaj', 'id': 675}, 'first_author': False, 'id': 958}, {'author': {'first_name': 'Robert', 'initials': 'R', 'last_name': 'Vleggaar', 'id': 696}, 'first_author': False, 'id': 959}, {'author': {'first_name': '', 'initials': 'J', 'last_name': 'Senabe', 'id': 676}, 'first_author': False, 'id': 960}, {'author': {'first_name': 'Philip', 'initials': 'Pj', 'last_name': 'Gunning', 'id': 697}, 'first_author': False, 'id': 961}], 'id': 321}]

>  <classifications>  (353) 
[{'classification': 'Glycoside', 'id': 781}, {'classification': 'Pregnane', 'id': 813}, {'classification': 'Steroid', 'id': 835}, {'classification': 'Steroids and steroid derivatives (Classyfire)', 'id': 942}]

>  <molecular_mass>  (353) 
1023.25

$$$$
SANC00456_minRM1.pdb
     RDKit          3D

 69 72  0  0  1  0  0  0  0  0999 V2000
    1.2650    0.0030   -1.7300 H   0  0  0  0  0  0  0  0  0  0  0  0
    1.3940   -0.1490   -0.6190 C   0  0  1  0  0  0  0  0  0  0  0  0
    0.1800   -0.9220   -0.1140 C   0  0  0  0  0  0  0  0  0  0  0  0
   -1.1010   -0.1840   -0.5060 C   0  0  1  0  0  0  0  0  0  0  0  0
   -1.1820   -0.1490   -1.6270 H   0  0  0  0  0  0  0  0  0  0  0  0
   -2.2160   -0.8740    0.0370 O   0  0  0  0  0  0  0  0  0  0  0  0
   -2.6100   -2.0380   -0.5350 C   0  0  0  0  0  0  0  0  0  0  0  0
   -2.0810   -2.4440   -1.5570 O   0  0  0  0  0  0  0  0  0  0  0  0
   -3.7230   -2.6800    0.1870 C   0  0  0  0  0  0  0  0  0  0  0  0
   -3.8550   -2.4370    1.6440 C   0  0  0  0  0  0  0  0  0  0  0  0
   -4.5690   -3.4480   -0.5120 C   0  0  0  0  0  0  0  0  0  0  0  0
   -5.7290   -4.1270    0.1130 C   0  0  0  0  0  0  0  0  0  0  0  0
   -1.1730    1.2440    0.0940 C   0  0  2  0  0  0  0  0  0  0  0  0
   -1.4680    1.2150    1.5840 C   0  0  0  0  0  0  0  0  0  0  0  0
   -2.2570    2.0250   -0.6880 C   0  0  1  0  0  0  0  0  0  0  0  0
   -3.1510    1.3800   -0.8700 H   0  0  0  0  0  0  0  0  0  0  0  0
   -2.7130    3.2670    0.0510 C   0  0  0  0  0  0  0  0  0  0  0  0
   -4.0420    3.1800    0.7520 C   0  0  0  0  0  0  0  0  0  0  0  0
   -2.0860    4.3080    0.0340 O   0  0  0  0  0  0  0  0  0  0  0  0
   -1.5840    2.4160   -2.0110 C   0  0  0  0  0  0  0  0  0  0  0  0
   -0.0750    2.3020   -1.7890 C   0  0  0  0  0  0  0  0  0  0  0  0
    0.1340    2.0040   -0.2830 C   0  0  1  0  0  0  0  0  0  0  0  0
    0.1430    3.1680    0.4850 O   0  0  0  0  0  0  0  0  0  0  0  0
    1.4620    1.2470    0.0070 C   0  0  1  0  0  0  0  0  0  0  0  0
    1.7520    1.2000    1.5050 C   0  0  0  0  0  0  0  0  0  0  0  0
    2.6310    2.0030   -0.6480 C   0  0  0  0  0  0  0  0  0  0  0  0
    3.8890    1.2180   -0.5750 C   0  0  0  0  0  0  0  0  0  0  0  0
    3.9140   -0.1130   -0.5050 C   0  0  0  0  0  0  0  0  0  0  0  0
    5.2220   -0.8380   -0.5220 C   0  0  0  0  0  0  0  0  0  0  0  0
    5.0920   -2.2360    0.1040 C   0  0  1  0  0  0  0  0  0  0  0  0
    4.7120   -2.9770   -0.6520 H   0  0  0  0  0  0  0  0  0  0  0  0
    6.3820   -2.5810    0.5260 O   0  0  0  0  0  0  0  0  0  0  0  0
    4.1250   -2.1520    1.2920 C   0  0  0  0  0  0  0  0  0  0  0  0
    2.7140   -1.8750    0.7850 C   0  0  0  0  0  0  0  0  0  0  0  0
    2.6910   -0.9670   -0.4560 C   0  0  1  0  0  0  0  0  0  0  0  0
    0.1800   -1.9440   -0.5520 H   0  0  0  0  0  0  0  0  0  0  0  0
    0.2130   -1.1000    0.9800 H   0  0  0  0  0  0  0  0  0  0  0  0
   -4.5990   -1.6490    1.8450 H   0  0  0  0  0  0  0  0  0  0  0  0
   -4.1780   -3.3350    2.1920 H   0  0  0  0  0  0  0  0  0  0  0  0
   -2.9160   -2.1160    2.1180 H   0  0  0  0  0  0  0  0  0  0  0  0
   -4.4310   -3.6100   -1.5870 H   0  0  0  0  0  0  0  0  0  0  0  0
   -5.4080   -4.9390    0.7850 H   0  0  0  0  0  0  0  0  0  0  0  0
   -6.3420   -3.4370    0.7140 H   0  0  0  0  0  0  0  0  0  0  0  0
   -6.4020   -4.5830   -0.6270 H   0  0  0  0  0  0  0  0  0  0  0  0
   -0.7200    0.6310    2.1450 H   0  0  0  0  0  0  0  0  0  0  0  0
   -1.4720    2.2160    2.0420 H   0  0  0  0  0  0  0  0  0  0  0  0
   -2.4460    0.7690    1.8140 H   0  0  0  0  0  0  0  0  0  0  0  0
   -4.1350    2.2760    1.3700 H   0  0  0  0  0  0  0  0  0  0  0  0
   -4.2270    4.0400    1.4130 H   0  0  0  0  0  0  0  0  0  0  0  0
   -4.8620    3.1590    0.0180 H   0  0  0  0  0  0  0  0  0  0  0  0
   -1.9240    1.7650   -2.8420 H   0  0  0  0  0  0  0  0  0  0  0  0
   -1.8740    3.4310   -2.3480 H   0  0  0  0  0  0  0  0  0  0  0  0
    0.3630    1.4990   -2.4190 H   0  0  0  0  0  0  0  0  0  0  0  0
    0.4480    3.2230   -2.1160 H   0  0  0  0  0  0  0  0  0  0  0  0
    0.3600    3.9210   -0.0720 H   0  0  0  0  0  0  0  0  0  0  0  0
    0.9730    0.6790    2.0820 H   0  0  0  0  0  0  0  0  0  0  0  0
    2.7100    0.7100    1.7340 H   0  0  0  0  0  0  0  0  0  0  0  0
    1.8270    2.2040    1.9520 H   0  0  0  0  0  0  0  0  0  0  0  0
    2.4600    2.2310   -1.7220 H   0  0  0  0  0  0  0  0  0  0  0  0
    2.7610    3.0000   -0.1740 H   0  0  0  0  0  0  0  0  0  0  0  0
    4.8140    1.8040   -0.6180 H   0  0  0  0  0  0  0  0  0  0  0  0
    5.5920   -0.9160   -1.5670 H   0  0  0  0  0  0  0  0  0  0  0  0
    6.0050   -0.2480    0.0050 H   0  0  0  0  0  0  0  0  0  0  0  0
    6.3420   -3.4720    0.8840 H   0  0  0  0  0  0  0  0  0  0  0  0
    4.1440   -3.0820    1.8970 H   0  0  0  0  0  0  0  0  0  0  0  0
    4.4590   -1.3590    1.9950 H   0  0  0  0  0  0  0  0  0  0  0  0
    2.2080   -2.8350    0.5430 H   0  0  0  0  0  0  0  0  0  0  0  0
    2.1060   -1.4620    1.6170 H   0  0  0  0  0  0  0  0  0  0  0  0
    2.7470   -1.6420   -1.3550 H   0  0  0  0  0  0  0  0  0  0  0  0
  2  1  1  6
  2 35  1  0
  2  3  1  0
  2 24  1  0
  3 36  1  0
  3  4  1  0
  3 37  1  0
  4  5  1  6
  4  6  1  0
  4 13  1  0
  6  7  1  0
  7  8  2  0
  7  9  1  0
  9 11  2  0
  9 10  1  0
 10 38  1  0
 10 40  1  0
 10 39  1  0
 11 41  1  0
 11 12  1  0
 12 44  1  0
 12 43  1  0
 12 42  1  0
 13 15  1  0
 13 22  1  0
 13 14  1  1
 14 47  1  0
 14 46  1  0
 14 45  1  0
 15 20  1  0
 15 16  1  6
 15 17  1  0
 17 19  2  0
 17 18  1  0
 18 50  1  0
 18 48  1  0
 18 49  1  0
 20 51  1  0
 20 52  1  0
 20 21  1  0
 21 53  1  0
 21 54  1  0
 21 22  1  0
 22 24  1  0
 22 23  1  1
 23 55  1  0
 24 26  1  0
 24 25  1  1
 25 57  1  0
 25 58  1  0
 25 56  1  0
 26 59  1  0
 26 27  1  0
 26 60  1  0
 27 61  1  0
 27 28  2  0
 28 29  1  0
 28 35  1  0
 29 62  1  0
 29 63  1  0
 29 30  1  0
 30 31  1  6
 30 32  1  0
 30 33  1  0
 32 64  1  0
 33 34  1  0
 33 65  1  0
 33 66  1  0
 34 35  1  0
 34 67  1  0
 34 68  1  0
 35 69  1  6
M  END
>  <id>  (354) 
456

>  <scaffolds>  (354) 
['C1=C2CCCCC2C2CCC3CCCC3C2C1', 'C1=CCCCC1', 'C1=CCC2CCCCC2C1', 'C1CCCCC1', 'C1=C2CCCCC2CCC1']

>  <name>  (354) 
Pregn-5-en-20-one, 3,14-dihydroxy-12-[[(2E)-2-methyl-1-oxo-2-buten-1-yl]oxy]-, (3[beta],12[beta],14[beta])-

>  <formula>  (354) 
C26H38O5

>  <SMILES>  (354) 
[H][C@]24C[C@@H](OC(=O)/C(C)=C/C)[C@]1(C)[C@@H](C(C)=O)CC[C@]1(O)[C@]2(C)CC=C3C[C@@H](O)CCC34

>  <ChEMBL_id>  (354) 


>  <ZINC_id>  (354) 


>  <PubChem_id>  (354) 


>  <DrugBank_id>  (354) 


>  <CAS_no>  (354) 
742058-65-7

>  <references>  (354) 
[{'journal': {'name': 'Phytochemistry', 'id': 10}, 'title': 'An appetite suppressant from Hoodia species', 'year': 2007, 'start_page': 2545, 'volume': 68, 'issue': None, 'doi': '10.1016/j.phytochem.2007.05.022', 'isbn': '', 'despositor': {'code': 'DLP', 'first_name': 'David', 'last_name': 'Penkler', 'id': 23}, 'refauthors_set': [{'author': {'first_name': 'Fanie', 'initials': 'FR', 'last_name': 'Van Heerden', 'id': 634}, 'first_author': True, 'id': 956}, {'author': {'first_name': '', 'initials': 'R', 'last_name': 'Marthinus Horak', 'id': 695}, 'first_author': False, 'id': 957}, {'author': {'first_name': '', 'initials': 'VJ', 'last_name': 'Maharaj', 'id': 675}, 'first_author': False, 'id': 958}, {'author': {'first_name': 'Robert', 'initials': 'R', 'last_name': 'Vleggaar', 'id': 696}, 'first_author': False, 'id': 959}, {'author': {'first_name': '', 'initials': 'J', 'last_name': 'Senabe', 'id': 676}, 'first_author': False, 'id': 960}, {'author': {'first_name': 'Philip', 'initials': 'Pj', 'last_name': 'Gunning', 'id': 697}, 'first_author': False, 'id': 961}], 'id': 321}]

>  <classifications>  (354) 
[{'classification': 'Glycoside', 'id': 781}, {'classification': 'Pregnane', 'id': 813}, {'classification': 'Steroid', 'id': 835}, {'classification': 'Steroids and steroid derivatives (Classyfire)', 'id': 942}]

>  <molecular_mass>  (354) 
430.58

$$$$
SANC00457_minRM1.pdb
     RDKit          3D

 57 60  0  0  1  0  0  0  0  0999 V2000
    0.6240   -0.0540    1.7590 H   0  0  0  0  0  0  0  0  0  0  0  0
    0.8490    0.2830    0.7080 C   0  0  1  0  0  0  0  0  0  0  0  0
    0.1650    1.6280    0.5000 C   0  0  0  0  0  0  0  0  0  0  0  0
   -1.3270    1.4970    0.8160 C   0  0  1  0  0  0  0  0  0  0  0  0
   -1.4390    1.1840    1.8960 H   0  0  0  0  0  0  0  0  0  0  0  0
   -1.9770    2.7230    0.6160 O   0  0  0  0  0  0  0  0  0  0  0  0
   -2.0480    0.4760   -0.0990 C   0  0  2  0  0  0  0  0  0  0  0  0
   -2.2190    1.0130   -1.5110 C   0  0  0  0  0  0  0  0  0  0  0  0
   -3.4110    0.1730    0.5800 C   0  0  1  0  0  0  0  0  0  0  0  0
   -3.7100    1.0160    1.2550 H   0  0  0  0  0  0  0  0  0  0  0  0
   -4.5440    0.0080   -0.4120 C   0  0  0  0  0  0  0  0  0  0  0  0
   -5.4430    1.1940   -0.6220 C   0  0  0  0  0  0  0  0  0  0  0  0
   -4.7550   -1.0400   -0.9960 O   0  0  0  0  0  0  0  0  0  0  0  0
   -3.1930   -1.0820    1.4390 C   0  0  0  0  0  0  0  0  0  0  0  0
   -1.7270   -1.4860    1.2850 C   0  0  0  0  0  0  0  0  0  0  0  0
   -1.2710   -0.8790   -0.0620 C   0  0  1  0  0  0  0  0  0  0  0  0
   -1.6650   -1.7270   -1.0970 O   0  0  0  0  0  0  0  0  0  0  0  0
    0.2740   -0.7790   -0.2360 C   0  0  1  0  0  0  0  0  0  0  0  0
    0.6400   -0.4950   -1.6920 C   0  0  0  0  0  0  0  0  0  0  0  0
    0.9150   -2.1270    0.1380 C   0  0  0  0  0  0  0  0  0  0  0  0
    2.3980   -2.0350    0.1480 C   0  0  0  0  0  0  0  0  0  0  0  0
    3.0560   -0.9010    0.3870 C   0  0  0  0  0  0  0  0  0  0  0  0
    4.5490   -0.9060    0.4650 C   0  0  0  0  0  0  0  0  0  0  0  0
    5.1290    0.4980    0.2340 C   0  0  1  0  0  0  0  0  0  0  0  0
    5.1040    1.1000    1.1840 H   0  0  0  0  0  0  0  0  0  0  0  0
    6.4500    0.2950   -0.1810 O   0  0  0  0  0  0  0  0  0  0  0  0
    4.3060    1.1970   -0.8530 C   0  0  0  0  0  0  0  0  0  0  0  0
    2.8970    1.4780   -0.3390 C   0  0  0  0  0  0  0  0  0  0  0  0
    2.3870    0.4090    0.6410 C   0  0  1  0  0  0  0  0  0  0  0  0
    0.6250    2.3940    1.1630 H   0  0  0  0  0  0  0  0  0  0  0  0
    0.3110    2.0370   -0.5200 H   0  0  0  0  0  0  0  0  0  0  0  0
   -1.5740    3.3670    1.2070 H   0  0  0  0  0  0  0  0  0  0  0  0
   -1.2550    1.2830   -1.9730 H   0  0  0  0  0  0  0  0  0  0  0  0
   -2.6810    0.2870   -2.1960 H   0  0  0  0  0  0  0  0  0  0  0  0
   -2.8420    1.9180   -1.5510 H   0  0  0  0  0  0  0  0  0  0  0  0
   -4.9400    2.1580   -0.4600 H   0  0  0  0  0  0  0  0  0  0  0  0
   -5.8590    1.2210   -1.6370 H   0  0  0  0  0  0  0  0  0  0  0  0
   -6.2940    1.1510    0.0750 H   0  0  0  0  0  0  0  0  0  0  0  0
   -3.4490   -0.8900    2.5010 H   0  0  0  0  0  0  0  0  0  0  0  0
   -3.8700   -1.9160    1.1570 H   0  0  0  0  0  0  0  0  0  0  0  0
   -1.1150   -1.1210    2.1320 H   0  0  0  0  0  0  0  0  0  0  0  0
   -1.6100   -2.5880    1.3110 H   0  0  0  0  0  0  0  0  0  0  0  0
   -2.5990   -1.9380   -1.0050 H   0  0  0  0  0  0  0  0  0  0  0  0
    0.2130    0.4480   -2.0680 H   0  0  0  0  0  0  0  0  0  0  0  0
    1.7270   -0.4490   -1.8550 H   0  0  0  0  0  0  0  0  0  0  0  0
    0.2860   -1.2770   -2.3830 H   0  0  0  0  0  0  0  0  0  0  0  0
    0.6080   -2.4860    1.1440 H   0  0  0  0  0  0  0  0  0  0  0  0
    0.5720   -2.9240   -0.5560 H   0  0  0  0  0  0  0  0  0  0  0  0
    2.9300   -2.9770   -0.0210 H   0  0  0  0  0  0  0  0  0  0  0  0
    4.8730   -1.2950    1.4550 H   0  0  0  0  0  0  0  0  0  0  0  0
    4.9760   -1.6270   -0.2680 H   0  0  0  0  0  0  0  0  0  0  0  0
    6.8500    1.1580   -0.3160 H   0  0  0  0  0  0  0  0  0  0  0  0
    4.7900    2.1410   -1.1820 H   0  0  0  0  0  0  0  0  0  0  0  0
    4.2810    0.5710   -1.7690 H   0  0  0  0  0  0  0  0  0  0  0  0
    2.8760    2.4710    0.1630 H   0  0  0  0  0  0  0  0  0  0  0  0
    2.2190    1.6070   -1.2080 H   0  0  0  0  0  0  0  0  0  0  0  0
    2.7120    0.7280    1.6710 H   0  0  0  0  0  0  0  0  0  0  0  0
  2  1  1  1
  2 18  1  0
  2  3  1  0
  2 29  1  0
  3 31  1  0
  3  4  1  0
  3 30  1  0
  4  7  1  0
  4  6  1  0
  4  5  1  1
  6 32  1  0
  7  8  1  6
  7 16  1  0
  7  9  1  0
  8 34  1  0
  8 33  1  0
  8 35  1  0
  9 11  1  0
  9 10  1  1
  9 14  1  0
 11 13  2  0
 11 12  1  0
 12 37  1  0
 12 36  1  0
 12 38  1  0
 14 40  1  0
 14 15  1  0
 14 39  1  0
 15 16  1  0
 15 42  1  0
 15 41  1  0
 16 17  1  6
 16 18  1  0
 17 43  1  0
 18 19  1  6
 18 20  1  0
 19 46  1  0
 19 44  1  0
 19 45  1  0
 20 48  1  0
 20 21  1  0
 20 47  1  0
 21 49  1  0
 21 22  2  0
 22 23  1  0
 22 29  1  0
 23 51  1  0
 23 24  1  0
 23 50  1  0
 24 27  1  0
 24 26  1  0
 24 25  1  1
 26 52  1  0
 27 54  1  0
 27 53  1  0
 27 28  1  0
 28 56  1  0
 28 55  1  0
 28 29  1  0
 29 57  1  1
M  END
>  <id>  (355) 
457

>  <scaffolds>  (355) 
['C1=C2CCCCC2C2CCC3CCCC3C2C1', 'C1=CCCCC1', 'C1=CCC2CCCCC2C1', 'C1CCCCC1', 'C1=C2CCCCC2CCC1']

>  <name>  (355) 
Digipurpurogenin II

>  <formula>  (355) 
C21H32O4

>  <SMILES>  (355) 
[H][C@]24C[C@@H](O)[C@]1(C)[C@@H](C(C)=O)CC[C@]1(O)[C@]2(C)CC=C3C[C@@H](O)CCC34

>  <ChEMBL_id>  (355) 


>  <ZINC_id>  (355) 


>  <PubChem_id>  (355) 


>  <DrugBank_id>  (355) 


>  <CAS_no>  (355) 
4644-99-9

>  <references>  (355) 
[{'journal': {'name': 'Phytochemistry', 'id': 10}, 'title': 'An appetite suppressant from Hoodia species', 'year': 2007, 'start_page': 2545, 'volume': 68, 'issue': None, 'doi': '10.1016/j.phytochem.2007.05.022', 'isbn': '', 'despositor': {'code': 'DLP', 'first_name': 'David', 'last_name': 'Penkler', 'id': 23}, 'refauthors_set': [{'author': {'first_name': 'Fanie', 'initials': 'FR', 'last_name': 'Van Heerden', 'id': 634}, 'first_author': True, 'id': 956}, {'author': {'first_name': '', 'initials': 'R', 'last_name': 'Marthinus Horak', 'id': 695}, 'first_author': False, 'id': 957}, {'author': {'first_name': '', 'initials': 'VJ', 'last_name': 'Maharaj', 'id': 675}, 'first_author': False, 'id': 958}, {'author': {'first_name': 'Robert', 'initials': 'R', 'last_name': 'Vleggaar', 'id': 696}, 'first_author': False, 'id': 959}, {'author': {'first_name': '', 'initials': 'J', 'last_name': 'Senabe', 'id': 676}, 'first_author': False, 'id': 960}, {'author': {'first_name': 'Philip', 'initials': 'Pj', 'last_name': 'Gunning', 'id': 697}, 'first_author': False, 'id': 961}], 'id': 321}]

>  <classifications>  (355) 
[{'classification': 'Glycoside', 'id': 781}, {'classification': 'Pregnane', 'id': 813}, {'classification': 'Steroid', 'id': 835}, {'classification': 'Steroids and steroid derivatives (Classyfire)', 'id': 942}]

>  <molecular_mass>  (355) 
348.48

$$$$
SANC00458_minRM1.pdb
     RDKit          3D

 25 25  0  0  1  0  0  0  0  0999 V2000
   -2.4240    1.9340    0.5420 C   0  0  0  0  0  0  0  0  0  0  0  0
   -1.4800    0.8990    0.5800 O   0  0  0  0  0  0  0  0  0  0  0  0
   -0.9340    0.5710   -0.6740 C   0  0  1  0  0  0  0  0  0  0  0  0
   -1.6310    0.7900   -1.5270 H   0  0  0  0  0  0  0  0  0  0  0  0
    0.3870    1.3250   -0.8560 C   0  0  0  0  0  0  0  0  0  0  0  0
    1.3710    0.8930    0.2440 C   0  0  2  0  0  0  0  0  0  0  0  0
    1.0390    1.2480    1.2630 H   0  0  0  0  0  0  0  0  0  0  0  0
    2.6120    1.4150   -0.1080 O   0  0  0  0  0  0  0  0  0  0  0  0
    1.5680   -0.5040    0.2290 O   0  0  0  0  0  0  0  0  0  0  0  0
    0.4000   -1.2450    0.4830 C   0  0  2  0  0  0  0  0  0  0  0  0
   -0.0320   -0.9940    1.4900 H   0  0  0  0  0  0  0  0  0  0  0  0
    0.8470   -2.7060    0.4570 C   0  0  0  0  0  0  0  0  0  0  0  0
   -0.6310   -0.9470   -0.6350 C   0  0  1  0  0  0  0  0  0  0  0  0
   -0.2150   -1.2560   -1.6330 H   0  0  0  0  0  0  0  0  0  0  0  0
   -1.8540   -1.5590   -0.3670 O   0  0  0  0  0  0  0  0  0  0  0  0
   -2.6970    2.0940    1.5960 H   0  0  0  0  0  0  0  0  0  0  0  0
   -2.0270    2.8780    0.1310 H   0  0  0  0  0  0  0  0  0  0  0  0
   -3.3360    1.6680   -0.0200 H   0  0  0  0  0  0  0  0  0  0  0  0
    0.8080    1.1290   -1.8640 H   0  0  0  0  0  0  0  0  0  0  0  0
    0.2360    2.4220   -0.8180 H   0  0  0  0  0  0  0  0  0  0  0  0
    3.2970    0.9870    0.4170 H   0  0  0  0  0  0  0  0  0  0  0  0
    1.6840   -2.8860    1.1480 H   0  0  0  0  0  0  0  0  0  0  0  0
    0.0390   -3.3830    0.7650 H   0  0  0  0  0  0  0  0  0  0  0  0
    1.1920   -3.0260   -0.5370 H   0  0  0  0  0  0  0  0  0  0  0  0
   -1.7290   -2.5070   -0.4670 H   0  0  0  0  0  0  0  0  0  0  0  0
  1 18  1  0
  1 17  1  0
  1  2  1  0
  1 16  1  0
  2  3  1  0
  3  4  1  6
  3  5  1  0
  3 13  1  0
  5 19  1  0
  5 20  1  0
  5  6  1  0
  6  8  1  0
  6  9  1  0
  6  7  1  1
  8 21  1  0
  9 10  1  0
 10 13  1  0
 10 12  1  0
 10 11  1  1
 12 24  1  0
 12 23  1  0
 12 22  1  0
 13 14  1  6
 13 15  1  0
 15 25  1  0
M  END
>  <id>  (356) 
458

>  <scaffolds>  (356) 
['C1CCOCC1']

>  <name>  (356) 
Cymarose

>  <formula>  (356) 
C7H14O4

>  <SMILES>  (356) 
CO[C@H]1C[C@H](O)O[C@H](C)[C@H]1O

>  <ChEMBL_id>  (356) 


>  <ZINC_id>  (356) 


>  <PubChem_id>  (356) 


>  <DrugBank_id>  (356) 


>  <CAS_no>  (356) 
89253-99-6

>  <references>  (356) 
[{'journal': {'name': 'Phytochemistry', 'id': 10}, 'title': 'An appetite suppressant from Hoodia species', 'year': 2007, 'start_page': 2545, 'volume': 68, 'issue': None, 'doi': '10.1016/j.phytochem.2007.05.022', 'isbn': '', 'despositor': {'code': 'DLP', 'first_name': 'David', 'last_name': 'Penkler', 'id': 23}, 'refauthors_set': [{'author': {'first_name': 'Fanie', 'initials': 'FR', 'last_name': 'Van Heerden', 'id': 634}, 'first_author': True, 'id': 956}, {'author': {'first_name': '', 'initials': 'R', 'last_name': 'Marthinus Horak', 'id': 695}, 'first_author': False, 'id': 957}, {'author': {'first_name': '', 'initials': 'VJ', 'last_name': 'Maharaj', 'id': 675}, 'first_author': False, 'id': 958}, {'author': {'first_name': 'Robert', 'initials': 'R', 'last_name': 'Vleggaar', 'id': 696}, 'first_author': False, 'id': 959}, {'author': {'first_name': '', 'initials': 'J', 'last_name': 'Senabe', 'id': 676}, 'first_author': False, 'id': 960}, {'author': {'first_name': 'Philip', 'initials': 'Pj', 'last_name': 'Gunning', 'id': 697}, 'first_author': False, 'id': 961}], 'id': 321}]

>  <classifications>  (356) 
[{'classification': 'Glycoside', 'id': 781}, {'classification': 'Pregnane', 'id': 813}, {'classification': 'Steroid', 'id': 835}, {'classification': 'Organooxygen compounds (Classyfire)', 'id': 954}]

>  <molecular_mass>  (356) 
162.18

$$$$
SANC00459_minRM1.pdb
     RDKit          3D

 91 95  0  0  1  0  0  0  0  0999 V2000
    5.4640   -0.7460   -0.2320 H   0  0  0  0  0  0  0  0  0  0  0  0
    5.5380    0.3660   -0.3960 C   0  0  1  0  0  0  0  0  0  0  0  0
    4.3870    0.9270   -0.9610 O   0  0  0  0  0  0  0  0  0  0  0  0
    3.1650    0.5030   -0.3930 C   0  0  1  0  0  0  0  0  0  0  0  0
    3.2640    0.2080    0.6850 H   0  0  0  0  0  0  0  0  0  0  0  0
    2.2130    1.6960   -0.5260 C   0  0  0  0  0  0  0  0  0  0  0  0
    0.8360    1.2890   -0.0200 C   0  0  0  0  0  0  0  0  0  0  0  0
    0.2570    0.0800   -0.7790 C   0  0  1  0  0  0  0  0  0  0  0  0
    0.0370    0.4460   -2.2490 C   0  0  0  0  0  0  0  0  0  0  0  0
    1.2620   -1.0340   -0.7460 C   0  0  0  0  0  0  0  0  0  0  0  0
    0.9780   -2.2840   -0.3840 C   0  0  0  0  0  0  0  0  0  0  0  0
   -0.3670   -2.7110    0.0750 C   0  0  0  0  0  0  0  0  0  0  0  0
   -1.4540   -1.7640   -0.4330 C   0  0  2  0  0  0  0  0  0  0  0  0
   -1.5090   -1.8600   -1.5500 H   0  0  0  0  0  0  0  0  0  0  0  0
   -1.0700   -0.3280   -0.0830 C   0  0  2  0  0  0  0  0  0  0  0  0
   -0.9050   -0.2700    1.0260 H   0  0  0  0  0  0  0  0  0  0  0  0
   -2.2080    0.6190   -0.4530 C   0  0  0  0  0  0  0  0  0  0  0  0
   -3.4670    0.2280    0.3220 C   0  0  1  0  0  0  0  0  0  0  0  0
   -3.2750    0.2590    1.4280 H   0  0  0  0  0  0  0  0  0  0  0  0
   -4.5160    1.1210   -0.0170 O   0  0  0  0  0  0  0  0  0  0  0  0
   -4.5100    2.3710    0.5100 C   0  0  0  0  0  0  0  0  0  0  0  0
   -3.6590    2.7050    1.3180 O   0  0  0  0  0  0  0  0  0  0  0  0
   -5.6260    3.2010    0.0210 C   0  0  0  0  0  0  0  0  0  0  0  0
   -6.1740    2.9160   -1.3220 C   0  0  0  0  0  0  0  0  0  0  0  0
   -6.1020    4.1540    0.8310 C   0  0  0  0  0  0  0  0  0  0  0  0
   -7.2280    5.0380    0.4440 C   0  0  0  0  0  0  0  0  0  0  0  0
   -3.9700   -1.1710   -0.1090 C   0  0  2  0  0  0  0  0  0  0  0  0
   -4.4300   -1.1690   -1.5560 C   0  0  0  0  0  0  0  0  0  0  0  0
   -5.0690   -1.6110    0.8820 C   0  0  1  0  0  0  0  0  0  0  0  0
   -5.6910   -0.7390    1.2020 H   0  0  0  0  0  0  0  0  0  0  0  0
   -6.0120   -2.6300    0.2730 C   0  0  0  0  0  0  0  0  0  0  0  0
   -7.2430   -2.1100   -0.4150 C   0  0  0  0  0  0  0  0  0  0  0  0
   -5.8260   -3.8310    0.3570 O   0  0  0  0  0  0  0  0  0  0  0  0
   -4.3110   -2.1780    2.0950 C   0  0  0  0  0  0  0  0  0  0  0  0
   -2.8540   -2.3810    1.6750 C   0  0  0  0  0  0  0  0  0  0  0  0
   -2.8220   -2.1920    0.1450 C   0  0  2  0  0  0  0  0  0  0  0  0
   -3.1210   -3.3740   -0.5380 O   0  0  0  0  0  0  0  0  0  0  0  0
    2.6320   -0.6750   -1.2180 C   0  0  0  0  0  0  0  0  0  0  0  0
    6.6920    0.7250   -1.3490 C   0  0  0  0  0  0  0  0  0  0  0  0
    8.0290    0.4180   -0.6640 C   0  0  2  0  0  0  0  0  0  0  0  0
    8.8850    0.7760   -1.2980 H   0  0  0  0  0  0  0  0  0  0  0  0
    8.0900   -0.9560   -0.3790 O   0  0  0  0  0  0  0  0  0  0  0  0
    8.7910   -1.7070   -1.3290 C   0  0  0  0  0  0  0  0  0  0  0  0
    8.0590    1.1520    0.6970 C   0  0  2  0  0  0  0  0  0  0  0  0
    8.0310    2.2600    0.5060 H   0  0  0  0  0  0  0  0  0  0  0  0
    9.2530    0.7620    1.3050 O   0  0  0  0  0  0  0  0  0  0  0  0
    6.8280    0.7300    1.5410 C   0  0  1  0  0  0  0  0  0  0  0  0
    6.8730   -0.3670    1.7770 H   0  0  0  0  0  0  0  0  0  0  0  0
    6.7380    1.5300    2.8360 C   0  0  0  0  0  0  0  0  0  0  0  0
    5.6600    1.0580    0.8280 O   0  0  0  0  0  0  0  0  0  0  0  0
    2.6000    2.5620    0.0520 H   0  0  0  0  0  0  0  0  0  0  0  0
    2.1740    2.0650   -1.5720 H   0  0  0  0  0  0  0  0  0  0  0  0
    0.8960    1.0700    1.0680 H   0  0  0  0  0  0  0  0  0  0  0  0
    0.1470    2.1570   -0.0880 H   0  0  0  0  0  0  0  0  0  0  0  0
    0.9800    0.4800   -2.8210 H   0  0  0  0  0  0  0  0  0  0  0  0
   -0.5970   -0.2830   -2.7750 H   0  0  0  0  0  0  0  0  0  0  0  0
   -0.4220    1.4370   -2.3810 H   0  0  0  0  0  0  0  0  0  0  0  0
    1.7410   -3.0690   -0.3870 H   0  0  0  0  0  0  0  0  0  0  0  0
   -0.5790   -3.7520   -0.2510 H   0  0  0  0  0  0  0  0  0  0  0  0
   -0.3320   -2.7640    1.1850 H   0  0  0  0  0  0  0  0  0  0  0  0
   -1.9250    1.6700   -0.2350 H   0  0  0  0  0  0  0  0  0  0  0  0
   -2.4280    0.6100   -1.5410 H   0  0  0  0  0  0  0  0  0  0  0  0
   -7.0340    2.2360   -1.2580 H   0  0  0  0  0  0  0  0  0  0  0  0
   -6.5230    3.8220   -1.8390 H   0  0  0  0  0  0  0  0  0  0  0  0
   -5.4370    2.4460   -1.9930 H   0  0  0  0  0  0  0  0  0  0  0  0
   -5.6630    4.3220    1.8210 H   0  0  0  0  0  0  0  0  0  0  0  0
   -7.5700    5.6610    1.2700 H   0  0  0  0  0  0  0  0  0  0  0  0
   -6.9390    5.7320   -0.3560 H   0  0  0  0  0  0  0  0  0  0  0  0
   -8.0980    4.4780    0.0880 H   0  0  0  0  0  0  0  0  0  0  0  0
   -3.6220   -0.8770   -2.2440 H   0  0  0  0  0  0  0  0  0  0  0  0
   -4.7740   -2.1560   -1.9010 H   0  0  0  0  0  0  0  0  0  0  0  0
   -5.2590   -0.4710   -1.7390 H   0  0  0  0  0  0  0  0  0  0  0  0
   -7.2530   -1.0220   -0.5600 H   0  0  0  0  0  0  0  0  0  0  0  0
   -7.3710   -2.5680   -1.4080 H   0  0  0  0  0  0  0  0  0  0  0  0
   -8.1430   -2.3620    0.1660 H   0  0  0  0  0  0  0  0  0  0  0  0
   -4.3860   -1.4900    2.9590 H   0  0  0  0  0  0  0  0  0  0  0  0
   -4.7540   -3.1160    2.4740 H   0  0  0  0  0  0  0  0  0  0  0  0
   -2.1850   -1.6670    2.1910 H   0  0  0  0  0  0  0  0  0  0  0  0
   -2.4730   -3.3740    1.9900 H   0  0  0  0  0  0  0  0  0  0  0  0
   -3.4940   -4.0270    0.0700 H   0  0  0  0  0  0  0  0  0  0  0  0
    2.5980   -0.4130   -2.3000 H   0  0  0  0  0  0  0  0  0  0  0  0
    3.3340   -1.5330   -1.1700 H   0  0  0  0  0  0  0  0  0  0  0  0
    6.5870    0.1600   -2.2960 H   0  0  0  0  0  0  0  0  0  0  0  0
    6.6500    1.7920   -1.6450 H   0  0  0  0  0  0  0  0  0  0  0  0
    8.6850   -2.7440   -0.9970 H   0  0  0  0  0  0  0  0  0  0  0  0
    8.3760   -1.6250   -2.3460 H   0  0  0  0  0  0  0  0  0  0  0  0
    9.8640   -1.4550   -1.3740 H   0  0  0  0  0  0  0  0  0  0  0  0
    9.3580    1.2910    2.1030 H   0  0  0  0  0  0  0  0  0  0  0  0
    6.7880    2.6130    2.6690 H   0  0  0  0  0  0  0  0  0  0  0  0
    5.7900    1.3400    3.3620 H   0  0  0  0  0  0  0  0  0  0  0  0
    7.5410    1.2620    3.5320 H   0  0  0  0  0  0  0  0  0  0  0  0
  2  1  1  1
  2 39  1  0
  2  3  1  0
  2 50  1  0
  3  4  1  0
  4 38  1  0
  4  6  1  0
  4  5  1  1
  6 52  1  0
  6  7  1  0
  6 51  1  0
  7  8  1  0
  7 54  1  0
  7 53  1  0
  8  9  1  6
  8 10  1  0
  8 15  1  0
  9 55  1  0
  9 56  1  0
  9 57  1  0
 10 38  1  0
 10 11  2  0
 11 58  1  0
 11 12  1  0
 12 13  1  0
 12 59  1  0
 12 60  1  0
 13 14  1  6
 13 15  1  0
 13 36  1  0
 15 17  1  0
 15 16  1  1
 17 62  1  0
 17 61  1  0
 17 18  1  0
 18 27  1  0
 18 20  1  0
 18 19  1  1
 20 21  1  0
 21 23  1  0
 21 22  2  0
 23 24  1  0
 23 25  2  0
 24 65  1  0
 24 64  1  0
 24 63  1  0
 25 26  1  0
 25 66  1  0
 26 68  1  0
 26 69  1  0
 26 67  1  0
 27 28  1  6
 27 36  1  0
 27 29  1  0
 28 70  1  0
 28 71  1  0
 28 72  1  0
 29 31  1  0
 29 30  1  1
 29 34  1  0
 31 32  1  0
 31 33  2  0
 32 74  1  0
 32 73  1  0
 32 75  1  0
 34 35  1  0
 34 77  1  0
 34 76  1  0
 35 36  1  0
 35 79  1  0
 35 78  1  0
 36 37  1  6
 37 80  1  0
 38 81  1  0
 38 82  1  0
 39 83  1  0
 39 84  1  0
 39 40  1  0
 40 41  1  6
 40 42  1  0
 40 44  1  0
 42 43  1  0
 43 86  1  0
 43 87  1  0
 43 85  1  0
 44 45  1  6
 44 46  1  0
 44 47  1  0
 46 88  1  0
 47 50  1  0
 47 48  1  1
 47 49  1  0
 49 89  1  0
 49 90  1  0
 49 91  1  0
M  END
>  <id>  (357) 
459

>  <scaffolds>  (357) 
['C1=C2CCCCC2C2CCC3CCCC3C2C1', 'C1=CCCCC1', 'C1=CCC2CCCCC2C1', 'C1CCOCC1', 'C1=C2CC(OC3CCCCO3)CCC2C2CCC3CCCC3C2C1', 'C1CCCCC1', 'C1=C2CCCCC2CCC1']

>  <name>  (357) 
Pregn-5-en-20-one, 3-[(2,6-dideoxy-3-O-methyl-[beta]-D-ribo-hexopyranosyl)oxy]-14-hydroxy-12-[[(2E)-2-methyl-1-oxo-2-buten-1-yl]oxy]-, (3[beta],12[beta],14[beta])-

>  <formula>  (357) 
C33H50O8

>  <SMILES>  (357) 
[H][C@]5(O[C@H]4CC[C@@]1(C)C(=CC[C@]2([H])[C@]1([H])C[C@@H](OC(=O)/C(C)=C/C)[C@]3(C)[C@@H](C(C)=O)CC[C@]23O)C4)C[C@H](OC)[C@H](O)[C@@H](C)O5

>  <ChEMBL_id>  (357) 


>  <ZINC_id>  (357) 


>  <PubChem_id>  (357) 


>  <DrugBank_id>  (357) 


>  <CAS_no>  (357) 
957217-39-9

>  <references>  (357) 
[{'journal': {'name': 'Phytochemistry', 'id': 10}, 'title': 'An appetite suppressant from Hoodia species', 'year': 2007, 'start_page': 2545, 'volume': 68, 'issue': None, 'doi': '10.1016/j.phytochem.2007.05.022', 'isbn': '', 'despositor': {'code': 'DLP', 'first_name': 'David', 'last_name': 'Penkler', 'id': 23}, 'refauthors_set': [{'author': {'first_name': 'Fanie', 'initials': 'FR', 'last_name': 'Van Heerden', 'id': 634}, 'first_author': True, 'id': 956}, {'author': {'first_name': '', 'initials': 'R', 'last_name': 'Marthinus Horak', 'id': 695}, 'first_author': False, 'id': 957}, {'author': {'first_name': '', 'initials': 'VJ', 'last_name': 'Maharaj', 'id': 675}, 'first_author': False, 'id': 958}, {'author': {'first_name': 'Robert', 'initials': 'R', 'last_name': 'Vleggaar', 'id': 696}, 'first_author': False, 'id': 959}, {'author': {'first_name': '', 'initials': 'J', 'last_name': 'Senabe', 'id': 676}, 'first_author': False, 'id': 960}, {'author': {'first_name': 'Philip', 'initials': 'Pj', 'last_name': 'Gunning', 'id': 697}, 'first_author': False, 'id': 961}], 'id': 321}]

>  <classifications>  (357) 
[{'classification': 'Glycoside', 'id': 781}, {'classification': 'Pregnane', 'id': 813}, {'classification': 'Steroid', 'id': 835}, {'classification': 'Steroids and steroid derivatives (Classyfire)', 'id': 942}]

>  <molecular_mass>  (357) 
574.74

$$$$
SANC00460_minRM1.pdb
     RDKit          3D

 57 60  0  0  1  0  0  0  0  0999 V2000
    0.3370   -1.0500   -1.5550 H   0  0  0  0  0  0  0  0  0  0  0  0
    0.1840   -1.0890   -0.4400 C   0  0  2  0  0  0  0  0  0  0  0  0
    0.9810   -2.2700    0.1170 C   0  0  0  0  0  0  0  0  0  0  0  0
    2.4470   -2.0350    0.0840 C   0  0  0  0  0  0  0  0  0  0  0  0
    3.0070   -0.8360   -0.0710 C   0  0  0  0  0  0  0  0  0  0  0  0
    4.4940   -0.7140   -0.1250 C   0  0  0  0  0  0  0  0  0  0  0  0
    4.9900    0.4620    0.7280 C   0  0  1  0  0  0  0  0  0  0  0  0
    4.7910    0.2540    1.8160 H   0  0  0  0  0  0  0  0  0  0  0  0
    6.3540    0.6880    0.5040 O   0  0  0  0  0  0  0  0  0  0  0  0
    4.2820    1.7480    0.2960 C   0  0  0  0  0  0  0  0  0  0  0  0
    2.7880    1.5770    0.5150 C   0  0  0  0  0  0  0  0  0  0  0  0
    2.2050    0.4110   -0.2980 C   0  0  1  0  0  0  0  0  0  0  0  0
    2.2710    0.7200   -1.7960 C   0  0  0  0  0  0  0  0  0  0  0  0
    0.7350    0.2030    0.1570 C   0  0  1  0  0  0  0  0  0  0  0  0
    0.7270    0.1140    1.2750 H   0  0  0  0  0  0  0  0  0  0  0  0
   -0.1280    1.3910   -0.2500 C   0  0  0  0  0  0  0  0  0  0  0  0
   -1.5790    1.1820    0.2030 C   0  0  1  0  0  0  0  0  0  0  0  0
   -1.6100    1.0530    1.3200 H   0  0  0  0  0  0  0  0  0  0  0  0
   -2.3200    2.3020   -0.1950 O   0  0  0  0  0  0  0  0  0  0  0  0
   -2.2040   -0.0440   -0.4930 C   0  0  2  0  0  0  0  0  0  0  0  0
   -2.3830    0.1880   -1.9870 C   0  0  0  0  0  0  0  0  0  0  0  0
   -3.5400   -0.4180    0.1860 C   0  0  2  0  0  0  0  0  0  0  0  0
   -4.1020   -1.1150   -0.4880 H   0  0  0  0  0  0  0  0  0  0  0  0
   -4.4130    0.7790    0.4810 C   0  0  0  0  0  0  0  0  0  0  0  0
   -5.5670    1.0100   -0.4500 C   0  0  0  0  0  0  0  0  0  0  0  0
   -4.2180    1.5060    1.4390 O   0  0  0  0  0  0  0  0  0  0  0  0
   -3.1510   -1.1820    1.4600 C   0  0  0  0  0  0  0  0  0  0  0  0
   -1.7010   -1.6410    1.2750 C   0  0  0  0  0  0  0  0  0  0  0  0
   -1.3250   -1.2900   -0.1810 C   0  0  2  0  0  0  0  0  0  0  0  0
   -1.7980   -2.2920   -1.0380 O   0  0  0  0  0  0  0  0  0  0  0  0
    0.7140   -2.5040    1.1700 H   0  0  0  0  0  0  0  0  0  0  0  0
    0.7480   -3.2000   -0.4470 H   0  0  0  0  0  0  0  0  0  0  0  0
    3.0560   -2.9360    0.2200 H   0  0  0  0  0  0  0  0  0  0  0  0
    4.9950   -1.6520    0.2020 H   0  0  0  0  0  0  0  0  0  0  0  0
    4.8230   -0.5950   -1.1810 H   0  0  0  0  0  0  0  0  0  0  0  0
    6.8330   -0.0840    0.8170 H   0  0  0  0  0  0  0  0  0  0  0  0
    4.6660    2.6150    0.8750 H   0  0  0  0  0  0  0  0  0  0  0  0
    4.5200    2.0020   -0.7580 H   0  0  0  0  0  0  0  0  0  0  0  0
    2.5890    1.4310    1.5990 H   0  0  0  0  0  0  0  0  0  0  0  0
    2.2620    2.5240    0.2670 H   0  0  0  0  0  0  0  0  0  0  0  0
    3.2800    0.6130   -2.2180 H   0  0  0  0  0  0  0  0  0  0  0  0
    1.6240    0.0410   -2.3770 H   0  0  0  0  0  0  0  0  0  0  0  0
    1.9610    1.7470   -2.0380 H   0  0  0  0  0  0  0  0  0  0  0  0
    0.2690    2.3310    0.1920 H   0  0  0  0  0  0  0  0  0  0  0  0
   -0.1050    1.5800   -1.3430 H   0  0  0  0  0  0  0  0  0  0  0  0
   -2.3060    2.9280    0.5350 H   0  0  0  0  0  0  0  0  0  0  0  0
   -1.4230    0.2780   -2.5140 H   0  0  0  0  0  0  0  0  0  0  0  0
   -2.9230   -0.6320   -2.4850 H   0  0  0  0  0  0  0  0  0  0  0  0
   -2.9510    1.1030   -2.2090 H   0  0  0  0  0  0  0  0  0  0  0  0
   -6.3270    0.2240   -0.3320 H   0  0  0  0  0  0  0  0  0  0  0  0
   -6.0680    1.9730   -0.2740 H   0  0  0  0  0  0  0  0  0  0  0  0
   -5.2490    1.0010   -1.5020 H   0  0  0  0  0  0  0  0  0  0  0  0
   -3.2580   -0.5740    2.3800 H   0  0  0  0  0  0  0  0  0  0  0  0
   -3.8330   -2.0400    1.6270 H   0  0  0  0  0  0  0  0  0  0  0  0
   -1.0310   -1.1470    2.0040 H   0  0  0  0  0  0  0  0  0  0  0  0
   -1.5920   -2.7220    1.4970 H   0  0  0  0  0  0  0  0  0  0  0  0
   -1.3710   -3.1200   -0.8050 H   0  0  0  0  0  0  0  0  0  0  0  0
  2  1  1  6
  2 29  1  0
  2  3  1  0
  2 14  1  0
  3 32  1  0
  3  4  1  0
  3 31  1  0
  4  5  2  0
  4 33  1  0
  5 12  1  0
  5  6  1  0
  6 35  1  0
  6 34  1  0
  6  7  1  0
  7 10  1  0
  7  9  1  0
  7  8  1  1
  9 36  1  0
 10 38  1  0
 10 11  1  0
 10 37  1  0
 11 12  1  0
 11 40  1  0
 11 39  1  0
 12 13  1  6
 12 14  1  0
 13 42  1  0
 13 41  1  0
 13 43  1  0
 14 16  1  0
 14 15  1  1
 16 45  1  0
 16 44  1  0
 16 17  1  0
 17 20  1  0
 17 19  1  0
 17 18  1  1
 19 46  1  0
 20 21  1  6
 20 29  1  0
 20 22  1  0
 21 47  1  0
 21 48  1  0
 21 49  1  0
 22 23  1  6
 22 24  1  0
 22 27  1  0
 24 25  1  0
 24 26  2  0
 25 52  1  0
 25 50  1  0
 25 51  1  0
 27 28  1  0
 27 54  1  0
 27 53  1  0
 28 29  1  0
 28 56  1  0
 28 55  1  0
 29 30  1  6
 30 57  1  0
M  END
>  <id>  (358) 
460

>  <scaffolds>  (358) 
['C1=C2CCCCC2C2CCC3CCCC3C2C1', 'C1=CCCCC1', 'C1=CCC2CCCCC2C1', 'C1CCCCC1', 'C1=C2CCCCC2CCC1']

>  <name>  (358) 
Isodigipurpurogenin II

>  <formula>  (358) 
C21H32O4

>  <SMILES>  (358) 
[H][C@@]23CC=C1C[C@@H](O)CC[C@]1(C)[C@@]2([H])C[C@@H](O)[C@]4(C)[C@H](C(C)=O)CC[C@]34O

>  <ChEMBL_id>  (358) 


>  <ZINC_id>  (358) 


>  <PubChem_id>  (358) 


>  <DrugBank_id>  (358) 


>  <CAS_no>  (358) 
4373-53-9

>  <references>  (358) 
[{'journal': {'name': 'Phytochemistry', 'id': 10}, 'title': 'An appetite suppressant from Hoodia species', 'year': 2007, 'start_page': 2545, 'volume': 68, 'issue': None, 'doi': '10.1016/j.phytochem.2007.05.022', 'isbn': '', 'despositor': {'code': 'DLP', 'first_name': 'David', 'last_name': 'Penkler', 'id': 23}, 'refauthors_set': [{'author': {'first_name': 'Fanie', 'initials': 'FR', 'last_name': 'Van Heerden', 'id': 634}, 'first_author': True, 'id': 956}, {'author': {'first_name': '', 'initials': 'R', 'last_name': 'Marthinus Horak', 'id': 695}, 'first_author': False, 'id': 957}, {'author': {'first_name': '', 'initials': 'VJ', 'last_name': 'Maharaj', 'id': 675}, 'first_author': False, 'id': 958}, {'author': {'first_name': 'Robert', 'initials': 'R', 'last_name': 'Vleggaar', 'id': 696}, 'first_author': False, 'id': 959}, {'author': {'first_name': '', 'initials': 'J', 'last_name': 'Senabe', 'id': 676}, 'first_author': False, 'id': 960}, {'author': {'first_name': 'Philip', 'initials': 'Pj', 'last_name': 'Gunning', 'id': 697}, 'first_author': False, 'id': 961}], 'id': 321}]

>  <classifications>  (358) 
[{'classification': 'Glycoside', 'id': 781}, {'classification': 'Pregnane', 'id': 813}, {'classification': 'Steroid', 'id': 835}, {'classification': 'Steroids and steroid derivatives (Classyfire)', 'id': 942}]

>  <molecular_mass>  (358) 
348.48

$$$$
SANC00461_minRM1.pdb
     RDKit          3D

 48 48  0  0  1  0  0  0  0  0999 V2000
    1.4480    0.0090    1.5850 H   0  0  0  0  0  0  0  0  0  0  0  0
    1.6020    0.6780    0.6970 C   0  0  2  0  0  0  0  0  0  0  0  0
    0.4810    0.7560   -0.1510 O   0  0  0  0  0  0  0  0  0  0  0  0
   -0.7580    0.4740    0.4360 C   0  0  2  0  0  0  0  0  0  0  0  0
   -0.9640    1.0920    1.3550 H   0  0  0  0  0  0  0  0  0  0  0  0
   -0.6900   -0.9020    0.7210 O   0  0  0  0  0  0  0  0  0  0  0  0
   -1.8910   -1.4180    1.2440 C   0  0  2  0  0  0  0  0  0  0  0  0
   -2.2060   -0.8710    2.1730 H   0  0  0  0  0  0  0  0  0  0  0  0
   -1.5920   -2.8790    1.5700 C   0  0  0  0  0  0  0  0  0  0  0  0
   -2.9870   -1.3100    0.1540 C   0  0  1  0  0  0  0  0  0  0  0  0
   -2.6960   -1.9190   -0.7430 H   0  0  0  0  0  0  0  0  0  0  0  0
   -4.1740   -1.7350    0.7520 O   0  0  0  0  0  0  0  0  0  0  0  0
   -3.1720    0.1780   -0.2440 C   0  0  2  0  0  0  0  0  0  0  0  0
   -3.5760    0.7690    0.6220 H   0  0  0  0  0  0  0  0  0  0  0  0
   -4.0400    0.1350   -1.3460 O   0  0  0  0  0  0  0  0  0  0  0  0
   -4.8630    1.2610   -1.4970 C   0  0  0  0  0  0  0  0  0  0  0  0
   -1.8020    0.7450   -0.6910 C   0  0  1  0  0  0  0  0  0  0  0  0
   -1.4790    0.2630   -1.6550 H   0  0  0  0  0  0  0  0  0  0  0  0
   -1.9830    2.1200   -0.8190 O   0  0  0  0  0  0  0  0  0  0  0  0
    1.9600    2.1040    1.2010 C   0  0  1  0  0  0  0  0  0  0  0  0
    2.9410    2.0590    1.7490 H   0  0  0  0  0  0  0  0  0  0  0  0
    2.0510    3.1400    0.0820 C   0  0  0  0  0  0  0  0  0  0  0  0
    0.9280    2.5530    2.0350 O   0  0  0  0  0  0  0  0  0  0  0  0
    2.7300    0.0790   -0.1940 C   0  0  2  0  0  0  0  0  0  0  0  0
    2.8660    0.7140   -1.1090 H   0  0  0  0  0  0  0  0  0  0  0  0
    2.3790   -1.3610   -0.5930 C   0  0  0  0  0  0  0  0  0  0  0  0
    3.2830   -1.8880   -1.6740 C   0  0  0  0  0  0  0  0  0  0  0  0
    3.4500   -3.0790   -1.8370 O   0  0  0  0  0  0  0  0  0  0  0  0
    3.8630    0.0240    0.6440 O   0  0  0  0  0  0  0  0  0  0  0  0
    5.0650    0.4400    0.0580 C   0  0  0  0  0  0  0  0  0  0  0  0
   -0.8230   -2.9680    2.3520 H   0  0  0  0  0  0  0  0  0  0  0  0
   -2.4920   -3.3930    1.9360 H   0  0  0  0  0  0  0  0  0  0  0  0
   -1.2240   -3.4410    0.6970 H   0  0  0  0  0  0  0  0  0  0  0  0
   -4.6670   -2.2250    0.0850 H   0  0  0  0  0  0  0  0  0  0  0  0
   -5.5660    1.3930   -0.6540 H   0  0  0  0  0  0  0  0  0  0  0  0
   -4.3090    2.2010   -1.6430 H   0  0  0  0  0  0  0  0  0  0  0  0
   -5.4450    1.0480   -2.4070 H   0  0  0  0  0  0  0  0  0  0  0  0
   -1.1550    2.4950   -1.1390 H   0  0  0  0  0  0  0  0  0  0  0  0
    1.1620    3.1560   -0.5620 H   0  0  0  0  0  0  0  0  0  0  0  0
    2.1580    4.1590    0.4880 H   0  0  0  0  0  0  0  0  0  0  0  0
    2.9230    2.9720   -0.5650 H   0  0  0  0  0  0  0  0  0  0  0  0
    1.0280    2.1130    2.8840 H   0  0  0  0  0  0  0  0  0  0  0  0
    2.3950   -2.0280    0.2960 H   0  0  0  0  0  0  0  0  0  0  0  0
    1.3330   -1.4220   -0.9660 H   0  0  0  0  0  0  0  0  0  0  0  0
    3.7640   -1.1430   -2.3390 H   0  0  0  0  0  0  0  0  0  0  0  0
    5.8220    0.3010    0.8410 H   0  0  0  0  0  0  0  0  0  0  0  0
    5.3650   -0.1680   -0.8150 H   0  0  0  0  0  0  0  0  0  0  0  0
    5.0570    1.4980   -0.2330 H   0  0  0  0  0  0  0  0  0  0  0  0
  2  1  1  1
  2 24  1  0
  2  3  1  0
  2 20  1  0
  3  4  1  0
  4 17  1  0
  4  6  1  0
  4  5  1  1
  6  7  1  0
  7 10  1  0
  7  9  1  0
  7  8  1  1
  9 33  1  0
  9 32  1  0
  9 31  1  0
 10 11  1  6
 10 13  1  0
 10 12  1  0
 12 34  1  0
 13 15  1  0
 13 17  1  0
 13 14  1  1
 15 16  1  0
 16 37  1  0
 16 36  1  0
 16 35  1  0
 17 18  1  6
 17 19  1  0
 19 38  1  0
 20 22  1  0
 20 21  1  1
 20 23  1  0
 22 41  1  0
 22 39  1  0
 22 40  1  0
 23 42  1  0
 24 25  1  6
 24 26  1  0
 24 29  1  0
 26 27  1  0
 26 44  1  0
 26 43  1  0
 27 45  1  0
 27 28  2  0
 29 30  1  0
 30 47  1  0
 30 48  1  0
 30 46  1  0
M  END
>  <id>  (359) 
461

>  <scaffolds>  (359) 
['C1CCOCC1']

>  <name>  (359) 
Lilacinobiose

>  <formula>  (359) 
C14H26O8

>  <SMILES>  (359) 
[H][C@@](O[C@@H]1O[C@H](C)[C@@H](O)[C@H](OC)[C@H]1O)([C@@H](C)O)[C@H](CC=O)OC

>  <ChEMBL_id>  (359) 


>  <ZINC_id>  (359) 


>  <PubChem_id>  (359) 


>  <DrugBank_id>  (359) 


>  <CAS_no>  (359) 
23457-83-2

>  <references>  (359) 
[{'journal': {'name': 'Phytochemistry', 'id': 10}, 'title': 'An appetite suppressant from Hoodia species', 'year': 2007, 'start_page': 2545, 'volume': 68, 'issue': None, 'doi': '10.1016/j.phytochem.2007.05.022', 'isbn': '', 'despositor': {'code': 'DLP', 'first_name': 'David', 'last_name': 'Penkler', 'id': 23}, 'refauthors_set': [{'author': {'first_name': 'Fanie', 'initials': 'FR', 'last_name': 'Van Heerden', 'id': 634}, 'first_author': True, 'id': 956}, {'author': {'first_name': '', 'initials': 'R', 'last_name': 'Marthinus Horak', 'id': 695}, 'first_author': False, 'id': 957}, {'author': {'first_name': '', 'initials': 'VJ', 'last_name': 'Maharaj', 'id': 675}, 'first_author': False, 'id': 958}, {'author': {'first_name': 'Robert', 'initials': 'R', 'last_name': 'Vleggaar', 'id': 696}, 'first_author': False, 'id': 959}, {'author': {'first_name': '', 'initials': 'J', 'last_name': 'Senabe', 'id': 676}, 'first_author': False, 'id': 960}, {'author': {'first_name': 'Philip', 'initials': 'Pj', 'last_name': 'Gunning', 'id': 697}, 'first_author': False, 'id': 961}], 'id': 321}]

>  <classifications>  (359) 
[{'classification': 'Glycoside', 'id': 781}, {'classification': 'Pregnane', 'id': 813}, {'classification': 'Steroid', 'id': 835}, {'classification': 'Fatty Acyls (Classyfire)', 'id': 957}]

>  <molecular_mass>  (359) 
322.35

$$$$
SANC00462_minRM1.pdb
     RDKit          3D

 28 28  0  0  1  0  0  0  0  0999 V2000
    3.5740   -0.0740   -0.4790 C   0  0  0  0  0  0  0  0  0  0  0  0
    2.5820   -0.5060    0.4150 O   0  0  0  0  0  0  0  0  0  0  0  0
    1.2720   -0.4050   -0.0690 C   0  0  1  0  0  0  0  0  0  0  0  0
    1.1470   -0.8460   -1.1000 H   0  0  0  0  0  0  0  0  0  0  0  0
    0.3870   -1.1200    0.9660 C   0  0  0  0  0  0  0  0  0  0  0  0
   -1.0850   -0.8200    0.6610 C   0  0  2  0  0  0  0  0  0  0  0  0
   -1.7460   -1.2420    1.4650 H   0  0  0  0  0  0  0  0  0  0  0  0
   -1.3950   -1.3100   -0.6200 O   0  0  0  0  0  0  0  0  0  0  0  0
   -1.9790   -2.5840   -0.6220 C   0  0  0  0  0  0  0  0  0  0  0  0
   -1.2690    0.7160    0.5980 C   0  0  2  0  0  0  0  0  0  0  0  0
   -1.0590    1.1450    1.6160 H   0  0  0  0  0  0  0  0  0  0  0  0
   -2.5950    0.9110    0.2140 O   0  0  0  0  0  0  0  0  0  0  0  0
   -0.2900    1.3170   -0.4420 C   0  0  1  0  0  0  0  0  0  0  0  0
   -0.5350    0.9400   -1.4720 H   0  0  0  0  0  0  0  0  0  0  0  0
   -0.3250    2.8450   -0.4260 C   0  0  0  0  0  0  0  0  0  0  0  0
    1.0250    0.9830   -0.0690 O   0  0  0  0  0  0  0  0  0  0  0  0
    4.5180   -0.2560    0.0570 H   0  0  0  0  0  0  0  0  0  0  0  0
    3.5850   -0.6460   -1.4220 H   0  0  0  0  0  0  0  0  0  0  0  0
    3.5090    0.9980   -0.7260 H   0  0  0  0  0  0  0  0  0  0  0  0
    0.5880   -2.2090    0.9500 H   0  0  0  0  0  0  0  0  0  0  0  0
    0.6400   -0.7960    1.9970 H   0  0  0  0  0  0  0  0  0  0  0  0
   -2.0970   -2.8300   -1.6880 H   0  0  0  0  0  0  0  0  0  0  0  0
   -1.3520   -3.3570   -0.1470 H   0  0  0  0  0  0  0  0  0  0  0  0
   -2.9740   -2.6040   -0.1450 H   0  0  0  0  0  0  0  0  0  0  0  0
   -2.7790    1.8520    0.2840 H   0  0  0  0  0  0  0  0  0  0  0  0
   -0.1870    3.2610    0.5820 H   0  0  0  0  0  0  0  0  0  0  0  0
    0.4720    3.2740   -1.0510 H   0  0  0  0  0  0  0  0  0  0  0  0
   -1.2730    3.2340   -0.8210 H   0  0  0  0  0  0  0  0  0  0  0  0
  1 18  1  0
  1 19  1  0
  1 17  1  0
  1  2  1  0
  2  3  1  0
  3  4  1  6
  3 16  1  0
  3  5  1  0
  5  6  1  0
  5 20  1  0
  5 21  1  0
  6  8  1  0
  6 10  1  0
  6  7  1  1
  8  9  1  0
  9 22  1  0
  9 23  1  0
  9 24  1  0
 10 13  1  0
 10 12  1  0
 10 11  1  1
 12 25  1  0
 13 14  1  6
 13 15  1  0
 13 16  1  0
 15 27  1  0
 15 28  1  0
 15 26  1  0
M  END
>  <id>  (360) 
462

>  <scaffolds>  (360) 
['C1CCOCC1']

>  <name>  (360) 
Methyl [beta]-D-cymaropyranoside

>  <formula>  (360) 
C8H16O4

>  <SMILES>  (360) 
CO[C@H]1C[C@H](OC)[C@H](O)[C@@H](C)O1

>  <ChEMBL_id>  (360) 


>  <ZINC_id>  (360) 


>  <PubChem_id>  (360) 


>  <DrugBank_id>  (360) 


>  <CAS_no>  (360) 
67968-33-6

>  <references>  (360) 
[{'journal': {'name': 'Phytochemistry', 'id': 10}, 'title': 'An appetite suppressant from Hoodia species', 'year': 2007, 'start_page': 2545, 'volume': 68, 'issue': None, 'doi': '10.1016/j.phytochem.2007.05.022', 'isbn': '', 'despositor': {'code': 'DLP', 'first_name': 'David', 'last_name': 'Penkler', 'id': 23}, 'refauthors_set': [{'author': {'first_name': 'Fanie', 'initials': 'FR', 'last_name': 'Van Heerden', 'id': 634}, 'first_author': True, 'id': 956}, {'author': {'first_name': '', 'initials': 'R', 'last_name': 'Marthinus Horak', 'id': 695}, 'first_author': False, 'id': 957}, {'author': {'first_name': '', 'initials': 'VJ', 'last_name': 'Maharaj', 'id': 675}, 'first_author': False, 'id': 958}, {'author': {'first_name': 'Robert', 'initials': 'R', 'last_name': 'Vleggaar', 'id': 696}, 'first_author': False, 'id': 959}, {'author': {'first_name': '', 'initials': 'J', 'last_name': 'Senabe', 'id': 676}, 'first_author': False, 'id': 960}, {'author': {'first_name': 'Philip', 'initials': 'Pj', 'last_name': 'Gunning', 'id': 697}, 'first_author': False, 'id': 961}], 'id': 321}]

>  <classifications>  (360) 
[{'classification': 'Glycoside', 'id': 781}, {'classification': 'Pregnane', 'id': 813}, {'classification': 'Steroid', 'id': 835}, {'classification': 'Organooxygen compounds (Classyfire)', 'id': 954}]

>  <molecular_mass>  (360) 
176.21

$$$$
SANC00463_minRM1.pdb
     RDKit          3D

 51 52  0  0  1  0  0  0  0  0999 V2000
    1.1730    0.1730   -1.3850 H   0  0  0  0  0  0  0  0  0  0  0  0
    1.2830   -0.1410   -0.3130 C   0  0  2  0  0  0  0  0  0  0  0  0
    0.0910   -0.5790    0.2910 O   0  0  0  0  0  0  0  0  0  0  0  0
   -1.0790   -0.4080   -0.4520 C   0  0  2  0  0  0  0  0  0  0  0  0
   -1.0730   -1.0220   -1.3990 H   0  0  0  0  0  0  0  0  0  0  0  0
   -1.1490    0.9700   -0.7150 O   0  0  0  0  0  0  0  0  0  0  0  0
   -2.3190    1.3320   -1.4100 C   0  0  2  0  0  0  0  0  0  0  0  0
   -2.4200    0.7560   -2.3710 H   0  0  0  0  0  0  0  0  0  0  0  0
   -2.1780    2.8220   -1.7020 C   0  0  0  0  0  0  0  0  0  0  0  0
   -3.5360    1.0630   -0.4910 C   0  0  1  0  0  0  0  0  0  0  0  0
   -3.4620    1.6930    0.4370 H   0  0  0  0  0  0  0  0  0  0  0  0
   -4.6550    1.3860   -1.2570 O   0  0  0  0  0  0  0  0  0  0  0  0
   -3.5770   -0.4420   -0.1180 C   0  0  2  0  0  0  0  0  0  0  0  0
   -3.7900   -1.0690   -1.0230 H   0  0  0  0  0  0  0  0  0  0  0  0
   -4.5950   -0.5150    0.8470 O   0  0  0  0  0  0  0  0  0  0  0  0
   -5.1720   -1.7840    1.0120 C   0  0  0  0  0  0  0  0  0  0  0  0
   -2.2240   -0.8360    0.5150 C   0  0  1  0  0  0  0  0  0  0  0  0
   -2.1010   -0.3340    1.5140 H   0  0  0  0  0  0  0  0  0  0  0  0
   -2.2260   -2.2260    0.6100 O   0  0  0  0  0  0  0  0  0  0  0  0
    2.2900   -1.3140   -0.2120 C   0  0  1  0  0  0  0  0  0  0  0  0
    2.3530   -1.6920    0.8450 H   0  0  0  0  0  0  0  0  0  0  0  0
    1.8990   -2.4490   -1.1550 C   0  0  0  0  0  0  0  0  0  0  0  0
    3.5420   -0.8690   -0.6730 O   0  0  0  0  0  0  0  0  0  0  0  0
    4.0880    0.1720    0.1040 C   0  0  1  0  0  0  0  0  0  0  0  0
    4.2660   -0.1560    1.1670 H   0  0  0  0  0  0  0  0  0  0  0  0
    5.2710    0.5040   -0.5700 O   0  0  0  0  0  0  0  0  0  0  0  0
    6.2840   -0.4630   -0.4900 C   0  0  0  0  0  0  0  0  0  0  0  0
    3.2000    1.4250    0.0340 C   0  0  0  0  0  0  0  0  0  0  0  0
    1.7900    1.0650    0.5120 C   0  0  2  0  0  0  0  0  0  0  0  0
    1.0910    1.9330    0.3760 H   0  0  0  0  0  0  0  0  0  0  0  0
    1.8520    0.6170    1.8430 O   0  0  0  0  0  0  0  0  0  0  0  0
    1.6930    1.6290    2.7980 C   0  0  0  0  0  0  0  0  0  0  0  0
   -1.2680    3.0460   -2.2790 H   0  0  0  0  0  0  0  0  0  0  0  0
   -3.0340    3.1860   -2.2850 H   0  0  0  0  0  0  0  0  0  0  0  0
   -2.1220    3.4260   -0.7840 H   0  0  0  0  0  0  0  0  0  0  0  0
   -5.4260    1.3250   -0.6780 H   0  0  0  0  0  0  0  0  0  0  0  0
   -5.5540   -2.2200    0.0700 H   0  0  0  0  0  0  0  0  0  0  0  0
   -4.4960   -2.5130    1.4870 H   0  0  0  0  0  0  0  0  0  0  0  0
   -6.0240   -1.6040    1.6850 H   0  0  0  0  0  0  0  0  0  0  0  0
   -1.4530   -2.4810    1.1270 H   0  0  0  0  0  0  0  0  0  0  0  0
    1.8530   -2.1320   -2.2070 H   0  0  0  0  0  0  0  0  0  0  0  0
    2.6200   -3.2800   -1.1110 H   0  0  0  0  0  0  0  0  0  0  0  0
    0.9130   -2.8600   -0.8940 H   0  0  0  0  0  0  0  0  0  0  0  0
    6.6090   -0.6630    0.5440 H   0  0  0  0  0  0  0  0  0  0  0  0
    6.0190   -1.4220   -0.9590 H   0  0  0  0  0  0  0  0  0  0  0  0
    7.1230   -0.0190   -1.0470 H   0  0  0  0  0  0  0  0  0  0  0  0
    3.6420    2.2390    0.6420 H   0  0  0  0  0  0  0  0  0  0  0  0
    3.1630    1.8300   -0.9980 H   0  0  0  0  0  0  0  0  0  0  0  0
    2.4450    2.4330    2.7190 H   0  0  0  0  0  0  0  0  0  0  0  0
    0.6930    2.0930    2.7770 H   0  0  0  0  0  0  0  0  0  0  0  0
    1.8250    1.1150    3.7620 H   0  0  0  0  0  0  0  0  0  0  0  0
  2  1  1  6
  2 20  1  0
  2  3  1  0
  2 29  1  0
  3  4  1  0
  4  5  1  6
  4  6  1  0
  4 17  1  0
  6  7  1  0
  7  8  1  6
  7  9  1  0
  7 10  1  0
  9 34  1  0
  9 33  1  0
  9 35  1  0
 10 12  1  0
 10 13  1  0
 10 11  1  1
 12 36  1  0
 13 14  1  6
 13 17  1  0
 13 15  1  0
 15 16  1  0
 16 37  1  0
 16 38  1  0
 16 39  1  0
 17 19  1  0
 17 18  1  1
 19 40  1  0
 20 22  1  0
 20 23  1  0
 20 21  1  1
 22 41  1  0
 22 42  1  0
 22 43  1  0
 23 24  1  0
 24 26  1  0
 24 28  1  0
 24 25  1  1
 26 27  1  0
 27 46  1  0
 27 45  1  0
 27 44  1  0
 28 48  1  0
 28 29  1  0
 28 47  1  0
 29 30  1  1
 29 31  1  0
 31 32  1  0
 32 49  1  0
 32 50  1  0
 32 51  1  0
M  END
>  <id>  (361) 
463

>  <scaffolds>  (361) 
['C1CCOCC1', 'C1CCC(OC2CCCOC2)OC1']

>  <name>  (361) 
Dresibioside

>  <formula>  (361) 
C15H28O8

>  <SMILES>  (361) 
[H][C@@]2(O[C@@H]1O[C@H](C)[C@@H](O)[C@H](OC)[C@H]1O)[C@@H](C)O[C@@H](OC)C[C@@H]2OC

>  <ChEMBL_id>  (361) 


>  <ZINC_id>  (361) 


>  <PubChem_id>  (361) 


>  <DrugBank_id>  (361) 


>  <CAS_no>  (361) 
130855-19-5

>  <references>  (361) 
[{'journal': {'name': 'Phytochemistry', 'id': 10}, 'title': 'An appetite suppressant from Hoodia species', 'year': 2007, 'start_page': 2545, 'volume': 68, 'issue': None, 'doi': '10.1016/j.phytochem.2007.05.022', 'isbn': '', 'despositor': {'code': 'DLP', 'first_name': 'David', 'last_name': 'Penkler', 'id': 23}, 'refauthors_set': [{'author': {'first_name': 'Fanie', 'initials': 'FR', 'last_name': 'Van Heerden', 'id': 634}, 'first_author': True, 'id': 956}, {'author': {'first_name': '', 'initials': 'R', 'last_name': 'Marthinus Horak', 'id': 695}, 'first_author': False, 'id': 957}, {'author': {'first_name': '', 'initials': 'VJ', 'last_name': 'Maharaj', 'id': 675}, 'first_author': False, 'id': 958}, {'author': {'first_name': 'Robert', 'initials': 'R', 'last_name': 'Vleggaar', 'id': 696}, 'first_author': False, 'id': 959}, {'author': {'first_name': '', 'initials': 'J', 'last_name': 'Senabe', 'id': 676}, 'first_author': False, 'id': 960}, {'author': {'first_name': 'Philip', 'initials': 'Pj', 'last_name': 'Gunning', 'id': 697}, 'first_author': False, 'id': 961}], 'id': 321}]

>  <classifications>  (361) 
[{'classification': 'Glycoside', 'id': 781}, {'classification': 'Pregnane', 'id': 813}, {'classification': 'Steroid', 'id': 835}, {'classification': 'Organooxygen compounds (Classyfire)', 'id': 954}]

>  <molecular_mass>  (361) 
336.38

$$$$
SANC00464_minRM1.pdb
     RDKit          3D

 38 40  0  0  0  0  0  0  0  0999 V2000
    5.7300   -0.1260    1.0870 C   0  0  0  0  0  0  0  0  0  0  0  0
    5.1100   -0.4650   -0.1340 O   0  0  0  0  0  0  0  0  0  0  0  0
    3.7500   -0.5620   -0.0260 C   0  0  0  0  0  0  0  0  0  0  0  0
    3.1580   -1.8330   -0.0680 C   0  0  0  0  0  0  0  0  0  0  0  0
    3.8670   -2.9760   -0.0690 O   0  0  0  0  0  0  0  0  0  0  0  0
    1.7670   -1.9930   -0.0950 C   0  0  0  0  0  0  0  0  0  0  0  0
    0.9920   -0.8400   -0.0840 C   0  0  0  0  0  0  0  0  0  0  0  0
   -0.3570   -1.0520   -0.1100 O   0  0  0  0  0  0  0  0  0  0  0  0
   -1.1850    0.0320   -0.0770 C   0  0  0  0  0  0  0  0  0  0  0  0
   -2.5860   -0.3700   -0.0590 C   0  0  0  0  0  0  0  0  0  0  0  0
   -3.0170   -1.3520    0.8360 C   0  0  0  0  0  0  0  0  0  0  0  0
   -4.3600   -1.6720    0.9210 C   0  0  0  0  0  0  0  0  0  0  0  0
   -5.2650   -0.9990    0.0920 C   0  0  0  0  0  0  0  0  0  0  0  0
   -6.5640   -1.3550    0.2400 O   0  0  0  0  0  0  0  0  0  0  0  0
   -4.8410   -0.0430   -0.8340 C   0  0  0  0  0  0  0  0  0  0  0  0
   -3.4890    0.2640   -0.9090 C   0  0  0  0  0  0  0  0  0  0  0  0
   -0.7340    1.3080   -0.0530 C   0  0  0  0  0  0  0  0  0  0  0  0
   -1.6190    2.3460   -0.1330 O   0  0  0  0  0  0  0  0  0  0  0  0
   -1.8340    2.9570    1.1210 C   0  0  0  0  0  0  0  0  0  0  0  0
    0.6900    1.6160   -0.0350 C   0  0  0  0  0  0  0  0  0  0  0  0
    1.1680    2.7490    0.0050 O   0  0  0  0  0  0  0  0  0  0  0  0
    1.5420    0.4440   -0.0460 C   0  0  0  0  0  0  0  0  0  0  0  0
    2.9430    0.5810   -0.0190 C   0  0  0  0  0  0  0  0  0  0  0  0
    3.5520    1.7660    0.0390 O   0  0  0  0  0  0  0  0  0  0  0  0
    5.3840    0.8290    1.5130 H   0  0  0  0  0  0  0  0  0  0  0  0
    5.6110   -0.9110    1.8530 H   0  0  0  0  0  0  0  0  0  0  0  0
    6.7950   -0.0310    0.8260 H   0  0  0  0  0  0  0  0  0  0  0  0
    4.8110   -2.7790   -0.1700 H   0  0  0  0  0  0  0  0  0  0  0  0
    1.3150   -2.9880   -0.1290 H   0  0  0  0  0  0  0  0  0  0  0  0
   -2.2950   -1.8650    1.4800 H   0  0  0  0  0  0  0  0  0  0  0  0
   -4.7150   -2.4270    1.6280 H   0  0  0  0  0  0  0  0  0  0  0  0
   -7.1180   -0.6520   -0.1200 H   0  0  0  0  0  0  0  0  0  0  0  0
   -5.5520    0.4650   -1.4900 H   0  0  0  0  0  0  0  0  0  0  0  0
   -3.1430    1.0030   -1.6410 H   0  0  0  0  0  0  0  0  0  0  0  0
   -2.2980    2.2700    1.8490 H   0  0  0  0  0  0  0  0  0  0  0  0
   -0.9170    3.3770    1.5640 H   0  0  0  0  0  0  0  0  0  0  0  0
   -2.5360    3.7750    0.9010 H   0  0  0  0  0  0  0  0  0  0  0  0
    2.8890    2.5020   -0.0260 H   0  0  0  0  0  0  0  0  0  0  0  0
  1  2  1  0
  1 27  1  0
  1 25  1  0
  1 26  1  0
  2  3  1  0
  3  4  2  0
  3 23  1  0
  4  6  1  0
  4  5  1  0
  5 28  1  0
  6 29  1  0
  6  7  2  0
  7  8  1  0
  7 22  1  0
  8  9  1  0
  9 10  1  0
  9 17  2  0
 10 16  2  0
 10 11  1  0
 11 12  2  0
 11 30  1  0
 12 13  1  0
 12 31  1  0
 13 15  2  0
 13 14  1  0
 14 32  1  0
 15 33  1  0
 15 16  1  0
 16 34  1  0
 17 18  1  0
 17 20  1  0
 18 19  1  0
 19 37  1  0
 19 36  1  0
 19 35  1  0
 20 22  1  0
 20 21  2  0
 22 23  2  0
 23 24  1  0
 24 38  1  0
M  END
>  <id>  (362) 
464

>  <scaffolds>  (362) 
['c1ccccc1', 'O=c1cc(-c2ccccc2)oc2ccccc12', 'O=c1ccoc2ccccc12']

>  <name>  (362) 
3,6-Dimethoxyapigenin

>  <formula>  (362) 
C17H14O7

>  <SMILES>  (362) 
COc3c(O)cc2oc(c1ccc(O)cc1)c(OC)c(=O)c2c3O

>  <ChEMBL_id>  (362) 


>  <ZINC_id>  (362) 


>  <PubChem_id>  (362) 


>  <DrugBank_id>  (362) 


>  <CAS_no>  (362) 
22697-65-0

>  <references>  (362) 
[{'journal': {'name': 'Phytochemical communication', 'id': 32}, 'title': 'The major flavonoid of Dodonaea angustifolia', 'year': 2000, 'start_page': 602, 'volume': 71, 'issue': None, 'doi': '10.1016/S0367-326X(00)00201-X', 'isbn': '', 'despositor': {'code': 'DLP', 'first_name': 'David', 'last_name': 'Penkler', 'id': 23}, 'refauthors_set': [{'author': {'first_name': 'Fanie', 'initials': 'FR', 'last_name': 'Van Heerden', 'id': 634}, 'first_author': True, 'id': 963}, {'author': {'first_name': 'Alvaro', 'initials': 'AM', 'last_name': 'Viljoen', 'id': 655}, 'first_author': False, 'id': 964}, {'author': {'first_name': 'Ben-Erik', 'initials': 'B', 'last_name': 'van Wyk', 'id': 635}, 'first_author': False, 'id': 965}], 'id': 322}]

>  <classifications>  (362) 
[{'classification': 'Flavonoids', 'id': 776}, {'classification': 'Flavonoids (Classyfire)', 'id': 941}]

>  <molecular_mass>  (362) 
330.29

$$$$
SANC00465_minRM1.pdb
     RDKit          3D

 68 72  0  0  1  0  0  0  0  0999 V2000
    1.2580   -1.5600   -0.9620 H   0  0  0  0  0  0  0  0  0  0  0  0
    1.3080   -1.0400    0.0380 C   0  0  1  0  0  0  0  0  0  0  0  0
    0.5640   -1.8820    1.0690 C   0  0  0  0  0  0  0  0  0  0  0  0
   -0.8250   -2.2370    0.5230 C   0  0  1  0  0  0  0  0  0  0  0  0
   -0.6960   -2.8330   -0.4260 H   0  0  0  0  0  0  0  0  0  0  0  0
   -1.5400   -3.0070    1.4500 O   0  0  0  0  0  0  0  0  0  0  0  0
   -1.6980   -0.9820    0.2540 C   0  0  2  0  0  0  0  0  0  0  0  0
   -2.1810   -0.3670    1.5570 C   0  0  0  0  0  0  0  0  0  0  0  0
   -2.8700   -1.4320   -0.6610 C   0  0  1  0  0  0  0  0  0  0  0  0
   -3.1740   -2.4810   -0.4010 H   0  0  0  0  0  0  0  0  0  0  0  0
   -4.0900   -0.5850   -0.5080 C   0  0  0  0  0  0  0  0  0  0  0  0
   -4.3310    0.5960   -1.2890 C   0  0  0  0  0  0  0  0  0  0  0  0
   -5.4510    1.3140   -1.0790 C   0  0  0  0  0  0  0  0  0  0  0  0
   -6.4080    0.9030   -0.0710 C   0  0  0  0  0  0  0  0  0  0  0  0
   -7.4530    1.4390    0.2460 O   0  0  0  0  0  0  0  0  0  0  0  0
   -6.1530   -0.2500    0.6520 O   0  0  0  0  0  0  0  0  0  0  0  0
   -5.0190   -0.9390    0.4150 C   0  0  0  0  0  0  0  0  0  0  0  0
   -2.2880   -1.4280   -2.0840 C   0  0  0  0  0  0  0  0  0  0  0  0
   -0.9720   -0.6460   -2.0430 C   0  0  0  0  0  0  0  0  0  0  0  0
   -0.9010   -0.0000   -0.6460 C   0  0  1  0  0  0  0  0  0  0  0  0
   -1.6030    1.2070   -0.6240 O   0  0  0  0  0  0  0  0  0  0  0  0
    0.5580    0.2850   -0.1570 C   0  0  1  0  0  0  0  0  0  0  0  0
    0.5170    0.9340    1.0710 O   0  0  0  0  0  0  0  0  0  0  0  0
    1.3070    1.1440   -1.1880 C   0  0  0  0  0  0  0  0  0  0  0  0
    2.7360    1.4270   -0.7240 C   0  0  1  0  0  0  0  0  0  0  0  0
    3.2590    2.0330   -1.5180 H   0  0  0  0  0  0  0  0  0  0  0  0
    2.7540    2.1200    0.5090 O   0  0  0  0  0  0  0  0  0  0  0  0
    2.4110    3.4310    0.5240 C   0  0  0  0  0  0  0  0  0  0  0  0
    2.5100    4.0120    1.8970 C   0  0  0  0  0  0  0  0  0  0  0  0
    2.0860    4.0090   -0.4990 O   0  0  0  0  0  0  0  0  0  0  0  0
    3.4750    0.1450   -0.4460 C   0  0  0  0  0  0  0  0  0  0  0  0
    4.7180    0.0120   -0.9100 C   0  0  0  0  0  0  0  0  0  0  0  0
    5.5360   -1.2390   -0.7690 C   0  0  1  0  0  0  0  0  0  0  0  0
    5.5420   -1.7500   -1.7760 H   0  0  0  0  0  0  0  0  0  0  0  0
    6.8400   -0.9530   -0.3500 O   0  0  0  0  0  0  0  0  0  0  0  0
    4.9710   -2.1930    0.2890 C   0  0  0  0  0  0  0  0  0  0  0  0
    3.4620   -2.2630    0.1200 C   0  0  0  0  0  0  0  0  0  0  0  0
    2.8020   -0.8950    0.3980 C   0  0  2  0  0  0  0  0  0  0  0  0
    3.0320   -0.5230    1.8640 C   0  0  0  0  0  0  0  0  0  0  0  0
    1.1360   -2.8100    1.2940 H   0  0  0  0  0  0  0  0  0  0  0  0
    0.4820   -1.3700    2.0500 H   0  0  0  0  0  0  0  0  0  0  0  0
   -1.0120   -3.7840    1.6550 H   0  0  0  0  0  0  0  0  0  0  0  0
   -1.3620   -0.1490    2.2560 H   0  0  0  0  0  0  0  0  0  0  0  0
   -2.7290    0.5760    1.4150 H   0  0  0  0  0  0  0  0  0  0  0  0
   -2.8690   -1.0350    2.0980 H   0  0  0  0  0  0  0  0  0  0  0  0
   -3.6100    0.9060   -2.0520 H   0  0  0  0  0  0  0  0  0  0  0  0
   -5.6930    2.2210   -1.6350 H   0  0  0  0  0  0  0  0  0  0  0  0
   -4.9900   -1.8110    1.0800 H   0  0  0  0  0  0  0  0  0  0  0  0
   -2.1170   -2.4650   -2.4400 H   0  0  0  0  0  0  0  0  0  0  0  0
   -2.9920   -1.0240   -2.8370 H   0  0  0  0  0  0  0  0  0  0  0  0
   -0.0990   -1.3110   -2.2130 H   0  0  0  0  0  0  0  0  0  0  0  0
   -0.9120    0.0950   -2.8660 H   0  0  0  0  0  0  0  0  0  0  0  0
   -1.2690    1.7680   -1.3330 H   0  0  0  0  0  0  0  0  0  0  0  0
    0.0160    1.7520    0.9790 H   0  0  0  0  0  0  0  0  0  0  0  0
    1.3580    0.6370   -2.1730 H   0  0  0  0  0  0  0  0  0  0  0  0
    0.7730    2.0940   -1.3960 H   0  0  0  0  0  0  0  0  0  0  0  0
    2.1960    3.3060    2.6800 H   0  0  0  0  0  0  0  0  0  0  0  0
    3.5490    4.3010    2.1160 H   0  0  0  0  0  0  0  0  0  0  0  0
    1.8880    4.9160    1.9890 H   0  0  0  0  0  0  0  0  0  0  0  0
    5.2100    0.8220   -1.4630 H   0  0  0  0  0  0  0  0  0  0  0  0
    7.2440   -0.3740   -1.0030 H   0  0  0  0  0  0  0  0  0  0  0  0
    5.4290   -3.1980    0.1750 H   0  0  0  0  0  0  0  0  0  0  0  0
    5.2600   -1.8860    1.3140 H   0  0  0  0  0  0  0  0  0  0  0  0
    3.2240   -2.6130   -0.9060 H   0  0  0  0  0  0  0  0  0  0  0  0
    3.0350   -3.0440    0.7840 H   0  0  0  0  0  0  0  0  0  0  0  0
    4.0610   -0.1750    2.0440 H   0  0  0  0  0  0  0  0  0  0  0  0
    2.3900    0.2890    2.2260 H   0  0  0  0  0  0  0  0  0  0  0  0
    2.8670   -1.3720    2.5440 H   0  0  0  0  0  0  0  0  0  0  0  0
  2  1  1  6
  2 22  1  0
  2 38  1  0
  2  3  1  0
  3  4  1  0
  3 40  1  0
  3 41  1  0
  4  5  1  6
  4  7  1  0
  4  6  1  0
  6 42  1  0
  7  9  1  0
  7 20  1  0
  7  8  1  1
  8 44  1  0
  8 45  1  0
  8 43  1  0
  9 18  1  0
  9 11  1  0
  9 10  1  1
 11 12  1  0
 11 17  2  0
 12 46  1  0
 12 13  2  0
 13 47  1  0
 13 14  1  0
 14 15  2  0
 14 16  1  0
 16 17  1  0
 17 48  1  0
 18 50  1  0
 18 49  1  0
 18 19  1  0
 19 52  1  0
 19 51  1  0
 19 20  1  0
 20 21  1  6
 20 22  1  0
 21 53  1  0
 22 24  1  0
 22 23  1  1
 23 54  1  0
 24 55  1  0
 24 56  1  0
 24 25  1  0
 25 26  1  6
 25 31  1  0
 25 27  1  0
 27 28  1  0
 28 30  2  0
 28 29  1  0
 29 59  1  0
 29 58  1  0
 29 57  1  0
 31 32  2  0
 31 38  1  0
 32 60  1  0
 32 33  1  0
 33 34  1  6
 33 35  1  0
 33 36  1  0
 35 61  1  0
 36 37  1  0
 36 62  1  0
 36 63  1  0
 37 64  1  0
 37 38  1  0
 37 65  1  0
 38 39  1  1
 39 66  1  0
 39 67  1  0
 39 68  1  0
M  END
>  <id>  (363) 
465

>  <scaffolds>  (363) 
['C1=CCCCC1', 'C=C1CCC2CCCCC2C1', 'C1CCC(C2CCCC2)CC1', 'C1CCCCC1', 'C1=C2CCCCC2CCC1', 'O=c1ccc(C2CCC3C2CCC2C4CCCC=C4CCC23)co1', 'C1CCC2CCCCC2C1']

>  <name>  (363) 
12[beta]-hydroxyscillirosidin

>  <formula>  (363) 
C26H34O8

>  <SMILES>  (363) 
[H][C@]35C[C@@H](O)[C@]2(C)[C@@H](c1ccc(=O)oc1)CC[C@]2(O)[C@]3(O)C[C@@H](OC(C)=O)C4=C[C@@H](O)CC[C@@]45C

>  <ChEMBL_id>  (363) 


>  <ZINC_id>  (363) 


>  <PubChem_id>  (363) 
 637392

>  <DrugBank_id>  (363) 


>  <CAS_no>  (363) 
154233-95-1

>  <references>  (363) 
[{'journal': {'name': 'Phytochemistry', 'id': 10}, 'title': 'Bufadienolides from Drimia robusta and Urginea altissima (Hyacinthaceae)', 'year': 2001, 'start_page': 557, 'volume': 58, 'issue': None, 'doi': '10.1016/S0031-9422(01)00225-4', 'isbn': '', 'despositor': {'code': 'rah', 'first_name': 'Rowan', 'last_name': 'Hatherley', 'id': 20}, 'refauthors_set': [{'author': {'first_name': 'Tracy', 'initials': 'T', 'last_name': 'Pohl', 'id': 698}, 'first_author': True, 'id': 967}, {'author': {'first_name': 'Chantal', 'initials': 'C', 'last_name': 'Koorbanally', 'id': 523}, 'first_author': None, 'id': 968}, {'author': {'first_name': 'Neil', 'initials': 'NR', 'last_name': 'Crouch', 'id': 524}, 'first_author': None, 'id': 969}, {'author': {'first_name': 'Dulcie', 'initials': 'DA', 'last_name': 'Mulholland', 'id': 525}, 'first_author': None, 'id': 970}], 'id': 323}, {'journal': {'name': 'Phytochemistry', 'id': 10}, 'title': 'Bufadienolides from Drimia robusta and Urginea epigea (Hyacinthaceae)', 'year': 2004, 'start_page': 3069, 'volume': 65, 'issue': 23, 'doi': '10.1016/j.phytochem.2004.08.051', 'isbn': '', 'despositor': {'code': 'rah', 'first_name': 'Rowan', 'last_name': 'Hatherley', 'id': 20}, 'refauthors_set': [{'author': {'first_name': 'Neil', 'initials': 'NA', 'last_name': 'Koorbanally', 'id': 699}, 'first_author': True, 'id': 971}, {'author': {'first_name': 'Chantal', 'initials': 'C', 'last_name': 'Koorbanally', 'id': 523}, 'first_author': None, 'id': 972}, {'author': {'first_name': 'Avinash', 'initials': 'A', 'last_name': 'Harilal', 'id': 624}, 'first_author': None, 'id': 973}, {'author': {'first_name': 'Dulcie', 'initials': 'DA', 'last_name': 'Mulholland', 'id': 525}, 'first_author': None, 'id': 974}, {'author': {'first_name': 'Neil', 'initials': 'NR', 'last_name': 'Crouch', 'id': 524}, 'first_author': None, 'id': 975}], 'id': 324}]

>  <classifications>  (363) 
[{'classification': 'Bufadienolide', 'id': 752}, {'classification': 'Steroid', 'id': 835}, {'classification': 'Steroids and steroid derivatives (Classyfire)', 'id': 942}]

>  <molecular_mass>  (363) 
474.54

$$$$
SANC00466_minRM1.pdb
     RDKit          3D

 66 70  0  0  1  0  0  0  0  0999 V2000
   -1.2040   -1.5930    0.7500 H   0  0  0  0  0  0  0  0  0  0  0  0
   -1.2990   -0.9570   -0.1770 C   0  0  1  0  0  0  0  0  0  0  0  0
   -0.5590   -1.6490   -1.3120 C   0  0  0  0  0  0  0  0  0  0  0  0
    0.8640   -1.9420   -0.9250 C   0  0  0  0  0  0  0  0  0  0  0  0
    1.3520   -3.0270   -1.1870 O   0  0  0  0  0  0  0  0  0  0  0  0
    1.7030   -0.8280   -0.3150 C   0  0  2  0  0  0  0  0  0  0  0  0
    2.2690   -0.0730   -1.5120 C   0  0  0  0  0  0  0  0  0  0  0  0
    2.8140   -1.4310    0.5950 C   0  0  1  0  0  0  0  0  0  0  0  0
    2.9450   -2.5240    0.3800 H   0  0  0  0  0  0  0  0  0  0  0  0
    4.1550   -0.8030    0.3810 C   0  0  0  0  0  0  0  0  0  0  0  0
    4.5820    0.3650    1.0980 C   0  0  0  0  0  0  0  0  0  0  0  0
    5.8040    0.8800    0.8700 C   0  0  0  0  0  0  0  0  0  0  0  0
    6.6860    0.2600   -0.1060 C   0  0  0  0  0  0  0  0  0  0  0  0
    7.8070    0.5980   -0.4330 O   0  0  0  0  0  0  0  0  0  0  0  0
    6.2390   -0.8620   -0.7840 O   0  0  0  0  0  0  0  0  0  0  0  0
    5.0080   -1.3480   -0.5210 C   0  0  0  0  0  0  0  0  0  0  0  0
    2.3080   -1.3120    2.0420 C   0  0  0  0  0  0  0  0  0  0  0  0
    0.9050   -0.7200    1.9700 C   0  0  0  0  0  0  0  0  0  0  0  0
    0.8610    0.0570    0.6420 C   0  0  1  0  0  0  0  0  0  0  0  0
    1.4220    1.3230    0.7940 O   0  0  0  0  0  0  0  0  0  0  0  0
   -0.5940    0.3670    0.1570 C   0  0  1  0  0  0  0  0  0  0  0  0
   -0.5260    1.1240   -1.0060 O   0  0  0  0  0  0  0  0  0  0  0  0
   -1.3710    1.1030    1.2580 C   0  0  0  0  0  0  0  0  0  0  0  0
   -2.8100    1.3730    0.8220 C   0  0  1  0  0  0  0  0  0  0  0  0
   -3.3500    1.9030    1.6570 H   0  0  0  0  0  0  0  0  0  0  0  0
   -2.8540    2.1500   -0.3600 O   0  0  0  0  0  0  0  0  0  0  0  0
   -2.5790    3.4750   -0.2800 C   0  0  0  0  0  0  0  0  0  0  0  0
   -2.6930    4.1410   -1.6130 C   0  0  0  0  0  0  0  0  0  0  0  0
   -2.2960    3.9960    0.7840 O   0  0  0  0  0  0  0  0  0  0  0  0
   -3.5010    0.0850    0.4570 C   0  0  0  0  0  0  0  0  0  0  0  0
   -4.7140   -0.1570    0.9510 C   0  0  0  0  0  0  0  0  0  0  0  0
   -5.4740   -1.4300    0.7130 C   0  0  1  0  0  0  0  0  0  0  0  0
   -5.3950   -2.0530    1.6500 H   0  0  0  0  0  0  0  0  0  0  0  0
   -6.8130   -1.1700    0.3960 O   0  0  0  0  0  0  0  0  0  0  0  0
   -4.9210   -2.2140   -0.4820 C   0  0  0  0  0  0  0  0  0  0  0  0
   -3.4060   -2.2490   -0.3720 C   0  0  0  0  0  0  0  0  0  0  0  0
   -2.8040   -0.8330   -0.5020 C   0  0  2  0  0  0  0  0  0  0  0  0
   -3.0730   -0.3090   -1.9160 C   0  0  0  0  0  0  0  0  0  0  0  0
   -1.0840   -2.5860   -1.6100 H   0  0  0  0  0  0  0  0  0  0  0  0
   -0.5420   -1.0410   -2.2430 H   0  0  0  0  0  0  0  0  0  0  0  0
    1.4850    0.3170   -2.1780 H   0  0  0  0  0  0  0  0  0  0  0  0
    2.8810    0.7950   -1.2240 H   0  0  0  0  0  0  0  0  0  0  0  0
    2.9120   -0.7180   -2.1290 H   0  0  0  0  0  0  0  0  0  0  0  0
    3.8970    0.8220    1.8260 H   0  0  0  0  0  0  0  0  0  0  0  0
    6.1900    1.7640    1.3830 H   0  0  0  0  0  0  0  0  0  0  0  0
    4.8310   -2.2320   -1.1460 H   0  0  0  0  0  0  0  0  0  0  0  0
    2.3070   -2.2970    2.5500 H   0  0  0  0  0  0  0  0  0  0  0  0
    2.9710   -0.6980    2.6860 H   0  0  0  0  0  0  0  0  0  0  0  0
    0.1260   -1.5130    1.9800 H   0  0  0  0  0  0  0  0  0  0  0  0
    0.6810   -0.0830    2.8470 H   0  0  0  0  0  0  0  0  0  0  0  0
    2.3040    1.2300    1.1710 H   0  0  0  0  0  0  0  0  0  0  0  0
   -0.2280    2.0120   -0.7850 H   0  0  0  0  0  0  0  0  0  0  0  0
   -1.4060    0.5070    2.1930 H   0  0  0  0  0  0  0  0  0  0  0  0
   -0.8630    2.0460    1.5530 H   0  0  0  0  0  0  0  0  0  0  0  0
   -2.4350    3.4760   -2.4510 H   0  0  0  0  0  0  0  0  0  0  0  0
   -3.7240    4.4890   -1.7790 H   0  0  0  0  0  0  0  0  0  0  0  0
   -2.0340    5.0220   -1.6700 H   0  0  0  0  0  0  0  0  0  0  0  0
   -5.2210    0.5690    1.5970 H   0  0  0  0  0  0  0  0  0  0  0  0
   -7.2140   -0.7160    1.1430 H   0  0  0  0  0  0  0  0  0  0  0  0
   -5.3440   -3.2420   -0.4930 H   0  0  0  0  0  0  0  0  0  0  0  0
   -5.2580   -1.7790   -1.4450 H   0  0  0  0  0  0  0  0  0  0  0  0
   -3.1190   -2.7170    0.5950 H   0  0  0  0  0  0  0  0  0  0  0  0
   -2.9750   -2.9260   -1.1400 H   0  0  0  0  0  0  0  0  0  0  0  0
   -4.0920    0.0990   -2.0160 H   0  0  0  0  0  0  0  0  0  0  0  0
   -2.4070    0.5070   -2.2240 H   0  0  0  0  0  0  0  0  0  0  0  0
   -2.9740   -1.0920   -2.6830 H   0  0  0  0  0  0  0  0  0  0  0  0
  2  1  1  1
  2  3  1  0
  2 37  1  0
  2 21  1  0
  3 40  1  0
  3 39  1  0
  3  4  1  0
  4  5  2  0
  4  6  1  0
  6  7  1  6
  6  8  1  0
  6 19  1  0
  7 41  1  0
  7 43  1  0
  7 42  1  0
  8  9  1  6
  8 10  1  0
  8 17  1  0
 10 16  2  0
 10 11  1  0
 11 12  2  0
 11 44  1  0
 12 13  1  0
 12 45  1  0
 13 15  1  0
 13 14  2  0
 15 16  1  0
 16 46  1  0
 17 18  1  0
 17 47  1  0
 17 48  1  0
 18 19  1  0
 18 49  1  0
 18 50  1  0
 19 21  1  0
 19 20  1  1
 20 51  1  0
 21 22  1  6
 21 23  1  0
 22 52  1  0
 23 24  1  0
 23 54  1  0
 23 53  1  0
 24 26  1  0
 24 30  1  0
 24 25  1  1
 26 27  1  0
 27 28  1  0
 27 29  2  0
 28 55  1  0
 28 56  1  0
 28 57  1  0
 30 37  1  0
 30 31  2  0
 31 32  1  0
 31 58  1  0
 32 35  1  0
 32 34  1  0
 32 33  1  1
 34 59  1  0
 35 61  1  0
 35 60  1  0
 35 36  1  0
 36 63  1  0
 36 37  1  0
 36 62  1  0
 37 38  1  6
 38 66  1  0
 38 65  1  0
 38 64  1  0
M  END
>  <id>  (364) 
466

>  <scaffolds>  (364) 
['C1=CCCCC1', 'C=C1CCC2CCCCC2C1', 'C1CCC(C2CCCC2)CC1', 'C1CCCCC1', 'O=C1CC2C3CCCC=C3CCC2C2CCC(c3ccc(=O)oc3)C12', 'C1=C2CCCCC2CCC1', 'O=c1ccc(C2CCC3C2CCC2C4CCCC=C4CCC23)co1', 'C1CCC2CCCCC2C1']

>  <name>  (364) 
6[beta]-acetoxy-3[beta],8[beta],14[beta]-trihydroxy-12-oxobufa-4,20,22-trienolide

>  <formula>  (364) 
C26H32O8

>  <SMILES>  (364) 
[H][C@]35CC(=O)[C@]2(C)[C@@H](c1ccc(=O)oc1)CC[C@]2(O)[C@]3(O)C[C@@H](OC(C)=O)C4=C[C@@H](O)CC[C@@]45C

>  <ChEMBL_id>  (364) 


>  <ZINC_id>  (364) 


>  <PubChem_id>  (364) 


>  <DrugBank_id>  (364) 


>  <CAS_no>  (364) 
824948-53-0

>  <references>  (364) 
[{'journal': {'name': 'Phytochemistry', 'id': 10}, 'title': 'Bufadienolides from Drimia robusta and Urginea epigea (Hyacinthaceae)', 'year': 2004, 'start_page': 3069, 'volume': 65, 'issue': 23, 'doi': '10.1016/j.phytochem.2004.08.051', 'isbn': '', 'despositor': {'code': 'rah', 'first_name': 'Rowan', 'last_name': 'Hatherley', 'id': 20}, 'refauthors_set': [{'author': {'first_name': 'Neil', 'initials': 'NA', 'last_name': 'Koorbanally', 'id': 699}, 'first_author': True, 'id': 971}, {'author': {'first_name': 'Chantal', 'initials': 'C', 'last_name': 'Koorbanally', 'id': 523}, 'first_author': None, 'id': 972}, {'author': {'first_name': 'Avinash', 'initials': 'A', 'last_name': 'Harilal', 'id': 624}, 'first_author': None, 'id': 973}, {'author': {'first_name': 'Dulcie', 'initials': 'DA', 'last_name': 'Mulholland', 'id': 525}, 'first_author': None, 'id': 974}, {'author': {'first_name': 'Neil', 'initials': 'NR', 'last_name': 'Crouch', 'id': 524}, 'first_author': None, 'id': 975}], 'id': 324}]

>  <classifications>  (364) 
[{'classification': 'Bufadienolide', 'id': 752}, {'classification': 'Steroid', 'id': 835}, {'classification': 'Steroids and steroid derivatives (Classyfire)', 'id': 942}]

>  <molecular_mass>  (364) 
472.53

$$$$
SANC00467_minRM1.pdb
     RDKit          3D

 17 17  0  0  0  0  0  0  0  0999 V2000
   -2.7630   -1.3450    0.2040 O   0  0  0  0  0  0  0  0  0  0  0  0
   -2.2850   -0.2290    0.0450 C   0  0  0  0  0  0  0  0  0  0  0  0
   -3.1250    0.8280   -0.0260 O   0  0  0  0  0  0  0  0  0  0  0  0
   -0.8620    0.1120   -0.0400 C   0  0  0  0  0  0  0  0  0  0  0  0
   -0.4190    1.4340   -0.1110 C   0  0  0  0  0  0  0  0  0  0  0  0
    0.9350    1.7220   -0.0130 C   0  0  0  0  0  0  0  0  0  0  0  0
    1.8520    0.6780    0.1290 C   0  0  0  0  0  0  0  0  0  0  0  0
    3.1410    1.0410    0.2860 O   0  0  0  0  0  0  0  0  0  0  0  0
    1.4060   -0.6550    0.0870 C   0  0  0  0  0  0  0  0  0  0  0  0
    2.3770   -1.6110    0.0750 O   0  0  0  0  0  0  0  0  0  0  0  0
    0.0510   -0.9410   -0.0000 C   0  0  0  0  0  0  0  0  0  0  0  0
   -4.0450    0.5450    0.0760 H   0  0  0  0  0  0  0  0  0  0  0  0
   -1.1330    2.2590   -0.2420 H   0  0  0  0  0  0  0  0  0  0  0  0
    1.2870    2.7580   -0.0290 H   0  0  0  0  0  0  0  0  0  0  0  0
    3.6660    0.2670    0.5300 H   0  0  0  0  0  0  0  0  0  0  0  0
    2.0600   -2.3400    0.6360 H   0  0  0  0  0  0  0  0  0  0  0  0
   -0.2940   -1.9820   -0.0290 H   0  0  0  0  0  0  0  0  0  0  0  0
  1  2  2  0
  2  4  1  0
  2  3  1  0
  3 12  1  0
  4  5  2  0
  4 11  1  0
  5 13  1  0
  5  6  1  0
  6 14  1  0
  6  7  2  0
  7  9  1  0
  7  8  1  0
  8 15  1  0
  9 11  2  0
  9 10  1  0
 10 16  1  0
 11 17  1  0
M  END
>  <id>  (365) 
467

>  <scaffolds>  (365) 
['c1ccccc1']

>  <name>  (365) 
3,4-dihydroxybenzoic acid

>  <formula>  (365) 
C7H6O4

>  <SMILES>  (365) 
O=C(O)c1ccc(O)c(O)c1

>  <ChEMBL_id>  (365) 
CHEMBL37537

>  <ZINC_id>  (365) 
ZINC00013246

>  <PubChem_id>  (365) 
 72

>  <DrugBank_id>  (365) 
DB03946

>  <CAS_no>  (365) 
99-50-3

>  <references>  (365) 
[{'journal': {'name': 'Phytochemistry', 'id': 10}, 'title': 'Bufadienolides from Drimia robusta and Urginea epigea (Hyacinthaceae)', 'year': 2004, 'start_page': 3069, 'volume': 65, 'issue': 23, 'doi': '10.1016/j.phytochem.2004.08.051', 'isbn': '', 'despositor': {'code': 'rah', 'first_name': 'Rowan', 'last_name': 'Hatherley', 'id': 20}, 'refauthors_set': [{'author': {'first_name': 'Neil', 'initials': 'NA', 'last_name': 'Koorbanally', 'id': 699}, 'first_author': True, 'id': 971}, {'author': {'first_name': 'Chantal', 'initials': 'C', 'last_name': 'Koorbanally', 'id': 523}, 'first_author': None, 'id': 972}, {'author': {'first_name': 'Avinash', 'initials': 'A', 'last_name': 'Harilal', 'id': 624}, 'first_author': None, 'id': 973}, {'author': {'first_name': 'Dulcie', 'initials': 'DA', 'last_name': 'Mulholland', 'id': 525}, 'first_author': None, 'id': 974}, {'author': {'first_name': 'Neil', 'initials': 'NR', 'last_name': 'Crouch', 'id': 524}, 'first_author': None, 'id': 975}], 'id': 324}]

>  <classifications>  (365) 
[{'classification': 'Aromatic acid', 'id': 744}, {'classification': 'Benzene and substituted derivatives (Classyfire)', 'id': 961}]

>  <molecular_mass>  (365) 
154.12

$$$$
SANC00468_minRM1.pdb
     RDKit          3D

 20 20  0  0  0  0  0  0  0  0999 V2000
    2.1100    2.4720   -0.0180 C   0  0  0  0  0  0  0  0  0  0  0  0
    2.2870    1.1130   -0.3370 O   0  0  0  0  0  0  0  0  0  0  0  0
    1.1980    0.3000   -0.1790 C   0  0  0  0  0  0  0  0  0  0  0  0
   -0.1190    0.7260   -0.1340 C   0  0  0  0  0  0  0  0  0  0  0  0
   -1.1350   -0.2270   -0.0120 C   0  0  0  0  0  0  0  0  0  0  0  0
   -2.5150    0.2670    0.0440 C   0  0  0  0  0  0  0  0  0  0  0  0
   -2.8770    1.4320    0.1500 O   0  0  0  0  0  0  0  0  0  0  0  0
   -3.4620   -0.6950   -0.0340 O   0  0  0  0  0  0  0  0  0  0  0  0
   -0.8390   -1.5850    0.0540 C   0  0  0  0  0  0  0  0  0  0  0  0
    0.4810   -2.0140    0.0030 C   0  0  0  0  0  0  0  0  0  0  0  0
    1.5050   -1.0750   -0.1100 C   0  0  0  0  0  0  0  0  0  0  0  0
    2.7550   -1.5810   -0.1570 O   0  0  0  0  0  0  0  0  0  0  0  0
    3.1360    2.8720   -0.0070 H   0  0  0  0  0  0  0  0  0  0  0  0
    1.5290    3.0100   -0.7860 H   0  0  0  0  0  0  0  0  0  0  0  0
    1.6510    2.6440    0.9700 H   0  0  0  0  0  0  0  0  0  0  0  0
   -0.3820    1.7880   -0.1960 H   0  0  0  0  0  0  0  0  0  0  0  0
   -4.3490   -0.3110   -0.0040 H   0  0  0  0  0  0  0  0  0  0  0  0
   -1.6360   -2.3330    0.1460 H   0  0  0  0  0  0  0  0  0  0  0  0
    0.7210   -3.0810    0.0520 H   0  0  0  0  0  0  0  0  0  0  0  0
    3.4070   -0.8670   -0.2070 H   0  0  0  0  0  0  0  0  0  0  0  0
  1 14  1  0
  1  2  1  0
  1 13  1  0
  1 15  1  0
  2  3  1  0
  3  4  2  0
  3 11  1  0
  4 16  1  0
  4  5  1  0
  5  6  1  0
  5  9  2  0
  6  8  1  0
  6  7  2  0
  8 17  1  0
  9 10  1  0
  9 18  1  0
 10 11  2  0
 10 19  1  0
 11 12  1  0
 12 20  1  0
M  END
>  <id>  (366) 
468

>  <scaffolds>  (366) 
['c1ccccc1']

>  <name>  (366) 
4-hydroxy-3-methoxybenzoic acid

>  <formula>  (366) 
C8H8O4

>  <SMILES>  (366) 
COc1cc(C(=O)O)ccc1O

>  <ChEMBL_id>  (366) 
CHEMBL120568

>  <ZINC_id>  (366) 
ZINC00338275

>  <PubChem_id>  (366) 
 8468

>  <DrugBank_id>  (366) 


>  <CAS_no>  (366) 
121-34-6

>  <references>  (366) 
[{'journal': {'name': 'Phytochemistry', 'id': 10}, 'title': 'Bufadienolides from Drimia robusta and Urginea epigea (Hyacinthaceae)', 'year': 2004, 'start_page': 3069, 'volume': 65, 'issue': 23, 'doi': '10.1016/j.phytochem.2004.08.051', 'isbn': '', 'despositor': {'code': 'rah', 'first_name': 'Rowan', 'last_name': 'Hatherley', 'id': 20}, 'refauthors_set': [{'author': {'first_name': 'Neil', 'initials': 'NA', 'last_name': 'Koorbanally', 'id': 699}, 'first_author': True, 'id': 971}, {'author': {'first_name': 'Chantal', 'initials': 'C', 'last_name': 'Koorbanally', 'id': 523}, 'first_author': None, 'id': 972}, {'author': {'first_name': 'Avinash', 'initials': 'A', 'last_name': 'Harilal', 'id': 624}, 'first_author': None, 'id': 973}, {'author': {'first_name': 'Dulcie', 'initials': 'DA', 'last_name': 'Mulholland', 'id': 525}, 'first_author': None, 'id': 974}, {'author': {'first_name': 'Neil', 'initials': 'NR', 'last_name': 'Crouch', 'id': 524}, 'first_author': None, 'id': 975}], 'id': 324}, {'journal': {'name': 'Biochemical Systematics and Ecology', 'id': 24}, 'title': 'A novel homoisoflavonoid from Drimia delagoensis (Urgineoideae: Hyacinthaceae)', 'year': 2005, 'start_page': 743, 'volume': 33, 'issue': None, 'doi': '10.1016/j.bse.2004.11.009', 'isbn': '', 'despositor': {'code': 'rah', 'first_name': 'Rowan', 'last_name': 'Hatherley', 'id': 20}, 'refauthors_set': [{'author': {'first_name': 'Chantal', 'initials': 'C', 'last_name': 'Koorbanally', 'id': 523}, 'first_author': True, 'id': 1031}, {'author': {'first_name': 'Dulcie', 'initials': 'DA', 'last_name': 'Mulholland', 'id': 525}, 'first_author': None, 'id': 1032}, {'author': {'first_name': 'Neil', 'initials': 'NR', 'last_name': 'Crouch', 'id': 524}, 'first_author': None, 'id': 1033}], 'id': 343}]

>  <classifications>  (366) 
[{'classification': 'Aromatic acid', 'id': 744}, {'classification': 'Benzene and substituted derivatives (Classyfire)', 'id': 961}]

>  <molecular_mass>  (366) 
168.15

$$$$
SANC00469_minRM1.pdb
     RDKit          3D

 20 20  0  0  0  0  0  0  0  0999 V2000
    3.8610   -1.1060   -0.0100 O   0  0  0  0  0  0  0  0  0  0  0  0
    3.3610    0.0100   -0.0080 C   0  0  0  0  0  0  0  0  0  0  0  0
    4.1720    1.0920   -0.0060 O   0  0  0  0  0  0  0  0  0  0  0  0
    1.9420    0.3630    0.0080 C   0  0  0  0  0  0  0  0  0  0  0  0
    1.0160   -0.6050    0.0080 C   0  0  0  0  0  0  0  0  0  0  0  0
   -0.4130   -0.3300    0.0100 C   0  0  0  0  0  0  0  0  0  0  0  0
   -0.8990    0.9790    0.0030 C   0  0  0  0  0  0  0  0  0  0  0  0
   -2.2630    1.2260   -0.0160 C   0  0  0  0  0  0  0  0  0  0  0  0
   -3.1410    0.1430   -0.0260 C   0  0  0  0  0  0  0  0  0  0  0  0
   -4.4870    0.3390    0.0440 O   0  0  0  0  0  0  0  0  0  0  0  0
   -2.6770   -1.1730   -0.0040 C   0  0  0  0  0  0  0  0  0  0  0  0
   -1.3110   -1.4010    0.0110 C   0  0  0  0  0  0  0  0  0  0  0  0
    5.1020    0.8280   -0.0120 H   0  0  0  0  0  0  0  0  0  0  0  0
    1.6960    1.4310    0.0090 H   0  0  0  0  0  0  0  0  0  0  0  0
    1.3160   -1.6630   -0.0040 H   0  0  0  0  0  0  0  0  0  0  0  0
   -0.2000    1.8230    0.0090 H   0  0  0  0  0  0  0  0  0  0  0  0
   -2.6390    2.2530   -0.0180 H   0  0  0  0  0  0  0  0  0  0  0  0
   -4.7550    0.7160   -0.8000 H   0  0  0  0  0  0  0  0  0  0  0  0
   -3.3890   -2.0030    0.0130 H   0  0  0  0  0  0  0  0  0  0  0  0
   -0.9430   -2.4320    0.0270 H   0  0  0  0  0  0  0  0  0  0  0  0
  1  2  2  0
  2  3  1  0
  2  4  1  0
  3 13  1  0
  4  5  2  0
  4 14  1  0
  5 15  1  0
  5  6  1  0
  6  7  2  0
  6 12  1  0
  7  8  1  0
  7 16  1  0
  8  9  2  0
  8 17  1  0
  9 11  1  0
  9 10  1  0
 10 18  1  0
 11 12  2  0
 11 19  1  0
 12 20  1  0
M  END
>  <id>  (367) 
469

>  <scaffolds>  (367) 
['c1ccccc1']

>  <name>  (367) 
Trans-3-(4'-hydroxyphenyl)-2-propenoic acid

>  <formula>  (367) 
C9H8O3

>  <SMILES>  (367) 
O=C(O)/C=C/c1ccc(O)cc1

>  <ChEMBL_id>  (367) 
CHEMBL66879

>  <ZINC_id>  (367) 
ZINC00039811

>  <PubChem_id>  (367) 
 637542

>  <DrugBank_id>  (367) 
DB04066

>  <CAS_no>  (367) 
501-98-4

>  <references>  (367) 
[{'journal': {'name': 'Phytochemistry', 'id': 10}, 'title': 'Bufadienolides from Drimia robusta and Urginea epigea (Hyacinthaceae)', 'year': 2004, 'start_page': 3069, 'volume': 65, 'issue': 23, 'doi': '10.1016/j.phytochem.2004.08.051', 'isbn': '', 'despositor': {'code': 'rah', 'first_name': 'Rowan', 'last_name': 'Hatherley', 'id': 20}, 'refauthors_set': [{'author': {'first_name': 'Neil', 'initials': 'NA', 'last_name': 'Koorbanally', 'id': 699}, 'first_author': True, 'id': 971}, {'author': {'first_name': 'Chantal', 'initials': 'C', 'last_name': 'Koorbanally', 'id': 523}, 'first_author': None, 'id': 972}, {'author': {'first_name': 'Avinash', 'initials': 'A', 'last_name': 'Harilal', 'id': 624}, 'first_author': None, 'id': 973}, {'author': {'first_name': 'Dulcie', 'initials': 'DA', 'last_name': 'Mulholland', 'id': 525}, 'first_author': None, 'id': 974}, {'author': {'first_name': 'Neil', 'initials': 'NR', 'last_name': 'Crouch', 'id': 524}, 'first_author': None, 'id': 975}], 'id': 324}]

>  <classifications>  (367) 
[{'classification': 'Aromatic acid', 'id': 744}, {'classification': 'Cinnamic acids and derivatives (Classyfire)', 'id': 975}]

>  <molecular_mass>  (367) 
164.16

$$$$
SANC00470_minRM1.pdb
     RDKit          3D

 33 35  0  0  0  0  0  0  0  0999 V2000
    5.6020   -0.5210    0.0040 C   0  0  0  0  0  0  0  0  0  0  0  0
    4.3740   -1.2050   -0.0380 O   0  0  0  0  0  0  0  0  0  0  0  0
    3.2420   -0.4600   -0.0240 C   0  0  0  0  0  0  0  0  0  0  0  0
    3.1870    0.9260   -0.1020 C   0  0  0  0  0  0  0  0  0  0  0  0
    1.9270    1.5450   -0.1220 C   0  0  0  0  0  0  0  0  0  0  0  0
    1.9440    2.8810   -0.1610 O   0  0  0  0  0  0  0  0  0  0  0  0
    0.7400    0.7940   -0.0900 C   0  0  0  0  0  0  0  0  0  0  0  0
   -0.5580    1.4440   -0.0950 C   0  0  0  0  0  0  0  0  0  0  0  0
   -0.6080    2.6790   -0.1180 O   0  0  0  0  0  0  0  0  0  0  0  0
   -1.7110    0.5580   -0.0680 C   0  0  0  0  0  0  0  0  0  0  0  0
   -3.0380    1.0160   -0.0530 C   0  0  0  0  0  0  0  0  0  0  0  0
   -3.3540    2.4670   -0.0120 C   0  0  0  0  0  0  0  0  0  0  0  0
   -4.0920    0.1120   -0.0720 C   0  0  0  0  0  0  0  0  0  0  0  0
   -3.8250   -1.2630   -0.0850 C   0  0  0  0  0  0  0  0  0  0  0  0
   -4.8040   -2.1880   -0.1140 O   0  0  0  0  0  0  0  0  0  0  0  0
   -2.5250   -1.7610   -0.0520 C   0  0  0  0  0  0  0  0  0  0  0  0
   -1.4910   -0.8260   -0.0460 C   0  0  0  0  0  0  0  0  0  0  0  0
   -0.2560   -1.4100   -0.0150 O   0  0  0  0  0  0  0  0  0  0  0  0
    0.8340   -0.5970   -0.0220 C   0  0  0  0  0  0  0  0  0  0  0  0
    2.0680   -1.2430    0.0280 C   0  0  0  0  0  0  0  0  0  0  0  0
    2.1190   -2.5890    0.1800 O   0  0  0  0  0  0  0  0  0  0  0  0
    5.7150    0.1130    0.9000 H   0  0  0  0  0  0  0  0  0  0  0  0
    6.3430   -1.3310    0.0460 H   0  0  0  0  0  0  0  0  0  0  0  0
    5.7930    0.0820   -0.8970 H   0  0  0  0  0  0  0  0  0  0  0  0
    4.0810    1.5530   -0.1420 H   0  0  0  0  0  0  0  0  0  0  0  0
    1.0250    3.2460   -0.1390 H   0  0  0  0  0  0  0  0  0  0  0  0
   -2.9930    2.9920   -0.9100 H   0  0  0  0  0  0  0  0  0  0  0  0
   -4.4260    2.6800    0.0650 H   0  0  0  0  0  0  0  0  0  0  0  0
   -2.8870    2.9620    0.8550 H   0  0  0  0  0  0  0  0  0  0  0  0
   -5.1240    0.4740   -0.0750 H   0  0  0  0  0  0  0  0  0  0  0  0
   -5.6580   -1.7610   -0.2800 H   0  0  0  0  0  0  0  0  0  0  0  0
   -2.3310   -2.8380   -0.0340 H   0  0  0  0  0  0  0  0  0  0  0  0
    2.4550   -2.9240   -0.6650 H   0  0  0  0  0  0  0  0  0  0  0  0
  1 24  1  0
  1  2  1  0
  1 23  1  0
  1 22  1  0
  2  3  1  0
  3  4  2  0
  3 20  1  0
  4 25  1  0
  4  5  1  0
  5  6  1  0
  5  7  2  0
  6 26  1  0
  7  8  1  0
  7 19  1  0
  8  9  2  0
  8 10  1  0
 10 11  2  0
 10 17  1  0
 11 13  1  0
 11 12  1  0
 12 27  1  0
 12 28  1  0
 12 29  1  0
 13 14  2  0
 13 30  1  0
 14 15  1  0
 14 16  1  0
 15 31  1  0
 16 17  2  0
 16 32  1  0
 17 18  1  0
 18 19  1  0
 19 20  2  0
 20 21  1  0
 21 33  1  0
M  END
>  <id>  (368) 
470

>  <scaffolds>  (368) 
['c1ccccc1', 'O=c1c2ccccc2oc2ccccc12', 'O=c1ccoc2ccccc12']

>  <name>  (368) 
Drimiopsin E

>  <formula>  (368) 
C15H12O6

>  <SMILES>  (368) 
COc3cc(O)c2c(=O)c1c(C)cc(O)cc1oc2c3O

>  <ChEMBL_id>  (368) 


>  <ZINC_id>  (368) 


>  <PubChem_id>  (368) 


>  <DrugBank_id>  (368) 


>  <CAS_no>  (368) 
771578-79-1

>  <references>  (368) 
[{'journal': {'name': 'Journal of Natural Products', 'id': 5}, 'title': 'Xanthones from Drimiopsis maculata', 'year': 2004, 'start_page': 1726, 'volume': 67, 'issue': None, 'doi': '10.1021/np040076z', 'isbn': '', 'despositor': {'code': 'rah', 'first_name': 'Rowan', 'last_name': 'Hatherley', 'id': 20}, 'refauthors_set': [{'author': {'first_name': 'Dulcie', 'initials': 'DA', 'last_name': 'Mulholland', 'id': 525}, 'first_author': True, 'id': 976}, {'author': {'first_name': 'Chantal', 'initials': 'C', 'last_name': 'Koorbanally', 'id': 523}, 'first_author': None, 'id': 977}, {'author': {'first_name': 'Neil', 'initials': 'NR', 'last_name': 'Crouch', 'id': 524}, 'first_author': None, 'id': 978}, {'author': {'first_name': 'Peter', 'initials': 'P', 'last_name': 'Sandor', 'id': 700}, 'first_author': None, 'id': 979}], 'id': 325}]

>  <classifications>  (368) 
[{'classification': 'Xanthone', 'id': 846}, {'classification': 'Benzopyrans (Classyfire)', 'id': 966}]

>  <molecular_mass>  (368) 
288.25

$$$$
SANC00471_minRM1.pdb
     RDKit          3D

 37 39  0  0  0  0  0  0  0  0999 V2000
   -4.7040    1.5200   -1.0600 C   0  0  0  0  0  0  0  0  0  0  0  0
   -4.2050    1.0460    0.1650 O   0  0  0  0  0  0  0  0  0  0  0  0
   -2.9740    0.4650    0.0440 C   0  0  0  0  0  0  0  0  0  0  0  0
   -2.8870   -0.9290    0.1310 C   0  0  0  0  0  0  0  0  0  0  0  0
   -3.9450   -1.7620    0.1860 O   0  0  0  0  0  0  0  0  0  0  0  0
   -1.6290   -1.5540    0.1500 C   0  0  0  0  0  0  0  0  0  0  0  0
   -1.5100   -2.8990    0.3570 O   0  0  0  0  0  0  0  0  0  0  0  0
   -1.6180   -3.6330   -0.8470 C   0  0  0  0  0  0  0  0  0  0  0  0
   -0.4810   -0.7650    0.0910 C   0  0  0  0  0  0  0  0  0  0  0  0
    0.7000   -1.4390    0.0930 O   0  0  0  0  0  0  0  0  0  0  0  0
    1.8590   -0.7180    0.0220 C   0  0  0  0  0  0  0  0  0  0  0  0
    2.9950   -1.5240    0.0010 C   0  0  0  0  0  0  0  0  0  0  0  0
    4.2260   -0.8810   -0.1040 C   0  0  0  0  0  0  0  0  0  0  0  0
    5.3010   -1.6990   -0.1380 O   0  0  0  0  0  0  0  0  0  0  0  0
    4.3270    0.5140   -0.1500 C   0  0  0  0  0  0  0  0  0  0  0  0
    3.1800    1.2930   -0.0850 C   0  0  0  0  0  0  0  0  0  0  0  0
    3.3280    2.7710   -0.1340 C   0  0  0  0  0  0  0  0  0  0  0  0
    1.9190    0.6820   -0.0120 C   0  0  0  0  0  0  0  0  0  0  0  0
    0.6670    1.4240   -0.0130 C   0  0  0  0  0  0  0  0  0  0  0  0
    0.5640    2.6550   -0.0740 O   0  0  0  0  0  0  0  0  0  0  0  0
   -0.5470    0.6250    0.0260 C   0  0  0  0  0  0  0  0  0  0  0  0
   -1.8100    1.2440    0.0050 C   0  0  0  0  0  0  0  0  0  0  0  0
   -1.9780    2.5680   -0.1120 O   0  0  0  0  0  0  0  0  0  0  0  0
   -5.6540    2.0090   -0.7910 H   0  0  0  0  0  0  0  0  0  0  0  0
   -4.0530    2.2880   -1.5220 H   0  0  0  0  0  0  0  0  0  0  0  0
   -4.8900    0.7180   -1.7870 H   0  0  0  0  0  0  0  0  0  0  0  0
   -4.7460   -1.2490    0.2480 H   0  0  0  0  0  0  0  0  0  0  0  0
   -1.5200   -4.6820   -0.5310 H   0  0  0  0  0  0  0  0  0  0  0  0
   -2.5840   -3.4870   -1.3510 H   0  0  0  0  0  0  0  0  0  0  0  0
   -0.8070   -3.3950   -1.5520 H   0  0  0  0  0  0  0  0  0  0  0  0
    2.9250   -2.6130    0.0600 H   0  0  0  0  0  0  0  0  0  0  0  0
    6.0490   -1.2150   -0.4760 H   0  0  0  0  0  0  0  0  0  0  0  0
    5.3080    0.9880   -0.2430 H   0  0  0  0  0  0  0  0  0  0  0  0
    2.8630    3.1870   -1.0400 H   0  0  0  0  0  0  0  0  0  0  0  0
    2.8390    3.2500    0.7220 H   0  0  0  0  0  0  0  0  0  0  0  0
    4.3700    3.1140   -0.1240 H   0  0  0  0  0  0  0  0  0  0  0  0
   -1.0940    3.0330   -0.0000 H   0  0  0  0  0  0  0  0  0  0  0  0
  1 26  1  0
  1 25  1  0
  1 24  1  0
  1  2  1  0
  2  3  1  0
  3 22  2  0
  3  4  1  0
  4  6  2  0
  4  5  1  0
  5 27  1  0
  6  9  1  0
  6  7  1  0
  7  8  1  0
  8 30  1  0
  8 29  1  0
  8 28  1  0
  9 21  2  0
  9 10  1  0
 10 11  1  0
 11 18  2  0
 11 12  1  0
 12 13  2  0
 12 31  1  0
 13 15  1  0
 13 14  1  0
 14 32  1  0
 15 33  1  0
 15 16  2  0
 16 17  1  0
 16 18  1  0
 17 34  1  0
 17 36  1  0
 17 35  1  0
 18 19  1  0
 19 20  2  0
 19 21  1  0
 21 22  1  0
 22 23  1  0
 23 37  1  0
M  END
>  <id>  (369) 
471

>  <scaffolds>  (369) 
['c1ccccc1', 'O=c1c2ccccc2oc2ccccc12', 'O=c1ccoc2ccccc12']

>  <name>  (369) 
Drimiopsin A

>  <formula>  (369) 
C16H14O7

>  <SMILES>  (369) 
COc3c(O)c(OC)c2oc1cc(O)cc(C)c1c(=O)c2c3O

>  <ChEMBL_id>  (369) 


>  <ZINC_id>  (369) 


>  <PubChem_id>  (369) 


>  <DrugBank_id>  (369) 


>  <CAS_no>  (369) 
773850-88-7

>  <references>  (369) 
[{'journal': {'name': 'Journal of Natural Products', 'id': 5}, 'title': 'Xanthones from Drimiopsis maculata', 'year': 2004, 'start_page': 1726, 'volume': 67, 'issue': None, 'doi': '10.1021/np040076z', 'isbn': '', 'despositor': {'code': 'rah', 'first_name': 'Rowan', 'last_name': 'Hatherley', 'id': 20}, 'refauthors_set': [{'author': {'first_name': 'Dulcie', 'initials': 'DA', 'last_name': 'Mulholland', 'id': 525}, 'first_author': True, 'id': 976}, {'author': {'first_name': 'Chantal', 'initials': 'C', 'last_name': 'Koorbanally', 'id': 523}, 'first_author': None, 'id': 977}, {'author': {'first_name': 'Neil', 'initials': 'NR', 'last_name': 'Crouch', 'id': 524}, 'first_author': None, 'id': 978}, {'author': {'first_name': 'Peter', 'initials': 'P', 'last_name': 'Sandor', 'id': 700}, 'first_author': None, 'id': 979}], 'id': 325}]

>  <classifications>  (369) 
[{'classification': 'Xanthone', 'id': 846}, {'classification': 'Benzopyrans (Classyfire)', 'id': 966}]

>  <molecular_mass>  (369) 
318.28

$$$$
SANC00472_minRM1.pdb
     RDKit          3D

 40 42  0  0  0  0  0  0  0  0999 V2000
    4.4450   -1.8660    1.0670 C   0  0  0  0  0  0  0  0  0  0  0  0
    3.9140   -1.4200   -0.1610 O   0  0  0  0  0  0  0  0  0  0  0  0
    2.7350   -0.7480   -0.0050 C   0  0  0  0  0  0  0  0  0  0  0  0
    1.5210   -1.4540    0.0480 C   0  0  0  0  0  0  0  0  0  0  0  0
    1.6040   -2.7860    0.1210 O   0  0  0  0  0  0  0  0  0  0  0  0
    0.3010   -0.7550    0.0370 C   0  0  0  0  0  0  0  0  0  0  0  0
   -0.9660   -1.4740    0.0360 C   0  0  0  0  0  0  0  0  0  0  0  0
   -0.9510   -2.7040    0.0760 O   0  0  0  0  0  0  0  0  0  0  0  0
   -2.1630   -0.6460   -0.0010 C   0  0  0  0  0  0  0  0  0  0  0  0
   -3.4660   -1.1730    0.0050 C   0  0  0  0  0  0  0  0  0  0  0  0
   -3.7040   -2.6380    0.0040 C   0  0  0  0  0  0  0  0  0  0  0  0
   -4.5620   -0.3230    0.0470 C   0  0  0  0  0  0  0  0  0  0  0  0
   -4.3690    1.0630    0.0530 C   0  0  0  0  0  0  0  0  0  0  0  0
   -5.3840    1.9560    0.0740 O   0  0  0  0  0  0  0  0  0  0  0  0
   -3.0950    1.6280    0.0290 C   0  0  0  0  0  0  0  0  0  0  0  0
   -2.0140    0.7480    0.0090 C   0  0  0  0  0  0  0  0  0  0  0  0
   -0.8100    1.3950    0.0410 O   0  0  0  0  0  0  0  0  0  0  0  0
    0.3200    0.6390    0.0060 C   0  0  0  0  0  0  0  0  0  0  0  0
    1.5210    1.3530   -0.0420 C   0  0  0  0  0  0  0  0  0  0  0  0
    1.5190    2.7080   -0.1820 O   0  0  0  0  0  0  0  0  0  0  0  0
    1.6070    3.3720    1.0600 C   0  0  0  0  0  0  0  0  0  0  0  0
    2.7270    0.6440   -0.0310 C   0  0  0  0  0  0  0  0  0  0  0  0
    3.9040    1.3330    0.0370 O   0  0  0  0  0  0  0  0  0  0  0  0
    4.4790    1.5320   -1.2390 C   0  0  0  0  0  0  0  0  0  0  0  0
    4.6900   -1.0340    1.7510 H   0  0  0  0  0  0  0  0  0  0  0  0
    3.7730   -2.5580    1.6030 H   0  0  0  0  0  0  0  0  0  0  0  0
    5.3620   -2.4010    0.7960 H   0  0  0  0  0  0  0  0  0  0  0  0
    0.7160   -3.1900    0.0230 H   0  0  0  0  0  0  0  0  0  0  0  0
   -3.3390   -3.1010    0.9260 H   0  0  0  0  0  0  0  0  0  0  0  0
   -4.7680   -2.9140   -0.0760 H   0  0  0  0  0  0  0  0  0  0  0  0
   -3.2000   -3.1330   -0.8380 H   0  0  0  0  0  0  0  0  0  0  0  0
   -5.5760   -0.7320    0.0790 H   0  0  0  0  0  0  0  0  0  0  0  0
   -6.1810    1.4910    0.3360 H   0  0  0  0  0  0  0  0  0  0  0  0
   -2.9510    2.7130    0.0340 H   0  0  0  0  0  0  0  0  0  0  0  0
    2.5350    3.1430    1.6080 H   0  0  0  0  0  0  0  0  0  0  0  0
    1.6040    4.4390    0.7880 H   0  0  0  0  0  0  0  0  0  0  0  0
    0.7450    3.1680    1.7160 H   0  0  0  0  0  0  0  0  0  0  0  0
    4.7050    0.5870   -1.7580 H   0  0  0  0  0  0  0  0  0  0  0  0
    3.8400    2.1500   -1.8930 H   0  0  0  0  0  0  0  0  0  0  0  0
    5.4170    2.0650   -1.0310 H   0  0  0  0  0  0  0  0  0  0  0  0
  1  2  1  0
  1 27  1  0
  1 26  1  0
  1 25  1  0
  2  3  1  0
  3 22  2  0
  3  4  1  0
  4  6  2  0
  4  5  1  0
  5 28  1  0
  6 18  1  0
  6  7  1  0
  7  9  1  0
  7  8  2  0
  9 10  2  0
  9 16  1  0
 10 11  1  0
 10 12  1  0
 11 31  1  0
 11 30  1  0
 11 29  1  0
 12 13  2  0
 12 32  1  0
 13 15  1  0
 13 14  1  0
 14 33  1  0
 15 16  2  0
 15 34  1  0
 16 17  1  0
 17 18  1  0
 18 19  2  0
 19 20  1  0
 19 22  1  0
 20 21  1  0
 21 36  1  0
 21 35  1  0
 21 37  1  0
 22 23  1  0
 23 24  1  0
 24 39  1  0
 24 38  1  0
 24 40  1  0
M  END
>  <id>  (370) 
472

>  <scaffolds>  (370) 
['c1ccccc1', 'O=c1c2ccccc2oc2ccccc12', 'O=c1ccoc2ccccc12']

>  <name>  (370) 
Drimiopsin B

>  <formula>  (370) 
C17H16O7

>  <SMILES>  (370) 
COc3c(O)c2c(=O)c1c(C)cc(O)cc1oc2c(OC)c3OC

>  <ChEMBL_id>  (370) 


>  <ZINC_id>  (370) 


>  <PubChem_id>  (370) 


>  <DrugBank_id>  (370) 


>  <CAS_no>  (370) 
773850-89-8

>  <references>  (370) 
[{'journal': {'name': 'Journal of Natural Products', 'id': 5}, 'title': 'Xanthones from Drimiopsis maculata', 'year': 2004, 'start_page': 1726, 'volume': 67, 'issue': None, 'doi': '10.1021/np040076z', 'isbn': '', 'despositor': {'code': 'rah', 'first_name': 'Rowan', 'last_name': 'Hatherley', 'id': 20}, 'refauthors_set': [{'author': {'first_name': 'Dulcie', 'initials': 'DA', 'last_name': 'Mulholland', 'id': 525}, 'first_author': True, 'id': 976}, {'author': {'first_name': 'Chantal', 'initials': 'C', 'last_name': 'Koorbanally', 'id': 523}, 'first_author': None, 'id': 977}, {'author': {'first_name': 'Neil', 'initials': 'NR', 'last_name': 'Crouch', 'id': 524}, 'first_author': None, 'id': 978}, {'author': {'first_name': 'Peter', 'initials': 'P', 'last_name': 'Sandor', 'id': 700}, 'first_author': None, 'id': 979}], 'id': 325}]

>  <classifications>  (370) 
[{'classification': 'Xanthone', 'id': 846}, {'classification': 'Benzopyrans (Classyfire)', 'id': 966}]

>  <molecular_mass>  (370) 
332.3

$$$$
SANC00473_minRM1.pdb
     RDKit          3D

 33 35  0  0  0  0  0  0  0  0999 V2000
   -4.9450    0.8050   -1.0710 C   0  0  0  0  0  0  0  0  0  0  0  0
   -4.4140    0.3120    0.1410 O   0  0  0  0  0  0  0  0  0  0  0  0
   -3.1330   -0.1480    0.0100 C   0  0  0  0  0  0  0  0  0  0  0  0
   -2.9130   -1.5310    0.0520 C   0  0  0  0  0  0  0  0  0  0  0  0
   -3.9020   -2.4440    0.0910 O   0  0  0  0  0  0  0  0  0  0  0  0
   -1.6150   -2.0600    0.0690 C   0  0  0  0  0  0  0  0  0  0  0  0
   -0.5590   -1.1590    0.0320 C   0  0  0  0  0  0  0  0  0  0  0  0
    0.6790   -1.7280    0.0370 O   0  0  0  0  0  0  0  0  0  0  0  0
    1.7730   -0.9130   -0.0120 C   0  0  0  0  0  0  0  0  0  0  0  0
    2.9720   -1.6210   -0.0780 C   0  0  0  0  0  0  0  0  0  0  0  0
    4.1440   -0.8740   -0.1570 C   0  0  0  0  0  0  0  0  0  0  0  0
    5.2870   -1.5900   -0.2350 O   0  0  0  0  0  0  0  0  0  0  0  0
    4.1320    0.5250   -0.1260 C   0  0  0  0  0  0  0  0  0  0  0  0
    2.9230    1.2020   -0.0420 C   0  0  0  0  0  0  0  0  0  0  0  0
    2.9430    2.6850    0.0170 C   0  0  0  0  0  0  0  0  0  0  0  0
    1.7130    0.4890   -0.0160 C   0  0  0  0  0  0  0  0  0  0  0  0
    0.4040    1.1230   -0.0060 C   0  0  0  0  0  0  0  0  0  0  0  0
    0.2090    2.3430   -0.0180 O   0  0  0  0  0  0  0  0  0  0  0  0
   -0.7350    0.2230    0.0070 C   0  0  0  0  0  0  0  0  0  0  0  0
   -2.0480    0.7360   -0.0100 C   0  0  0  0  0  0  0  0  0  0  0  0
   -2.3210    2.0370   -0.0700 O   0  0  0  0  0  0  0  0  0  0  0  0
   -5.9380    1.1850   -0.7900 H   0  0  0  0  0  0  0  0  0  0  0  0
   -4.3580    1.6270   -1.5120 H   0  0  0  0  0  0  0  0  0  0  0  0
   -5.0570    0.0120   -1.8290 H   0  0  0  0  0  0  0  0  0  0  0  0
   -4.7580   -1.9980    0.1190 H   0  0  0  0  0  0  0  0  0  0  0  0
   -1.4480   -3.1410    0.0940 H   0  0  0  0  0  0  0  0  0  0  0  0
    2.9940   -2.7150   -0.0810 H   0  0  0  0  0  0  0  0  0  0  0  0
    5.9890   -1.0340   -0.5760 H   0  0  0  0  0  0  0  0  0  0  0  0
    5.0710    1.0830   -0.1820 H   0  0  0  0  0  0  0  0  0  0  0  0
    2.4700    3.1360   -0.8710 H   0  0  0  0  0  0  0  0  0  0  0  0
    2.3980    3.0640    0.9000 H   0  0  0  0  0  0  0  0  0  0  0  0
    3.9570    3.1090    0.0840 H   0  0  0  0  0  0  0  0  0  0  0  0
   -1.4860    2.5680    0.0150 H   0  0  0  0  0  0  0  0  0  0  0  0
  1 24  1  0
  1 23  1  0
  1 22  1  0
  1  2  1  0
  2  3  1  0
  3 20  2  0
  3  4  1  0
  4  6  2  0
  4  5  1  0
  5 25  1  0
  6  7  1  0
  6 26  1  0
  7 19  2  0
  7  8  1  0
  8  9  1  0
  9 10  2  0
  9 16  1  0
 10 11  1  0
 10 27  1  0
 11 12  1  0
 11 13  2  0
 12 28  1  0
 13 29  1  0
 13 14  1  0
 14 16  2  0
 14 15  1  0
 15 30  1  0
 15 32  1  0
 15 31  1  0
 16 17  1  0
 17 18  2  0
 17 19  1  0
 19 20  1  0
 20 21  1  0
 21 33  1  0
M  END
>  <id>  (371) 
473

>  <scaffolds>  (371) 
['c1ccccc1', 'O=c1c2ccccc2oc2ccccc12', 'O=c1ccoc2ccccc12']

>  <name>  (371) 
Drimiopsin C

>  <formula>  (371) 
C15H12O6

>  <SMILES>  (371) 
COc3c(O)cc2oc1cc(O)cc(C)c1c(=O)c2c3O

>  <ChEMBL_id>  (371) 


>  <ZINC_id>  (371) 


>  <PubChem_id>  (371) 


>  <DrugBank_id>  (371) 


>  <CAS_no>  (371) 
773850-90-1

>  <references>  (371) 
[{'journal': {'name': 'Journal of Natural Products', 'id': 5}, 'title': 'Xanthones from Drimiopsis maculata', 'year': 2004, 'start_page': 1726, 'volume': 67, 'issue': None, 'doi': '10.1021/np040076z', 'isbn': '', 'despositor': {'code': 'rah', 'first_name': 'Rowan', 'last_name': 'Hatherley', 'id': 20}, 'refauthors_set': [{'author': {'first_name': 'Dulcie', 'initials': 'DA', 'last_name': 'Mulholland', 'id': 525}, 'first_author': True, 'id': 976}, {'author': {'first_name': 'Chantal', 'initials': 'C', 'last_name': 'Koorbanally', 'id': 523}, 'first_author': None, 'id': 977}, {'author': {'first_name': 'Neil', 'initials': 'NR', 'last_name': 'Crouch', 'id': 524}, 'first_author': None, 'id': 978}, {'author': {'first_name': 'Peter', 'initials': 'P', 'last_name': 'Sandor', 'id': 700}, 'first_author': None, 'id': 979}], 'id': 325}]

>  <classifications>  (371) 
[{'classification': 'Xanthone', 'id': 846}, {'classification': 'Benzopyrans (Classyfire)', 'id': 966}]

>  <molecular_mass>  (371) 
288.25

$$$$
SANC00474_minRM1.pdb
     RDKit          3D

 37 39  0  0  0  0  0  0  0  0999 V2000
    2.0890    3.0720    0.8850 C   0  0  0  0  0  0  0  0  0  0  0  0
    2.2750    2.3350   -0.3020 O   0  0  0  0  0  0  0  0  0  0  0  0
    2.3250    0.9850   -0.0870 C   0  0  0  0  0  0  0  0  0  0  0  0
    3.5600    0.3300   -0.1450 C   0  0  0  0  0  0  0  0  0  0  0  0
    4.7340    0.9710   -0.3340 O   0  0  0  0  0  0  0  0  0  0  0  0
    3.6270   -1.0640   -0.0530 C   0  0  0  0  0  0  0  0  0  0  0  0
    2.4650   -1.8060    0.0980 C   0  0  0  0  0  0  0  0  0  0  0  0
    2.5800   -3.2860    0.1790 C   0  0  0  0  0  0  0  0  0  0  0  0
    1.2130   -1.1710    0.1550 C   0  0  0  0  0  0  0  0  0  0  0  0
   -0.0440   -1.8920    0.2930 C   0  0  0  0  0  0  0  0  0  0  0  0
   -0.1510   -3.1050    0.4980 O   0  0  0  0  0  0  0  0  0  0  0  0
   -1.2470   -1.0910    0.1610 C   0  0  0  0  0  0  0  0  0  0  0  0
   -2.5180   -1.7040    0.1410 C   0  0  0  0  0  0  0  0  0  0  0  0
   -2.6750   -3.0230    0.2520 O   0  0  0  0  0  0  0  0  0  0  0  0
   -3.6870   -0.9480    0.0020 C   0  0  0  0  0  0  0  0  0  0  0  0
   -3.5690    0.4360   -0.1130 C   0  0  0  0  0  0  0  0  0  0  0  0
   -4.7230    1.1040   -0.2820 O   0  0  0  0  0  0  0  0  0  0  0  0
   -2.3130    1.0730   -0.0840 C   0  0  0  0  0  0  0  0  0  0  0  0
   -2.2430    2.4180   -0.3220 O   0  0  0  0  0  0  0  0  0  0  0  0
   -2.0510    3.1650    0.8580 C   0  0  0  0  0  0  0  0  0  0  0  0
   -1.1670    0.2940    0.0370 C   0  0  0  0  0  0  0  0  0  0  0  0
    0.0180    0.9650    0.0380 O   0  0  0  0  0  0  0  0  0  0  0  0
    1.1610    0.2220    0.0370 C   0  0  0  0  0  0  0  0  0  0  0  0
    1.1810    2.7920    1.4410 H   0  0  0  0  0  0  0  0  0  0  0  0
    2.9490    2.9870    1.5680 H   0  0  0  0  0  0  0  0  0  0  0  0
    1.9960    4.1130    0.5430 H   0  0  0  0  0  0  0  0  0  0  0  0
    4.6320    1.9270   -0.2450 H   0  0  0  0  0  0  0  0  0  0  0  0
    4.6070   -1.5510   -0.1200 H   0  0  0  0  0  0  0  0  0  0  0  0
    2.2180   -3.6670    1.1420 H   0  0  0  0  0  0  0  0  0  0  0  0
    1.9960   -3.7920   -0.6010 H   0  0  0  0  0  0  0  0  0  0  0  0
    3.6020   -3.6500    0.0650 H   0  0  0  0  0  0  0  0  0  0  0  0
   -1.8060   -3.4800    0.4130 H   0  0  0  0  0  0  0  0  0  0  0  0
   -4.6650   -1.4350   -0.0110 H   0  0  0  0  0  0  0  0  0  0  0  0
   -4.5840    2.0550   -0.2340 H   0  0  0  0  0  0  0  0  0  0  0  0
   -2.9030    3.0880    1.5530 H   0  0  0  0  0  0  0  0  0  0  0  0
   -1.1390    2.8880    1.4090 H   0  0  0  0  0  0  0  0  0  0  0  0
   -1.9620    4.2040    0.5130 H   0  0  0  0  0  0  0  0  0  0  0  0
  1  2  1  0
  1 26  1  0
  1 24  1  0
  1 25  1  0
  2  3  1  0
  3  4  2  0
  3 23  1  0
  4  5  1  0
  4  6  1  0
  5 27  1  0
  6 28  1  0
  6  7  2  0
  7  9  1  0
  7  8  1  0
  8 30  1  0
  8 31  1  0
  8 29  1  0
  9 23  2  0
  9 10  1  0
 10 12  1  0
 10 11  2  0
 12 21  2  0
 12 13  1  0
 13 15  2  0
 13 14  1  0
 14 32  1  0
 15 16  1  0
 15 33  1  0
 16 17  1  0
 16 18  2  0
 17 34  1  0
 18 19  1  0
 18 21  1  0
 19 20  1  0
 20 37  1  0
 20 36  1  0
 20 35  1  0
 21 22  1  0
 22 23  1  0
M  END
>  <id>  (372) 
474

>  <scaffolds>  (372) 
['c1ccccc1', 'O=c1c2ccccc2oc2ccccc12', 'O=c1ccoc2ccccc12']

>  <name>  (372) 
Drimiopsin D

>  <formula>  (372) 
C16H14O7

>  <SMILES>  (372) 
COc2c(O)cc(C)c3c(=O)c1c(O)cc(O)c(OC)c1oc23

>  <ChEMBL_id>  (372) 


>  <ZINC_id>  (372) 


>  <PubChem_id>  (372) 


>  <DrugBank_id>  (372) 


>  <CAS_no>  (372) 
773850-91-2

>  <references>  (372) 
[{'journal': {'name': 'Journal of Natural Products', 'id': 5}, 'title': 'Xanthones from Drimiopsis maculata', 'year': 2004, 'start_page': 1726, 'volume': 67, 'issue': None, 'doi': '10.1021/np040076z', 'isbn': '', 'despositor': {'code': 'rah', 'first_name': 'Rowan', 'last_name': 'Hatherley', 'id': 20}, 'refauthors_set': [{'author': {'first_name': 'Dulcie', 'initials': 'DA', 'last_name': 'Mulholland', 'id': 525}, 'first_author': True, 'id': 976}, {'author': {'first_name': 'Chantal', 'initials': 'C', 'last_name': 'Koorbanally', 'id': 523}, 'first_author': None, 'id': 977}, {'author': {'first_name': 'Neil', 'initials': 'NR', 'last_name': 'Crouch', 'id': 524}, 'first_author': None, 'id': 978}, {'author': {'first_name': 'Peter', 'initials': 'P', 'last_name': 'Sandor', 'id': 700}, 'first_author': None, 'id': 979}], 'id': 325}]

>  <classifications>  (372) 
[{'classification': 'Xanthone', 'id': 846}, {'classification': 'Benzopyrans (Classyfire)', 'id': 966}]

>  <molecular_mass>  (372) 
318.28

$$$$
SANC00475_minRM1.pdb
     RDKit          3D

 36 38  0  0  0  0  0  0  0  0999 V2000
   -5.4790    2.1750   -0.1410 C   0  0  0  0  0  0  0  0  0  0  0  0
   -5.2270    0.7920   -0.0710 O   0  0  0  0  0  0  0  0  0  0  0  0
   -3.9330    0.3840   -0.0400 C   0  0  0  0  0  0  0  0  0  0  0  0
   -3.7890   -1.0140   -0.0190 C   0  0  0  0  0  0  0  0  0  0  0  0
   -2.5260   -1.5780   -0.0010 C   0  0  0  0  0  0  0  0  0  0  0  0
   -2.4070   -3.0580    0.0300 C   0  0  0  0  0  0  0  0  0  0  0  0
   -1.3830   -0.7560   -0.0090 C   0  0  0  0  0  0  0  0  0  0  0  0
   -0.0250   -1.2740   -0.0340 C   0  0  0  0  0  0  0  0  0  0  0  0
    0.2840   -2.4700   -0.0740 O   0  0  0  0  0  0  0  0  0  0  0  0
    1.0290   -0.2760   -0.0120 C   0  0  0  0  0  0  0  0  0  0  0  0
    2.3820   -0.6670   -0.0240 C   0  0  0  0  0  0  0  0  0  0  0  0
    2.7670   -1.9420   -0.0900 O   0  0  0  0  0  0  0  0  0  0  0  0
    3.3870    0.3080    0.0140 C   0  0  0  0  0  0  0  0  0  0  0  0
    4.7050   -0.0380    0.1310 O   0  0  0  0  0  0  0  0  0  0  0  0
    5.2640   -0.4730   -1.0900 C   0  0  0  0  0  0  0  0  0  0  0  0
    3.0400    1.6650    0.0790 C   0  0  0  0  0  0  0  0  0  0  0  0
    3.9460    2.6560    0.1530 O   0  0  0  0  0  0  0  0  0  0  0  0
    1.7010    2.0770    0.0840 C   0  0  0  0  0  0  0  0  0  0  0  0
    0.7300    1.0850    0.0340 C   0  0  0  0  0  0  0  0  0  0  0  0
   -0.5540    1.5400    0.0230 O   0  0  0  0  0  0  0  0  0  0  0  0
   -1.5710    0.6280   -0.0040 C   0  0  0  0  0  0  0  0  0  0  0  0
   -2.8320    1.2310   -0.0230 C   0  0  0  0  0  0  0  0  0  0  0  0
   -5.1350    2.7220    0.7510 H   0  0  0  0  0  0  0  0  0  0  0  0
   -5.0630    2.6490   -1.0450 H   0  0  0  0  0  0  0  0  0  0  0  0
   -6.5790    2.2250   -0.1890 H   0  0  0  0  0  0  0  0  0  0  0  0
   -4.6870   -1.6420   -0.0230 H   0  0  0  0  0  0  0  0  0  0  0  0
   -1.9140   -3.4440   -0.8780 H   0  0  0  0  0  0  0  0  0  0  0  0
   -1.8110   -3.4030    0.8910 H   0  0  0  0  0  0  0  0  0  0  0  0
   -3.3780   -3.5760    0.1000 H   0  0  0  0  0  0  0  0  0  0  0  0
    1.9770   -2.5460   -0.0410 H   0  0  0  0  0  0  0  0  0  0  0  0
    4.7580   -1.3490   -1.5270 H   0  0  0  0  0  0  0  0  0  0  0  0
    5.2930    0.3260   -1.8500 H   0  0  0  0  0  0  0  0  0  0  0  0
    6.2920   -0.7560   -0.8220 H   0  0  0  0  0  0  0  0  0  0  0  0
    4.8430    2.2950    0.0900 H   0  0  0  0  0  0  0  0  0  0  0  0
    1.4400    3.1380    0.1320 H   0  0  0  0  0  0  0  0  0  0  0  0
   -2.9090    2.3200   -0.0230 H   0  0  0  0  0  0  0  0  0  0  0  0
  1 24  1  0
  1 25  1  0
  1  2  1  0
  1 23  1  0
  2  3  1  0
  3 22  2  0
  3  4  1  0
  4 26  1  0
  4  5  2  0
  5  7  1  0
  5  6  1  0
  6 27  1  0
  6 29  1  0
  6 28  1  0
  7  8  1  0
  7 21  2  0
  8  9  2  0
  8 10  1  0
 10 11  2  0
 10 19  1  0
 11 12  1  0
 11 13  1  0
 12 30  1  0
 13 16  2  0
 13 14  1  0
 14 15  1  0
 15 32  1  0
 15 31  1  0
 15 33  1  0
 16 18  1  0
 16 17  1  0
 17 34  1  0
 18 19  2  0
 18 35  1  0
 19 20  1  0
 20 21  1  0
 21 22  1  0
 22 36  1  0
M  END
>  <id>  (373) 
475

>  <scaffolds>  (373) 
['c1ccccc1', 'O=c1c2ccccc2oc2ccccc12', 'O=c1ccoc2ccccc12']

>  <name>  (373) 
Drimiopsin F

>  <formula>  (373) 
C16H14O6

>  <SMILES>  (373) 
COc3cc(C)c2c(=O)c1c(O)c(OC)c(O)cc1oc2c3

>  <ChEMBL_id>  (373) 


>  <ZINC_id>  (373) 


>  <PubChem_id>  (373) 


>  <DrugBank_id>  (373) 


>  <CAS_no>  (373) 
773850-92-3

>  <references>  (373) 
[{'journal': {'name': 'Journal of Natural Products', 'id': 5}, 'title': 'Xanthones from Drimiopsis maculata', 'year': 2004, 'start_page': 1726, 'volume': 67, 'issue': None, 'doi': '10.1021/np040076z', 'isbn': '', 'despositor': {'code': 'rah', 'first_name': 'Rowan', 'last_name': 'Hatherley', 'id': 20}, 'refauthors_set': [{'author': {'first_name': 'Dulcie', 'initials': 'DA', 'last_name': 'Mulholland', 'id': 525}, 'first_author': True, 'id': 976}, {'author': {'first_name': 'Chantal', 'initials': 'C', 'last_name': 'Koorbanally', 'id': 523}, 'first_author': None, 'id': 977}, {'author': {'first_name': 'Neil', 'initials': 'NR', 'last_name': 'Crouch', 'id': 524}, 'first_author': None, 'id': 978}, {'author': {'first_name': 'Peter', 'initials': 'P', 'last_name': 'Sandor', 'id': 700}, 'first_author': None, 'id': 979}], 'id': 325}]

>  <classifications>  (373) 
[{'classification': 'Xanthone', 'id': 846}, {'classification': 'Benzopyrans (Classyfire)', 'id': 966}]

>  <molecular_mass>  (373) 
302.28

$$$$
SANC00476_minRM1.pdb
     RDKit          3D

 43 44  0  0  1  0  0  0  0  0999 V2000
   -0.5530   -0.5500   -1.5390 H   0  0  0  0  0  0  0  0  0  0  0  0
   -0.5450   -0.6030   -0.4150 C   0  0  1  0  0  0  0  0  0  0  0  0
   -1.5260   -1.6620   -0.0160 C   0  0  0  0  0  0  0  0  0  0  0  0
   -1.2670   -2.7240    0.7380 C   0  0  0  0  0  0  0  0  0  0  0  0
   -2.8980   -1.4220   -0.5640 C   0  0  0  0  0  0  0  0  0  0  0  0
   -3.4170   -0.0690   -0.0950 C   0  0  0  0  0  0  0  0  0  0  0  0
   -2.4130    1.0340   -0.4570 C   0  0  1  0  0  0  0  0  0  0  0  0
   -2.3250    1.0940   -1.5790 H   0  0  0  0  0  0  0  0  0  0  0  0
   -2.8340    2.2670    0.0550 O   0  0  0  0  0  0  0  0  0  0  0  0
   -1.0180    0.7480    0.1570 C   0  0  1  0  0  0  0  0  0  0  0  0
   -1.0910    0.7080    1.6800 C   0  0  0  0  0  0  0  0  0  0  0  0
   -0.0480    1.8520   -0.2810 C   0  0  0  0  0  0  0  0  0  0  0  0
    1.3700    1.5380    0.1810 C   0  0  0  0  0  0  0  0  0  0  0  0
    1.8500    0.2320   -0.4390 C   0  0  1  0  0  0  0  0  0  0  0  0
    1.7800    0.3140   -1.5570 H   0  0  0  0  0  0  0  0  0  0  0  0
    3.3150   -0.0830   -0.0880 C   0  0  1  0  0  0  0  0  0  0  0  0
    4.2650    0.7710   -0.9250 C   0  0  0  0  0  0  0  0  0  0  0  0
    3.6400    0.1050    1.3880 C   0  0  0  0  0  0  0  0  0  0  0  0
    0.9050   -0.9080    0.0110 C   0  0  2  0  0  0  0  0  0  0  0  0
    0.9720   -1.0510    1.1230 H   0  0  0  0  0  0  0  0  0  0  0  0
    1.2230   -2.0960   -0.6610 O   0  0  0  0  0  0  0  0  0  0  0  0
   -0.3030   -2.9750    1.1640 H   0  0  0  0  0  0  0  0  0  0  0  0
   -2.0160   -3.4690    0.9930 H   0  0  0  0  0  0  0  0  0  0  0  0
   -2.8730   -1.4750   -1.6750 H   0  0  0  0  0  0  0  0  0  0  0  0
   -3.6110   -2.2240   -0.2740 H   0  0  0  0  0  0  0  0  0  0  0  0
   -4.4080    0.1390   -0.5550 H   0  0  0  0  0  0  0  0  0  0  0  0
   -3.6230   -0.0780    0.9950 H   0  0  0  0  0  0  0  0  0  0  0  0
   -3.6890    2.4670   -0.3370 H   0  0  0  0  0  0  0  0  0  0  0  0
   -1.5460   -0.2150    2.0670 H   0  0  0  0  0  0  0  0  0  0  0  0
   -0.0960    0.7770    2.1490 H   0  0  0  0  0  0  0  0  0  0  0  0
   -1.6700    1.5440    2.0970 H   0  0  0  0  0  0  0  0  0  0  0  0
   -0.0750    1.9900   -1.3830 H   0  0  0  0  0  0  0  0  0  0  0  0
   -0.3710    2.8330    0.1270 H   0  0  0  0  0  0  0  0  0  0  0  0
    2.0490    2.3750   -0.0830 H   0  0  0  0  0  0  0  0  0  0  0  0
    1.3940    1.4940    1.2930 H   0  0  0  0  0  0  0  0  0  0  0  0
    3.5140   -1.1600   -0.3500 H   0  0  0  0  0  0  0  0  0  0  0  0
    4.1510    1.8480   -0.7370 H   0  0  0  0  0  0  0  0  0  0  0  0
    5.3180    0.5310   -0.7160 H   0  0  0  0  0  0  0  0  0  0  0  0
    4.1220    0.6230   -2.0050 H   0  0  0  0  0  0  0  0  0  0  0  0
    2.9230   -0.3980    2.0510 H   0  0  0  0  0  0  0  0  0  0  0  0
    4.6310   -0.3060    1.6370 H   0  0  0  0  0  0  0  0  0  0  0  0
    3.6700    1.1620    1.6890 H   0  0  0  0  0  0  0  0  0  0  0  0
    2.1520   -2.2920   -0.4870 H   0  0  0  0  0  0  0  0  0  0  0  0
  2  1  1  6
  2  3  1  0
  2 19  1  0
  2 10  1  0
  3  5  1  0
  3  4  2  0
  4 23  1  0
  4 22  1  0
  5 24  1  0
  5 25  1  0
  5  6  1  0
  6 26  1  0
  6  7  1  0
  6 27  1  0
  7  8  1  6
  7  9  1  0
  7 10  1  0
  9 28  1  0
 10 12  1  0
 10 11  1  1
 11 29  1  0
 11 31  1  0
 11 30  1  0
 12 32  1  0
 12 33  1  0
 12 13  1  0
 13 14  1  0
 13 34  1  0
 13 35  1  0
 14 15  1  6
 14 16  1  0
 14 19  1  0
 16 17  1  0
 16 36  1  6
 16 18  1  0
 17 39  1  0
 17 37  1  0
 17 38  1  0
 18 41  1  0
 18 42  1  0
 18 40  1  0
 19 21  1  0
 19 20  1  1
 21 43  1  0
M  END
>  <id>  (374) 
476

>  <scaffolds>  (374) 
['C1CCCCC1', 'C=C1CCCC2CCCCC12', 'C1CCC2CCCCC2C1']

>  <name>  (374) 
(+)1[beta],6[alpha]-dihydroxy-4(15)-eudesmene

>  <formula>  (374) 
C15H26O2

>  <SMILES>  (374) 
[H][C@]12C(=C)CC[C@@H](O)[C@]1(C)CC[C@@H](C(C)C)[C@@H]2O

>  <ChEMBL_id>  (374) 


>  <ZINC_id>  (374) 


>  <PubChem_id>  (374) 


>  <DrugBank_id>  (374) 


>  <CAS_no>  (374) 
70389-88-7

>  <references>  (374) 
[{'journal': {'name': 'Biochemical Systematics and Ecology', 'id': 24}, 'title': 'Eudesmane-type sesquiterpenoids from Urginea epigea (Urgineoideae; Hyacinthaceae)', 'year': 2005, 'start_page': 295, 'volume': 33, 'issue': None, 'doi': '10.1016/j.bse.2004.06.006', 'isbn': '', 'despositor': {'code': 'rah', 'first_name': 'Rowan', 'last_name': 'Hatherley', 'id': 20}, 'refauthors_set': [{'author': {'first_name': 'Chantal', 'initials': 'C', 'last_name': 'Koorbanally', 'id': 523}, 'first_author': True, 'id': 980}, {'author': {'first_name': 'Dulcie', 'initials': 'DA', 'last_name': 'Mulholland', 'id': 525}, 'first_author': None, 'id': 981}, {'author': {'first_name': 'Neil', 'initials': 'NR', 'last_name': 'Crouch', 'id': 524}, 'first_author': None, 'id': 982}], 'id': 326}, {'journal': {'name': 'Journal of Natural Products', 'id': 5}, 'title': 'Cembranolides from the Leaves of Croton gratissimus', 'year': 2011, 'start_page': 2349, 'volume': 74, 'issue': None, 'doi': '10.1021/np2002012', 'isbn': '', 'despositor': {'code': 'NFA', 'first_name': 'Ngonidzashe', 'last_name': 'Faya', 'id': 21}, 'refauthors_set': [{'author': {'first_name': 'Moses', 'initials': 'MK', 'last_name': 'Langat', 'id': 730}, 'first_author': True, 'id': 1048}, {'author': {'first_name': 'Neil', 'initials': 'NR', 'last_name': 'Crouch', 'id': 524}, 'first_author': None, 'id': 1142}, {'author': {'first_name': 'Peter', 'initials': 'PJ', 'last_name': 'Smith', 'id': 490}, 'first_author': None, 'id': 1143}, {'author': {'first_name': 'Dulcie', 'initials': 'DA', 'last_name': 'Mulholland', 'id': 525}, 'first_author': None, 'id': 1144}], 'id': 351}]

>  <classifications>  (374) 
[{'classification': 'Sesquiterpene', 'id': 828}, {'classification': 'Terpenoid', 'id': 839}, {'classification': 'Phenol lipids (Classyfire)', 'id': 951}]

>  <molecular_mass>  (374) 
238.36

$$$$
SANC00477_minRM1.pdb
     RDKit          3D

 43 45  0  0  1  0  0  0  0  0999 V2000
    5.4670   -2.3180    0.4220 C   0  0  0  0  0  0  0  0  0  0  0  0
    4.9920   -1.0570    0.8270 O   0  0  0  0  0  0  0  0  0  0  0  0
    3.8160   -0.6190    0.3160 C   0  0  0  0  0  0  0  0  0  0  0  0
    3.0420   -1.3280   -0.6000 C   0  0  0  0  0  0  0  0  0  0  0  0
    1.8440   -0.7480   -1.0320 C   0  0  0  0  0  0  0  0  0  0  0  0
    1.1310   -1.4570   -1.9170 O   0  0  0  0  0  0  0  0  0  0  0  0
    1.4170    0.4990   -0.5450 C   0  0  0  0  0  0  0  0  0  0  0  0
    0.1460    1.0520   -0.9490 C   0  0  0  0  0  0  0  0  0  0  0  0
   -0.5190    0.5530   -1.8520 O   0  0  0  0  0  0  0  0  0  0  0  0
   -0.3050    2.2800   -0.1770 C   0  0  1  0  0  0  0  0  0  0  0  0
   -1.2260    3.0820   -0.8390 O   0  0  0  0  0  0  0  0  0  0  0  0
   -0.9800    1.8250    1.1300 C   0  0  0  0  0  0  0  0  0  0  0  0
   -2.0680    0.8500    0.8300 C   0  0  0  0  0  0  0  0  0  0  0  0
   -3.3440    1.3120    0.5330 C   0  0  0  0  0  0  0  0  0  0  0  0
   -4.3640    0.4160    0.2320 C   0  0  0  0  0  0  0  0  0  0  0  0
   -4.0910   -0.9490    0.2150 C   0  0  0  0  0  0  0  0  0  0  0  0
   -5.1430   -1.7710   -0.0290 O   0  0  0  0  0  0  0  0  0  0  0  0
   -2.7960   -1.4120    0.5120 C   0  0  0  0  0  0  0  0  0  0  0  0
   -2.6670   -2.7700    0.4670 O   0  0  0  0  0  0  0  0  0  0  0  0
   -1.3640   -3.2910    0.4460 C   0  0  0  0  0  0  0  0  0  0  0  0
   -1.7840   -0.5150    0.8240 C   0  0  0  0  0  0  0  0  0  0  0  0
    0.9560    3.1280    0.1100 C   0  0  0  0  0  0  0  0  0  0  0  0
    1.9210    2.4090    0.8440 O   0  0  0  0  0  0  0  0  0  0  0  0
    2.2530    1.1880    0.3470 C   0  0  0  0  0  0  0  0  0  0  0  0
    3.4490    0.6520    0.7950 C   0  0  0  0  0  0  0  0  0  0  0  0
    4.7970   -3.1440    0.7020 H   0  0  0  0  0  0  0  0  0  0  0  0
    5.6830   -2.3680   -0.6590 H   0  0  0  0  0  0  0  0  0  0  0  0
    6.4170   -2.4180    0.9710 H   0  0  0  0  0  0  0  0  0  0  0  0
    3.3270   -2.3020   -1.0000 H   0  0  0  0  0  0  0  0  0  0  0  0
    0.3480   -0.9470   -2.2320 H   0  0  0  0  0  0  0  0  0  0  0  0
   -1.1690    2.9280   -1.7890 H   0  0  0  0  0  0  0  0  0  0  0  0
   -0.2280    1.3890    1.8230 H   0  0  0  0  0  0  0  0  0  0  0  0
   -1.3730    2.7080    1.6800 H   0  0  0  0  0  0  0  0  0  0  0  0
   -3.5510    2.3880    0.5120 H   0  0  0  0  0  0  0  0  0  0  0  0
   -5.3720    0.7750    0.0040 H   0  0  0  0  0  0  0  0  0  0  0  0
   -4.8170   -2.5480   -0.5040 H   0  0  0  0  0  0  0  0  0  0  0  0
   -0.7370   -2.8670   -0.3560 H   0  0  0  0  0  0  0  0  0  0  0  0
   -0.8400   -3.1750    1.4100 H   0  0  0  0  0  0  0  0  0  0  0  0
   -1.5120   -4.3650    0.2560 H   0  0  0  0  0  0  0  0  0  0  0  0
   -0.7730   -0.8540    1.0610 H   0  0  0  0  0  0  0  0  0  0  0  0
    1.3910    3.5270   -0.8330 H   0  0  0  0  0  0  0  0  0  0  0  0
    0.7320    3.9970    0.7630 H   0  0  0  0  0  0  0  0  0  0  0  0
    4.0910    1.1970    1.4920 H   0  0  0  0  0  0  0  0  0  0  0  0
  1 27  1  0
  1 26  1  0
  1  2  1  0
  1 28  1  0
  2  3  1  0
  3  4  2  0
  3 25  1  0
  4  5  1  0
  4 29  1  0
  5  6  1  0
  5  7  2  0
  6 30  1  0
  7  8  1  0
  7 24  1  0
  8  9  2  0
  8 10  1  0
 10 11  1  6
 10 22  1  0
 10 12  1  0
 11 31  1  0
 12 13  1  0
 12 33  1  0
 12 32  1  0
 13 14  2  0
 13 21  1  0
 14 15  1  0
 14 34  1  0
 15 35  1  0
 15 16  2  0
 16 17  1  0
 16 18  1  0
 17 36  1  0
 18 19  1  0
 18 21  2  0
 19 20  1  0
 20 37  1  0
 20 39  1  0
 20 38  1  0
 21 40  1  0
 22 41  1  0
 22 42  1  0
 22 23  1  0
 23 24  1  0
 24 25  2  0
 25 43  1  0
M  END
>  <id>  (375) 
477

>  <scaffolds>  (375) 
['c1ccccc1', 'O=C1c2ccccc2OCC1Cc1ccccc1', 'O=C(CCc1ccccc1)c1ccccc1']

>  <name>  (375) 
3,5-dihydroxy-7-methoxy-3-(4'-hydroxy-3'-methoxybenzyl)chroman-4-one

>  <formula>  (375) 
C18H18O7

>  <SMILES>  (375) 
COc3cc(O)c2C(=O)C(O)(Cc1ccc(O)c(OC)c1)COc2c3

>  <ChEMBL_id>  (375) 


>  <ZINC_id>  (375) 


>  <PubChem_id>  (375) 


>  <DrugBank_id>  (375) 


>  <CAS_no>  (375) 
849727-93-1

>  <references>  (375) 
[{'journal': {'name': 'Biochemical Systematics and Ecology', 'id': 24}, 'title': 'A novel 3-hydroxy-3-benzyl-4-chromanone-type homoisoflavonoid from Albuca fastigiata (Ornithogaloideae: Hyacinthaceae)', 'year': 2005, 'start_page': 545, 'volume': 33, 'issue': None, 'doi': '10.1016/j.bse.2004.08.009', 'isbn': '', 'despositor': {'code': 'rah', 'first_name': 'Rowan', 'last_name': 'Hatherley', 'id': 20}, 'refauthors_set': [{'author': {'first_name': 'Chantal', 'initials': 'C', 'last_name': 'Koorbanally', 'id': 523}, 'first_author': True, 'id': 1040}, {'author': {'first_name': 'Dulcie', 'initials': 'DA', 'last_name': 'Mulholland', 'id': 525}, 'first_author': None, 'id': 1041}, {'author': {'first_name': 'Neil', 'initials': 'NR', 'last_name': 'Crouch', 'id': 524}, 'first_author': None, 'id': 1042}], 'id': 327}, {'journal': {'name': 'Bioorganic & Medicinal Chemistry', 'id': 34}, 'title': 'Anti-inflammatory activity and QSAR studies of compounds isolated from Hyacinthaceae species and Tachiadenus longiflorus Griseb. (Gentianaceae)', 'year': 2005, 'start_page': 2561, 'volume': 13, 'issue': 7, 'doi': '10.1016/j.bmc.2005.01.036', 'isbn': '', 'despositor': {'code': 'rah', 'first_name': 'Rowan', 'last_name': 'Hatherley', 'id': 20}, 'refauthors_set': [{'author': {'first_name': 'Karen', 'initials': 'K', 'last_name': 'Du Toit', 'id': 713}, 'first_author': True, 'id': 1075}, {'author': {'first_name': 'Esameldin', 'initials': 'EE', 'last_name': 'Elgorashi', 'id': 594}, 'first_author': None, 'id': 1076}, {'author': {'first_name': 'Sarel', 'initials': 'SF', 'last_name': 'Malan', 'id': 759}, 'first_author': None, 'id': 1077}, {'author': {'first_name': 'Siegfried', 'initials': 'SE', 'last_name': 'Drewes', 'id': 613}, 'first_author': None, 'id': 1078}, {'author': {'first_name': 'Johannes', 'initials': 'J', 'last_name': 'Van Staden', 'id': 489}, 'first_author': None, 'id': 1079}, {'author': {'first_name': 'Neil', 'initials': 'NR', 'last_name': 'Crouch', 'id': 524}, 'first_author': None, 'id': 1080}, {'author': {'first_name': 'Dulcie', 'initials': 'DA', 'last_name': 'Mulholland', 'id': 525}, 'first_author': None, 'id': 1081}], 'id': 362}]

>  <classifications>  (375) 
[{'classification': 'Flavonoids', 'id': 776}, {'classification': 'Homoisoflavonoid', 'id': 783}, {'classification': 'Homoisoflavonoids (Classyfire)', 'id': 964}]

>  <molecular_mass>  (375) 
346.33

$$$$
SANC00478_minRM1.pdb
     RDKit          3D

141153  0  0  1  0  0  0  0  0999 V2000
   -7.7440    1.8810    2.2350 O   0  0  0  0  0  0  0  0  0  0  0  0
   -7.4210    1.0290    1.4340 C   0  0  0  0  0  0  0  0  0  0  0  0
   -8.4110    0.0510    0.8090 C   0  0  1  0  0  0  0  0  0  0  0  0
   -7.7970   -1.2720    1.1850 C   0  0  0  0  0  0  0  0  0  0  0  0
   -8.4270   -1.8230    2.2280 C   0  0  0  0  0  0  0  0  0  0  0  0
   -9.5410   -0.9380    2.7040 C   0  0  0  0  0  0  0  0  0  0  0  0
   -9.7830    0.0110    1.5130 C   0  0  2  0  0  0  0  0  0  0  0  0
  -10.0810    1.0310    1.8570 H   0  0  0  0  0  0  0  0  0  0  0  0
  -10.8950   -0.5300    0.6040 C   0  0  2  0  0  0  0  0  0  0  0  0
  -11.8780   -0.2930    1.0880 H   0  0  0  0  0  0  0  0  0  0  0  0
  -10.8270   -2.0310    0.3470 C   0  0  0  0  0  0  0  0  0  0  0  0
  -10.8130    0.1850   -0.7510 C   0  0  2  0  0  0  0  0  0  0  0  0
   -9.5880   -0.0550   -1.3750 O   0  0  0  0  0  0  0  0  0  0  0  0
   -8.4630    0.4010   -0.6810 C   0  0  0  0  0  0  0  0  0  0  0  0
  -10.9360    1.5670   -0.5550 O   0  0  0  0  0  0  0  0  0  0  0  0
  -11.6180    2.1890   -1.6290 C   0  0  1  0  0  0  0  0  0  0  0  0
  -12.0540    1.0860   -2.6090 C   0  0  0  0  0  0  0  0  0  0  0  0
  -11.9140   -0.2040   -1.7820 C   0  0  1  0  0  0  0  0  0  0  0  0
  -12.8740   -0.4460   -1.2510 H   0  0  0  0  0  0  0  0  0  0  0  0
  -11.4540   -1.2920   -2.5130 O   0  0  0  0  0  0  0  0  0  0  0  0
  -12.8290    2.9080   -1.0280 C   0  0  0  0  0  0  0  0  0  0  0  0
  -10.6580    3.1900   -2.2740 C   0  0  0  0  0  0  0  0  0  0  0  0
   -6.4960   -1.5980    0.5640 C   0  0  2  0  0  0  0  0  0  0  0  0
   -6.5890   -1.4460   -0.5460 H   0  0  0  0  0  0  0  0  0  0  0  0
   -6.0380   -3.0210    0.8500 C   0  0  0  0  0  0  0  0  0  0  0  0
   -4.6890   -3.2640    0.1900 C   0  0  0  0  0  0  0  0  0  0  0  0
   -3.6460   -2.2540    0.6750 C   0  0  1  0  0  0  0  0  0  0  0  0
   -3.4800   -2.4190    1.7730 H   0  0  0  0  0  0  0  0  0  0  0  0
   -2.3290   -2.5320   -0.0530 C   0  0  0  0  0  0  0  0  0  0  0  0
   -1.2930   -1.5110    0.2850 C   0  0  0  0  0  0  0  0  0  0  0  0
   -0.0030   -1.8500    0.0430 N   0  0  0  0  0  0  0  0  0  0  0  0
    0.9420   -0.9240    0.3360 C   0  0  0  0  0  0  0  0  0  0  0  0
    0.5930    0.3410    0.8520 C   0  0  0  0  0  0  0  0  0  0  0  0
   -0.6960    0.6810    1.0900 N   0  0  0  0  0  0  0  0  0  0  0  0
   -1.6400   -0.2520    0.8130 C   0  0  0  0  0  0  0  0  0  0  0  0
   -3.0470    0.1210    1.1540 C   0  0  0  0  0  0  0  0  0  0  0  0
   -4.0830   -0.7940    0.4780 C   0  0  1  0  0  0  0  0  0  0  0  0
   -4.1450   -0.4170   -1.0010 C   0  0  0  0  0  0  0  0  0  0  0  0
   -5.4750   -0.5860    1.1500 C   0  0  2  0  0  0  0  0  0  0  0  0
   -5.2770   -0.8340    2.5110 O   0  0  0  0  0  0  0  0  0  0  0  0
   -5.9850    0.8640    0.9870 C   0  0  0  0  0  0  0  0  0  0  0  0
    1.6200    1.3840    1.1480 C   0  0  0  0  0  0  0  0  0  0  0  0
    3.0210    0.7780    1.2530 C   0  0  2  0  0  0  0  0  0  0  0  0
    3.0630    0.1500    2.1840 H   0  0  0  0  0  0  0  0  0  0  0  0
    4.0390    1.9070    1.3990 C   0  0  0  0  0  0  0  0  0  0  0  0
    5.4470    1.3460    1.5000 C   0  0  0  0  0  0  0  0  0  0  0  0
    5.7610    0.5150    0.2580 C   0  0  1  0  0  0  0  0  0  0  0  0
    5.6800    1.1730   -0.6460 H   0  0  0  0  0  0  0  0  0  0  0  0
    7.1390   -0.0360    0.2940 C   0  0  0  0  0  0  0  0  0  0  0  0
    8.0590    0.0900    1.2500 C   0  0  0  0  0  0  0  0  0  0  0  0
    9.2890   -0.7100    0.9500 C   0  0  2  0  0  0  0  0  0  0  0  0
    9.4890   -1.4670    1.7450 H   0  0  0  0  0  0  0  0  0  0  0  0
   10.4370    0.0970    0.9020 O   0  0  0  0  0  0  0  0  0  0  0  0
   10.6740    0.4900   -0.4190 C   0  0  1  0  0  0  0  0  0  0  0  0
    9.8920    1.6320   -0.6490 O   0  0  0  0  0  0  0  0  0  0  0  0
   10.5670    2.7780   -0.1670 C   0  0  2  0  0  0  0  0  0  0  0  0
   10.1530    3.0510    1.2760 C   0  0  0  0  0  0  0  0  0  0  0  0
   10.1600    3.9530   -1.0870 C   0  0  0  0  0  0  0  0  0  0  0  0
    8.8560    4.3500   -0.8180 O   0  0  0  0  0  0  0  0  0  0  0  0
   12.0750    2.4750   -0.2860 C   0  0  0  0  0  0  0  0  0  0  0  0
   12.1510    0.9570   -0.5440 C   0  0  1  0  0  0  0  0  0  0  0  0
   12.5370    0.7580   -1.5810 H   0  0  0  0  0  0  0  0  0  0  0  0
   12.8870    0.2560    0.4040 O   0  0  0  0  0  0  0  0  0  0  0  0
   10.1850   -0.6600   -1.3300 C   0  0  1  0  0  0  0  0  0  0  0  0
    9.8170   -0.2730   -2.3110 H   0  0  0  0  0  0  0  0  0  0  0  0
   11.3320   -1.6190   -1.6260 C   0  0  0  0  0  0  0  0  0  0  0  0
    9.0450   -1.3010   -0.4860 C   0  0  1  0  0  0  0  0  0  0  0  0
    9.0910   -2.6890   -0.4960 O   0  0  0  0  0  0  0  0  0  0  0  0
    7.5770   -0.8930   -0.8660 C   0  0  2  0  0  0  0  0  0  0  0  0
    7.4960   -0.1130   -2.1710 C   0  0  0  0  0  0  0  0  0  0  0  0
    6.5790   -2.0800   -0.9230 C   0  0  2  0  0  0  0  0  0  0  0  0
    6.6810   -2.7110    0.0020 H   0  0  0  0  0  0  0  0  0  0  0  0
    6.7600   -2.8260   -2.0900 O   0  0  0  0  0  0  0  0  0  0  0  0
    5.1300   -1.5630   -1.0170 C   0  0  0  0  0  0  0  0  0  0  0  0
    4.7730   -0.6570    0.1620 C   0  0  2  0  0  0  0  0  0  0  0  0
    4.8640   -1.2620    1.1040 H   0  0  0  0  0  0  0  0  0  0  0  0
    3.3200   -0.1340    0.0510 C   0  0  2  0  0  0  0  0  0  0  0  0
    3.0930    0.5870   -1.2750 C   0  0  0  0  0  0  0  0  0  0  0  0
    2.3640   -1.3360    0.1260 C   0  0  0  0  0  0  0  0  0  0  0  0
   -8.1970   -2.7580    2.7280 H   0  0  0  0  0  0  0  0  0  0  0  0
  -10.4440   -1.4800    3.0390 H   0  0  0  0  0  0  0  0  0  0  0  0
   -9.2100   -0.3780    3.6050 H   0  0  0  0  0  0  0  0  0  0  0  0
  -10.8610   -2.6310    1.2680 H   0  0  0  0  0  0  0  0  0  0  0  0
  -11.6790   -2.3880   -0.2520 H   0  0  0  0  0  0  0  0  0  0  0  0
   -9.9190   -2.3290   -0.1950 H   0  0  0  0  0  0  0  0  0  0  0  0
   -8.3640    1.5020   -0.8230 H   0  0  0  0  0  0  0  0  0  0  0  0
   -7.6280   -0.0820   -1.2410 H   0  0  0  0  0  0  0  0  0  0  0  0
  -13.0800    1.2400   -2.9930 H   0  0  0  0  0  0  0  0  0  0  0  0
  -11.4150    1.0610   -3.5160 H   0  0  0  0  0  0  0  0  0  0  0  0
  -12.0560   -1.4040   -3.2560 H   0  0  0  0  0  0  0  0  0  0  0  0
  -12.5370    3.6070   -0.2310 H   0  0  0  0  0  0  0  0  0  0  0  0
  -13.3770    3.4800   -1.7860 H   0  0  0  0  0  0  0  0  0  0  0  0
  -13.5420    2.2030   -0.5780 H   0  0  0  0  0  0  0  0  0  0  0  0
   -9.7510    2.7030   -2.6640 H   0  0  0  0  0  0  0  0  0  0  0  0
  -11.1320    3.7160   -3.1180 H   0  0  0  0  0  0  0  0  0  0  0  0
  -10.3240    3.9540   -1.5600 H   0  0  0  0  0  0  0  0  0  0  0  0
   -5.9730   -3.2190    1.9410 H   0  0  0  0  0  0  0  0  0  0  0  0
   -6.7940   -3.7460    0.4790 H   0  0  0  0  0  0  0  0  0  0  0  0
   -4.3430   -4.2970    0.4160 H   0  0  0  0  0  0  0  0  0  0  0  0
   -4.7900   -3.2580   -0.9150 H   0  0  0  0  0  0  0  0  0  0  0  0
   -1.9670   -3.5540    0.1950 H   0  0  0  0  0  0  0  0  0  0  0  0
   -2.4620   -2.5600   -1.1570 H   0  0  0  0  0  0  0  0  0  0  0  0
   -3.1330    0.0920    2.2650 H   0  0  0  0  0  0  0  0  0  0  0  0
   -3.2330    1.1850    0.8890 H   0  0  0  0  0  0  0  0  0  0  0  0
   -3.1470   -0.2850   -1.4390 H   0  0  0  0  0  0  0  0  0  0  0  0
   -4.6510   -1.1640   -1.6290 H   0  0  0  0  0  0  0  0  0  0  0  0
   -4.6850    0.5360   -1.1710 H   0  0  0  0  0  0  0  0  0  0  0  0
   -6.1180   -0.7350    2.9700 H   0  0  0  0  0  0  0  0  0  0  0  0
   -5.8920    1.1980   -0.0690 H   0  0  0  0  0  0  0  0  0  0  0  0
   -5.3330    1.5620    1.5590 H   0  0  0  0  0  0  0  0  0  0  0  0
    1.5700    2.1740    0.3660 H   0  0  0  0  0  0  0  0  0  0  0  0
    1.3670    1.9220    2.0890 H   0  0  0  0  0  0  0  0  0  0  0  0
    3.9710    2.6370    0.5650 H   0  0  0  0  0  0  0  0  0  0  0  0
    3.8060    2.5170    2.3000 H   0  0  0  0  0  0  0  0  0  0  0  0
    6.1830    2.1700    1.6150 H   0  0  0  0  0  0  0  0  0  0  0  0
    5.5560    0.7400    2.4250 H   0  0  0  0  0  0  0  0  0  0  0  0
    8.0120    0.6680    2.1680 H   0  0  0  0  0  0  0  0  0  0  0  0
   10.6120    2.3490    1.9850 H   0  0  0  0  0  0  0  0  0  0  0  0
   10.4430    4.0640    1.5890 H   0  0  0  0  0  0  0  0  0  0  0  0
    9.0670    2.9660    1.4110 H   0  0  0  0  0  0  0  0  0  0  0  0
   10.7840    4.8430   -0.8470 H   0  0  0  0  0  0  0  0  0  0  0  0
   10.3450    3.7100   -2.1580 H   0  0  0  0  0  0  0  0  0  0  0  0
    8.2660    3.8580   -1.4070 H   0  0  0  0  0  0  0  0  0  0  0  0
   12.5470    3.0390   -1.1080 H   0  0  0  0  0  0  0  0  0  0  0  0
   12.6310    2.7920    0.6190 H   0  0  0  0  0  0  0  0  0  0  0  0
   13.7680    0.6430    0.4270 H   0  0  0  0  0  0  0  0  0  0  0  0
   11.8790   -1.9340   -0.7240 H   0  0  0  0  0  0  0  0  0  0  0  0
   10.9900   -2.5270   -2.1490 H   0  0  0  0  0  0  0  0  0  0  0  0
   12.0800   -1.1690   -2.3000 H   0  0  0  0  0  0  0  0  0  0  0  0
    9.8630   -2.9740    0.0070 H   0  0  0  0  0  0  0  0  0  0  0  0
    8.0820   -0.5970   -2.9700 H   0  0  0  0  0  0  0  0  0  0  0  0
    6.4670   -0.0420   -2.5590 H   0  0  0  0  0  0  0  0  0  0  0  0
    7.8580    0.9220   -2.0650 H   0  0  0  0  0  0  0  0  0  0  0  0
    7.5690   -3.3440   -1.9920 H   0  0  0  0  0  0  0  0  0  0  0  0
    4.9670   -1.0320   -1.9860 H   0  0  0  0  0  0  0  0  0  0  0  0
    4.4460   -2.4380   -1.0670 H   0  0  0  0  0  0  0  0  0  0  0  0
    3.5000    0.0220   -2.1290 H   0  0  0  0  0  0  0  0  0  0  0  0
    2.0250    0.7350   -1.4990 H   0  0  0  0  0  0  0  0  0  0  0  0
    3.5530    1.5850   -1.3170 H   0  0  0  0  0  0  0  0  0  0  0  0
    2.6460   -2.0210    0.9580 H   0  0  0  0  0  0  0  0  0  0  0  0
    2.4540   -1.9630   -0.7900 H   0  0  0  0  0  0  0  0  0  0  0  0
  1  2  2  0
  2 41  1  0
  3  2  1  1
  3 14  1  0
  3  4  1  0
  3  7  1  0
  4 23  1  0
  4  5  2  0
  5  6  1  0
  5 80  1  0
  6  7  1  0
  6 81  1  0
  6 82  1  0
  7  9  1  0
  7  8  1  1
  9 12  1  0
  9 11  1  0
  9 10  1  1
 11 84  1  0
 11 85  1  0
 11 83  1  0
 12 18  1  0
 12 13  1  6
 12 15  1  0
 13 14  1  0
 14 87  1  0
 14 86  1  0
 15 16  1  0
 16 17  1  0
 16 22  1  6
 16 21  1  0
 17 89  1  0
 17 88  1  0
 17 18  1  0
 18 20  1  0
 18 19  1  1
 20 90  1  0
 21 92  1  0
 21 93  1  0
 21 91  1  0
 22 95  1  0
 22 94  1  0
 22 96  1  0
 23 24  1  6
 23 25  1  0
 23 39  1  0
 25 26  1  0
 25 98  1  0
 25 97  1  0
 26100  1  0
 26 99  1  0
 26 27  1  0
 27 29  1  0
 27 37  1  0
 27 28  1  1
 29102  1  0
 29101  1  0
 29 30  1  0
 30 31  2  0
 30 35  1  0
 31 32  1  0
 32 79  1  0
 32 33  2  0
 33 34  1  0
 33 42  1  0
 34 35  2  0
 35 36  1  0
 36 37  1  0
 36104  1  0
 36103  1  0
 37 38  1  6
 37 39  1  0
 38106  1  0
 38105  1  0
 38107  1  0
 39 41  1  0
 39 40  1  1
 40108  1  0
 41109  1  0
 41110  1  0
 42111  1  0
 42 43  1  0
 42112  1  0
 43 77  1  0
 43 45  1  0
 43 44  1  1
 45113  1  0
 45 46  1  0
 45114  1  0
 46 47  1  0
 46115  1  0
 46116  1  0
 47 48  1  6
 47 75  1  0
 47 49  1  0
 49 69  1  0
 49 50  2  0
 50 51  1  0
 50117  1  0
 51 67  1  0
 51 53  1  0
 51 52  1  1
 54 53  1  1
 54 64  1  0
 54 55  1  0
 54 61  1  0
 55 56  1  0
 56 58  1  6
 56 60  1  0
 56 57  1  0
 57120  1  0
 57119  1  0
 57118  1  0
 58122  1  0
 58121  1  0
 58 59  1  0
 59123  1  0
 60124  1  0
 60 61  1  0
 60125  1  0
 61 62  1  6
 61 63  1  0
 63126  1  0
 64 65  1  6
 64 66  1  0
 64 67  1  0
 66129  1  0
 66128  1  0
 66127  1  0
 67 69  1  0
 67 68  1  1
 68130  1  0
 69 70  1  6
 69 71  1  0
 70131  1  0
 70132  1  0
 70133  1  0
 71 73  1  0
 71 74  1  0
 71 72  1  1
 73134  1  0
 74135  1  0
 74136  1  0
 74 75  1  0
 75 77  1  0
 75 76  1  1
 77 78  1  6
 77 79  1  0
 78137  1  0
 78138  1  0
 78139  1  0
 79141  1  0
 79140  1  0
M  END
>  <id>  (376) 
478

>  <scaffolds>  (376) 
['O=C1CC2C(CCC3Cc4nc5c(nc4CC32)CC2CCC3C4=CC6OC7(CCCO7)CC6C4CCC3C2C5)C2=CCC3CC4(CCCO4)OCC123', 'C1CCOCC1', 'C1CCCCC1', 'C=C1CCCC2CCCCC12', 'O=C1CC2C(CCC3Cc4nc5c(nc4CC32)CC2CCC3C4=CC6OC7(CCCO7)CC6C4CCC3C2C5)C2=CCC3CCOCC123', 'C1CCC2CCCCC2C1']

>  <name>  (376) 
Cephalostatin 2

>  <formula>  (376) 
C54H74N2O11

>  <SMILES>  (376) 
O=C7[C@@]31/C(=C/C[C@@H]3[C@H](C)[C@]2(OC1)OC(C[C@H]2O)(C)C)[C@@H]6CC[C@H]5Cc4nc%12c(nc4C[C@]5(C)[C@@]6(O)C7)C[C@@H]%13CC[C@H]%11/C%10=C/[C@@H]9O[C@]8(O[C@](C)(CO)C[C@H]8O)[C@@H](C)[C@]9(O)[C@@]%10(C)[C@H](O)C[C@@H]%11[C@@]%13(C)C%12

>  <ChEMBL_id>  (376) 
CID: 5352052

>  <ZINC_id>  (376) 


>  <PubChem_id>  (376) 


>  <DrugBank_id>  (376) 


>  <CAS_no>  (376) 
116199-48-5

>  <references>  (376) 
[{'journal': {'name': 'Journal of Natural Products', 'id': 5}, 'title': 'Review of Cytotoxic Cephalostatins and Ritterazines: Isolation and Synthesis', 'year': 2008, 'start_page': 487, 'volume': 71, 'issue': 3, 'doi': '10.1021/np070536z', 'isbn': '', 'despositor': {'code': 'TMM', 'first_name': 'Thommas', 'last_name': 'Musyoka', 'id': 22}, 'refauthors_set': [{'author': {'first_name': '', 'initials': 'BR', 'last_name': 'Moser', 'id': 701}, 'first_author': True, 'id': 983}, {'author': {'first_name': 'Amira', 'initials': 'A', 'last_name': 'Rudi', 'id': 534}, 'first_author': False, 'id': 1097}], 'id': 328}, {'journal': {'name': 'Journal of the Chemical Society, Chemical Communications', 'id': 8}, 'title': 'Isolation and Structure of the Hemichordate Cell Growth Inhibitors Cephalostatins 2,  3, and 4', 'year': 1988, 'start_page': 1972, 'volume': None, 'issue': 13, 'doi': '10.1039/C39880000865', 'isbn': '', 'despositor': {'code': 'TMM', 'first_name': 'Thommas', 'last_name': 'Musyoka', 'id': 22}, 'refauthors_set': [{'author': {'first_name': 'George', 'initials': 'GR', 'last_name': 'Pettit', 'id': 478}, 'first_author': True, 'id': 984}, {'author': {'first_name': 'Margaret', 'initials': 'L', 'last_name': 'Niven ', 'id': 702}, 'first_author': None, 'id': 985}, {'author': {'first_name': '', 'initials': 'I', 'last_name': 'Masuo', 'id': 506}, 'first_author': None, 'id': 986}, {'author': {'first_name': '', 'initials': 'Y', 'last_name': 'Kamano', 'id': 507}, 'first_author': None, 'id': 987}, {'author': {'first_name': '', 'initials': 'D', 'last_name': 'Claude', 'id': 510}, 'first_author': None, 'id': 988}, {'author': {'first_name': '', 'initials': 'DC', 'last_name': 'Nigel', 'id': 502}, 'first_author': None, 'id': 989}, {'author': {'first_name': '', 'initials': 'LH', 'last_name': 'Delbert ', 'id': 508}, 'first_author': None, 'id': 990}], 'id': 329}]

>  <classifications>  (376) 
[{'classification': 'Alkaloid', 'id': 738}, {'classification': 'Cephalostatin', 'id': 759}, {'classification': 'Steroid', 'id': 835}, {'classification': 'Steroids and steroid derivatives (Classyfire)', 'id': 942}]

>  <molecular_mass>  (376) 
927.17

$$$$
SANC00479_minRM1.pdb
     RDKit          3D

144156  0  0  1  0  0  0  0  0999 V2000
  -10.4220   -1.7620   -0.8610 C   0  0  0  0  0  0  0  0  0  0  0  0
  -10.5690   -0.5290    0.0250 C   0  0  1  0  0  0  0  0  0  0  0  0
  -11.6170   -0.5060    0.4220 H   0  0  0  0  0  0  0  0  0  0  0  0
   -9.5920   -0.4990    1.2040 C   0  0  1  0  0  0  0  0  0  0  0  0
   -9.8990    0.3060    1.9150 H   0  0  0  0  0  0  0  0  0  0  0  0
   -9.5670   -1.8710    1.9110 C   0  0  0  0  0  0  0  0  0  0  0  0
   -8.4090   -2.5770    1.2750 C   0  0  0  0  0  0  0  0  0  0  0  0
   -7.6190   -1.7130    0.6300 C   0  0  0  0  0  0  0  0  0  0  0  0
   -8.1350   -0.3010    0.7330 C   0  0  1  0  0  0  0  0  0  0  0  0
   -7.9640    0.5910   -0.5060 C   0  0  0  0  0  0  0  0  0  0  0  0
   -9.0370    0.6710   -1.3940 O   0  0  0  0  0  0  0  0  0  0  0  0
  -10.3130    0.7360   -0.8030 C   0  0  2  0  0  0  0  0  0  0  0  0
  -10.5110    2.1030   -0.0720 C   0  0  1  0  0  0  0  0  0  0  0  0
   -9.5960    2.4480    0.4720 H   0  0  0  0  0  0  0  0  0  0  0  0
  -10.8590    3.0230   -1.2610 C   0  0  1  0  0  0  0  0  0  0  0  0
   -9.8920    3.3570   -1.7230 H   0  0  0  0  0  0  0  0  0  0  0  0
  -11.5790    2.0660   -2.2370 C   0  0  1  0  0  0  0  0  0  0  0  0
  -11.1550    0.7480   -1.9190 O   0  0  0  0  0  0  0  0  0  0  0  0
  -13.1010    2.0640   -2.0910 C   0  0  0  0  0  0  0  0  0  0  0  0
  -11.1800    2.3360   -3.6890 C   0  0  0  0  0  0  0  0  0  0  0  0
  -11.6460    4.2600   -0.8880 C   0  0  0  0  0  0  0  0  0  0  0  0
  -11.5790    1.9350    0.8030 O   0  0  0  0  0  0  0  0  0  0  0  0
   -7.2100    0.2820    1.7930 C   0  0  0  0  0  0  0  0  0  0  0  0
   -7.6200    0.8090    2.8090 O   0  0  0  0  0  0  0  0  0  0  0  0
   -5.7330    0.1850    1.4850 C   0  0  0  0  0  0  0  0  0  0  0  0
   -5.2800   -1.2410    1.0950 C   0  0  1  0  0  0  0  0  0  0  0  0
   -6.2600   -1.8730    0.0720 C   0  0  1  0  0  0  0  0  0  0  0  0
   -6.2200   -1.3040   -0.8970 H   0  0  0  0  0  0  0  0  0  0  0  0
   -5.8740   -3.3230   -0.1800 C   0  0  0  0  0  0  0  0  0  0  0  0
   -4.4790   -3.3650   -0.7870 C   0  0  0  0  0  0  0  0  0  0  0  0
   -3.4530   -2.6900    0.1270 C   0  0  2  0  0  0  0  0  0  0  0  0
   -3.3800   -3.2890    1.0740 H   0  0  0  0  0  0  0  0  0  0  0  0
   -3.8380   -1.2500    0.5030 C   0  0  2  0  0  0  0  0  0  0  0  0
   -2.8390   -0.7450    1.5570 C   0  0  0  0  0  0  0  0  0  0  0  0
   -1.4260   -0.9370    1.1100 C   0  0  0  0  0  0  0  0  0  0  0  0
   -1.0730   -1.8860    0.1300 C   0  0  0  0  0  0  0  0  0  0  0  0
   -2.0910   -2.7240   -0.5710 C   0  0  0  0  0  0  0  0  0  0  0  0
    0.2150   -2.0630   -0.2520 N   0  0  0  0  0  0  0  0  0  0  0  0
    1.1480   -1.2910    0.3520 C   0  0  0  0  0  0  0  0  0  0  0  0
    2.5660   -1.5160   -0.0610 C   0  0  0  0  0  0  0  0  0  0  0  0
    3.4650   -0.3170    0.2830 C   0  0  1  0  0  0  0  0  0  0  0  0
    3.2390    0.0340    1.7610 C   0  0  1  0  0  0  0  0  0  0  0  0
    3.3990   -0.8930    2.3740 H   0  0  0  0  0  0  0  0  0  0  0  0
    4.2220    1.1040    2.2360 C   0  0  0  0  0  0  0  0  0  0  0  0
    5.6580    0.6420    2.0330 C   0  0  0  0  0  0  0  0  0  0  0  0
    5.9040    0.3450    0.5550 C   0  0  2  0  0  0  0  0  0  0  0  0
    5.7540    1.2900   -0.0300 H   0  0  0  0  0  0  0  0  0  0  0  0
    4.9340   -0.7470    0.0830 C   0  0  2  0  0  0  0  0  0  0  0  0
    5.1220   -1.6630    0.7040 H   0  0  0  0  0  0  0  0  0  0  0  0
    5.2110   -1.0890   -1.3800 C   0  0  0  0  0  0  0  0  0  0  0  0
    6.6540   -1.5930   -1.5680 C   0  0  2  0  0  0  0  0  0  0  0  0
    6.7940   -2.5270   -0.9570 H   0  0  0  0  0  0  0  0  0  0  0  0
    7.6580   -0.4980   -1.1150 C   0  0  1  0  0  0  0  0  0  0  0  0
    7.2870   -0.1360    0.3020 C   0  0  0  0  0  0  0  0  0  0  0  0
    8.2660   -0.3390    1.1820 C   0  0  0  0  0  0  0  0  0  0  0  0
    9.4750   -0.9500    0.5420 C   0  0  1  0  0  0  0  0  0  0  0  0
    9.7240   -1.9360    1.0040 H   0  0  0  0  0  0  0  0  0  0  0  0
    9.1400   -1.0040   -0.9930 C   0  0  2  0  0  0  0  0  0  0  0  0
   10.2430   -0.1090   -1.6300 C   0  0  1  0  0  0  0  0  0  0  0  0
    9.8210    0.6000   -2.3850 H   0  0  0  0  0  0  0  0  0  0  0  0
   10.8150    0.6440   -0.4120 C   0  0  1  0  0  0  0  0  0  0  0  0
   10.6170   -0.1530    0.7190 O   0  0  0  0  0  0  0  0  0  0  0  0
   12.3010    1.0920   -0.4280 C   0  0  1  0  0  0  0  0  0  0  0  0
   12.5850    1.4570   -1.4520 H   0  0  0  0  0  0  0  0  0  0  0  0
   12.2930    2.2560    0.5790 C   0  0  0  0  0  0  0  0  0  0  0  0
   10.8190    2.7260    0.5920 C   0  0  1  0  0  0  0  0  0  0  0  0
   10.0810    1.8260   -0.2130 O   0  0  0  0  0  0  0  0  0  0  0  0
   10.2360    2.7290    2.0020 C   0  0  0  0  0  0  0  0  0  0  0  0
   10.6830    4.1210   -0.0680 C   0  0  0  0  0  0  0  0  0  0  0  0
    9.3450    4.5210    0.0010 O   0  0  0  0  0  0  0  0  0  0  0  0
   13.0850    0.0080   -0.0520 O   0  0  0  0  0  0  0  0  0  0  0  0
   11.3380   -0.9030   -2.3300 C   0  0  0  0  0  0  0  0  0  0  0  0
    9.1610   -2.3020   -1.4830 O   0  0  0  0  0  0  0  0  0  0  0  0
    7.5160    0.7170   -2.0210 C   0  0  0  0  0  0  0  0  0  0  0  0
    6.7790   -1.8320   -2.9380 O   0  0  0  0  0  0  0  0  0  0  0  0
    1.8110    0.5290    1.9990 C   0  0  0  0  0  0  0  0  0  0  0  0
    0.7950   -0.3480    1.3400 C   0  0  0  0  0  0  0  0  0  0  0  0
   -0.4920   -0.1670    1.7190 N   0  0  0  0  0  0  0  0  0  0  0  0
    3.1010    0.8560   -0.6230 C   0  0  0  0  0  0  0  0  0  0  0  0
   -3.7620   -0.3220   -0.7070 C   0  0  0  0  0  0  0  0  0  0  0  0
   -5.2180   -2.0150    2.2560 O   0  0  0  0  0  0  0  0  0  0  0  0
   -9.4200   -1.8570   -1.3010 H   0  0  0  0  0  0  0  0  0  0  0  0
  -10.6260   -2.6990   -0.3250 H   0  0  0  0  0  0  0  0  0  0  0  0
  -11.1310   -1.7430   -1.7030 H   0  0  0  0  0  0  0  0  0  0  0  0
   -9.3920   -1.7650    3.0020 H   0  0  0  0  0  0  0  0  0  0  0  0
  -10.5240   -2.4230    1.8400 H   0  0  0  0  0  0  0  0  0  0  0  0
   -8.2700   -3.6470    1.3920 H   0  0  0  0  0  0  0  0  0  0  0  0
   -7.6780    1.6280   -0.2040 H   0  0  0  0  0  0  0  0  0  0  0  0
   -7.1340    0.2200   -1.1550 H   0  0  0  0  0  0  0  0  0  0  0  0
  -13.5510    3.0130   -2.4200 H   0  0  0  0  0  0  0  0  0  0  0  0
  -13.5640    1.2700   -2.6970 H   0  0  0  0  0  0  0  0  0  0  0  0
  -13.4170    1.8810   -1.0530 H   0  0  0  0  0  0  0  0  0  0  0  0
  -10.1000    2.2030   -3.8550 H   0  0  0  0  0  0  0  0  0  0  0  0
  -11.6840    1.6520   -4.3860 H   0  0  0  0  0  0  0  0  0  0  0  0
  -11.4440    3.3610   -3.9900 H   0  0  0  0  0  0  0  0  0  0  0  0
  -11.0780    4.9030   -0.1970 H   0  0  0  0  0  0  0  0  0  0  0  0
  -11.8720    4.8710   -1.7750 H   0  0  0  0  0  0  0  0  0  0  0  0
  -12.6110    4.0560   -0.4020 H   0  0  0  0  0  0  0  0  0  0  0  0
  -11.6390    2.7340    1.3380 H   0  0  0  0  0  0  0  0  0  0  0  0
   -5.4860    0.9090    0.6760 H   0  0  0  0  0  0  0  0  0  0  0  0
   -5.1450    0.5410    2.3610 H   0  0  0  0  0  0  0  0  0  0  0  0
   -5.9120   -3.9300    0.7490 H   0  0  0  0  0  0  0  0  0  0  0  0
   -6.6120   -3.8050   -0.8570 H   0  0  0  0  0  0  0  0  0  0  0  0
   -4.1800   -4.4190   -0.9710 H   0  0  0  0  0  0  0  0  0  0  0  0
   -4.4890   -2.9120   -1.8010 H   0  0  0  0  0  0  0  0  0  0  0  0
   -3.0270    0.3240    1.7980 H   0  0  0  0  0  0  0  0  0  0  0  0
   -2.9560   -1.2730    2.5300 H   0  0  0  0  0  0  0  0  0  0  0  0
   -1.7340   -3.7750   -0.6500 H   0  0  0  0  0  0  0  0  0  0  0  0
   -2.1640   -2.3880   -1.6300 H   0  0  0  0  0  0  0  0  0  0  0  0
    2.9230   -2.4450    0.4380 H   0  0  0  0  0  0  0  0  0  0  0  0
    2.6300   -1.7480   -1.1480 H   0  0  0  0  0  0  0  0  0  0  0  0
    4.0510    2.0710    1.7150 H   0  0  0  0  0  0  0  0  0  0  0  0
    4.0450    1.3370    3.3080 H   0  0  0  0  0  0  0  0  0  0  0  0
    6.3630    1.4210    2.3950 H   0  0  0  0  0  0  0  0  0  0  0  0
    5.8700   -0.2480    2.6620 H   0  0  0  0  0  0  0  0  0  0  0  0
    4.4980   -1.8580   -1.7500 H   0  0  0  0  0  0  0  0  0  0  0  0
    5.0250   -0.2050   -2.0360 H   0  0  0  0  0  0  0  0  0  0  0  0
    8.2760   -0.1250    2.2470 H   0  0  0  0  0  0  0  0  0  0  0  0
   12.6260    1.9280    1.5850 H   0  0  0  0  0  0  0  0  0  0  0  0
   13.0030    3.0590    0.3000 H   0  0  0  0  0  0  0  0  0  0  0  0
   10.7450    3.4670    2.6400 H   0  0  0  0  0  0  0  0  0  0  0  0
    9.1610    2.9810    2.0050 H   0  0  0  0  0  0  0  0  0  0  0  0
   10.3240    1.7430    2.4900 H   0  0  0  0  0  0  0  0  0  0  0  0
   11.2730    4.8720    0.5080 H   0  0  0  0  0  0  0  0  0  0  0  0
   11.1080    4.1120   -1.0970 H   0  0  0  0  0  0  0  0  0  0  0  0
    9.0310    4.6220   -0.9060 H   0  0  0  0  0  0  0  0  0  0  0  0
   13.9570    0.3560    0.1740 H   0  0  0  0  0  0  0  0  0  0  0  0
   10.9360   -1.5310   -3.1410 H   0  0  0  0  0  0  0  0  0  0  0  0
   12.0790   -0.2460   -2.8120 H   0  0  0  0  0  0  0  0  0  0  0  0
   11.9050   -1.5600   -1.6520 H   0  0  0  0  0  0  0  0  0  0  0  0
    9.9630   -2.7370   -1.1810 H   0  0  0  0  0  0  0  0  0  0  0  0
    6.4720    0.9040   -2.3140 H   0  0  0  0  0  0  0  0  0  0  0  0
    7.8770    1.6420   -1.5420 H   0  0  0  0  0  0  0  0  0  0  0  0
    8.0690    0.5890   -2.9640 H   0  0  0  0  0  0  0  0  0  0  0  0
    7.4740   -2.4900   -3.0670 H   0  0  0  0  0  0  0  0  0  0  0  0
    1.6120    0.5950    3.0930 H   0  0  0  0  0  0  0  0  0  0  0  0
    1.6730    1.5730    1.6380 H   0  0  0  0  0  0  0  0  0  0  0  0
    2.0160    0.9720   -0.7560 H   0  0  0  0  0  0  0  0  0  0  0  0
    3.4650    1.8240   -0.2440 H   0  0  0  0  0  0  0  0  0  0  0  0
    3.5170    0.7460   -1.6380 H   0  0  0  0  0  0  0  0  0  0  0  0
   -4.2730   -0.7120   -1.5980 H   0  0  0  0  0  0  0  0  0  0  0  0
   -4.2050    0.6670   -0.5040 H   0  0  0  0  0  0  0  0  0  0  0  0
   -2.7280   -0.1170   -1.0180 H   0  0  0  0  0  0  0  0  0  0  0  0
   -6.1030   -2.0870    2.6260 H   0  0  0  0  0  0  0  0  0  0  0  0
  1 84  1  0
  1 82  1  0
  1 83  1  0
  1  2  1  0
  2 12  1  0
  2  3  1  1
  2  4  1  0
  4  9  1  0
  4  6  1  0
  4  5  1  1
  6  7  1  0
  6 86  1  0
  6 85  1  0
  7  8  2  0
  7 87  1  0
  8 27  1  0
  9  8  1  0
  9 10  1  0
  9 23  1  1
 10 11  1  0
 10 89  1  0
 10 88  1  0
 12 11  1  6
 12 18  1  0
 12 13  1  0
 13 15  1  0
 13 14  1  1
 13 22  1  0
 15 17  1  0
 15 16  1  6
 15 21  1  0
 17 20  1  6
 17 19  1  0
 17 18  1  0
 19 91  1  0
 19 90  1  0
 19 92  1  0
 20 94  1  0
 20 95  1  0
 20 93  1  0
 21 97  1  0
 21 98  1  0
 21 96  1  0
 22 99  1  0
 23 25  1  0
 23 24  2  0
 25100  1  0
 25 26  1  0
 25101  1  0
 26 27  1  0
 26 33  1  0
 26 81  1  1
 27 28  1  6
 27 29  1  0
 29103  1  0
 29 30  1  0
 29102  1  0
 30105  1  0
 30104  1  0
 30 31  1  0
 31 37  1  0
 31 33  1  0
 31 32  1  1
 33 80  1  6
 33 34  1  0
 34 35  1  0
 34106  1  0
 34107  1  0
 35 36  2  0
 35 78  1  0
 36 37  1  0
 36 38  1  0
 37109  1  0
 37108  1  0
 38 39  2  0
 39 40  1  0
 39 77  1  0
 40111  1  0
 40 41  1  0
 40110  1  0
 41 79  1  6
 41 48  1  0
 41 42  1  0
 42 76  1  0
 42 44  1  0
 42 43  1  1
 44112  1  0
 44 45  1  0
 44113  1  0
 45 46  1  0
 45114  1  0
 45115  1  0
 46 47  1  6
 46 48  1  0
 46 54  1  0
 48 50  1  0
 48 49  1  1
 50117  1  0
 50116  1  0
 50 51  1  0
 51 75  1  0
 51 53  1  0
 51 52  1  1
 53 74  1  6
 53 58  1  0
 53 54  1  0
 54 55  2  0
 55 56  1  0
 55118  1  0
 56 58  1  0
 56 62  1  0
 56 57  1  1
 58 59  1  0
 58 73  1  6
 59 60  1  6
 59 72  1  0
 59 61  1  0
 61 63  1  0
 61 67  1  1
 61 62  1  0
 63 64  1  6
 63 71  1  0
 63 65  1  0
 65120  1  0
 65 66  1  0
 65119  1  0
 66 67  1  0
 66 69  1  6
 66 68  1  0
 68122  1  0
 68123  1  0
 68121  1  0
 69125  1  0
 69 70  1  0
 69124  1  0
 70126  1  0
 71127  1  0
 72128  1  0
 72129  1  0
 72130  1  0
 73131  1  0
 74134  1  0
 74132  1  0
 74133  1  0
 75135  1  0
 76 77  1  0
 76137  1  0
 76136  1  0
 77 78  2  0
 79140  1  0
 79138  1  0
 79139  1  0
 80141  1  0
 80143  1  0
 80142  1  0
 81144  1  0
M  END
>  <id>  (377) 
479

>  <scaffolds>  (377) 
['O=C1CC2C(CCC3Cc4nc5c(nc4CC32)CC2CCC3C4=CC6OC7(CCCO7)CC6C4CCC3C2C5)C2=CCC3CC4(CCCO4)OCC123', 'C1CCOCC1', 'C1CCCCC1', 'C=C1CCCC2CCCCC12', 'O=C1CC2C(CCC3Cc4nc5c(nc4CC32)CC2CCC3C4=CC6OC7(CCCO7)CC6C4CCC3C2C5)C2=CCC3CCOCC123', 'C1CCC2CCCCC2C1']

>  <name>  (377) 
Cephalostatin 3

>  <formula>  (377) 
C55H76N2O11

>  <SMILES>  (377) 
C[C@H]1[C@H]2CC=C3[C@]2(CO[C@]14[C@@H]([C@@H](C(O4)(C)C)C)O)C(=O)C[C@]5([C@H]3CC[C@@H]6[C@@]5(CC7=C(C6)N=C8C[C@]9([C@@H](CC[C@@H]1[C@@H]9C[C@H]([C@]2(C1=C[C@H]1[C@@]2([C@@H]([C@@]2(O1)[C@@H](C[C@@](O2)(C)CO)O)C)O)C)O)CC8=N7)C)C)O

>  <ChEMBL_id>  (377) 


>  <ZINC_id>  (377) 


>  <PubChem_id>  (377) 


>  <DrugBank_id>  (377) 


>  <CAS_no>  (377) 
116199-49-6

>  <references>  (377) 
[{'journal': {'name': 'Journal of Natural Products', 'id': 5}, 'title': 'Review of Cytotoxic Cephalostatins and Ritterazines: Isolation and Synthesis', 'year': 2008, 'start_page': 487, 'volume': 71, 'issue': 3, 'doi': '10.1021/np070536z', 'isbn': '', 'despositor': {'code': 'TMM', 'first_name': 'Thommas', 'last_name': 'Musyoka', 'id': 22}, 'refauthors_set': [{'author': {'first_name': '', 'initials': 'BR', 'last_name': 'Moser', 'id': 701}, 'first_author': True, 'id': 983}, {'author': {'first_name': 'Amira', 'initials': 'A', 'last_name': 'Rudi', 'id': 534}, 'first_author': False, 'id': 1097}], 'id': 328}, {'journal': {'name': 'Journal of the Chemical Society, Chemical Communications', 'id': 8}, 'title': 'Isolation and Structure of the Hemichordate Cell Growth Inhibitors Cephalostatins 2,  3, and 4', 'year': 1988, 'start_page': 1972, 'volume': None, 'issue': 13, 'doi': '10.1039/C39880000865', 'isbn': '', 'despositor': {'code': 'TMM', 'first_name': 'Thommas', 'last_name': 'Musyoka', 'id': 22}, 'refauthors_set': [{'author': {'first_name': 'George', 'initials': 'GR', 'last_name': 'Pettit', 'id': 478}, 'first_author': True, 'id': 984}, {'author': {'first_name': 'Margaret', 'initials': 'L', 'last_name': 'Niven ', 'id': 702}, 'first_author': None, 'id': 985}, {'author': {'first_name': '', 'initials': 'I', 'last_name': 'Masuo', 'id': 506}, 'first_author': None, 'id': 986}, {'author': {'first_name': '', 'initials': 'Y', 'last_name': 'Kamano', 'id': 507}, 'first_author': None, 'id': 987}, {'author': {'first_name': '', 'initials': 'D', 'last_name': 'Claude', 'id': 510}, 'first_author': None, 'id': 988}, {'author': {'first_name': '', 'initials': 'DC', 'last_name': 'Nigel', 'id': 502}, 'first_author': None, 'id': 989}, {'author': {'first_name': '', 'initials': 'LH', 'last_name': 'Delbert ', 'id': 508}, 'first_author': None, 'id': 990}], 'id': 329}]

>  <classifications>  (377) 
[{'classification': 'Alkaloid', 'id': 738}, {'classification': 'Cephalostatin', 'id': 759}, {'classification': 'Steroid', 'id': 835}, {'classification': 'Steroids and steroid derivatives (Classyfire)', 'id': 942}]

>  <molecular_mass>  (377) 
941.2

$$$$
SANC00480_minRM1.pdb
     RDKit          3D

142155  0  0  1  0  0  0  0  0999 V2000
  -11.9220    0.9800    0.7860 C   0  0  0  0  0  0  0  0  0  0  0  0
  -10.6680    1.3110   -0.0190 C   0  0  1  0  0  0  0  0  0  0  0  0
  -10.8460    2.2920   -0.5510 H   0  0  0  0  0  0  0  0  0  0  0  0
   -9.4560    1.5880    0.9020 C   0  0  1  0  0  0  0  0  0  0  0  0
   -9.5050    2.6940    1.0820 H   0  0  0  0  0  0  0  0  0  0  0  0
   -9.4370    0.8930    2.2810 C   0  0  0  0  0  0  0  0  0  0  0  0
   -8.5080   -0.2940    2.1500 C   0  0  2  0  0  0  0  0  0  0  0  0
   -8.2090   -0.8280    3.0650 H   0  0  0  0  0  0  0  0  0  0  0  0
   -7.6960   -0.1140    0.8980 C   0  0  1  0  0  0  0  0  0  0  0  0
   -8.0980    1.2080    0.2580 C   0  0  1  0  0  0  0  0  0  0  0  0
   -8.2510    1.1230   -1.2580 C   0  0  0  0  0  0  0  0  0  0  0  0
   -9.1320    0.0900   -1.5780 O   0  0  0  0  0  0  0  0  0  0  0  0
  -10.4630    0.2800   -1.1480 C   0  0  2  0  0  0  0  0  0  0  0  0
  -11.2340    0.5910   -2.4880 C   0  0  1  0  0  0  0  0  0  0  0  0
  -10.6340    1.2630   -3.1600 H   0  0  0  0  0  0  0  0  0  0  0  0
  -11.4070   -0.8200   -3.0680 C   0  0  0  0  0  0  0  0  0  0  0  0
  -11.3760   -1.7390   -1.8320 C   0  0  1  0  0  0  0  0  0  0  0  0
  -10.8580   -0.9950   -0.7440 O   0  0  0  0  0  0  0  0  0  0  0  0
  -12.7870   -2.1740   -1.4320 C   0  0  0  0  0  0  0  0  0  0  0  0
  -10.4800   -2.9580   -2.0420 C   0  0  0  0  0  0  0  0  0  0  0  0
  -12.4510    1.1890   -2.1720 O   0  0  0  0  0  0  0  0  0  0  0  0
   -6.9950    2.1980    0.5740 C   0  0  0  0  0  0  0  0  0  0  0  0
   -7.2110    3.3150    1.0010 O   0  0  0  0  0  0  0  0  0  0  0  0
   -5.5840    1.7460    0.2940 C   0  0  0  0  0  0  0  0  0  0  0  0
   -5.2740    0.4190    1.0100 C   0  0  1  0  0  0  0  0  0  0  0  0
   -6.3200   -0.6410    0.6100 C   0  0  1  0  0  0  0  0  0  0  0  0
   -6.2650   -0.8220   -0.4940 H   0  0  0  0  0  0  0  0  0  0  0  0
   -6.0520   -1.9520    1.3450 C   0  0  0  0  0  0  0  0  0  0  0  0
   -4.6570   -2.4550    1.0080 C   0  0  0  0  0  0  0  0  0  0  0  0
   -3.5930   -1.4210    1.3790 C   0  0  2  0  0  0  0  0  0  0  0  0
   -3.6340   -1.2460    2.4860 H   0  0  0  0  0  0  0  0  0  0  0  0
   -3.8360   -0.0830    0.6670 C   0  0  2  0  0  0  0  0  0  0  0  0
   -2.8090    0.9380    1.1820 C   0  0  0  0  0  0  0  0  0  0  0  0
   -1.4140    0.4080    1.1070 C   0  0  0  0  0  0  0  0  0  0  0  0
   -0.4240    1.3340    1.0960 N   0  0  0  0  0  0  0  0  0  0  0  0
    0.8460    0.8710    1.0410 C   0  0  0  0  0  0  0  0  0  0  0  0
    1.1270   -0.5120    0.9990 C   0  0  0  0  0  0  0  0  0  0  0  0
    2.5260   -1.0330    0.9490 C   0  0  0  0  0  0  0  0  0  0  0  0
    3.5110    0.0200    0.4140 C   0  0  1  0  0  0  0  0  0  0  0  0
    3.3110    1.3020    1.2370 C   0  0  2  0  0  0  0  0  0  0  0  0
    3.3920    1.0390    2.3250 H   0  0  0  0  0  0  0  0  0  0  0  0
    1.9260    1.9020    0.9900 C   0  0  0  0  0  0  0  0  0  0  0  0
    4.3700    2.3580    0.9210 C   0  0  0  0  0  0  0  0  0  0  0  0
    5.7670    1.7990    1.1460 C   0  0  0  0  0  0  0  0  0  0  0  0
    5.9810    0.5670    0.2690 C   0  0  2  0  0  0  0  0  0  0  0  0
    5.8800    0.8690   -0.8060 H   0  0  0  0  0  0  0  0  0  0  0  0
    4.9460   -0.5080    0.6310 C   0  0  2  0  0  0  0  0  0  0  0  0
    5.0720   -0.7570    1.7170 H   0  0  0  0  0  0  0  0  0  0  0  0
    5.2000   -1.7750   -0.1870 C   0  0  0  0  0  0  0  0  0  0  0  0
    6.6180   -2.3240    0.0640 C   0  0  2  0  0  0  0  0  0  0  0  0
    6.7190   -2.5950    1.1500 H   0  0  0  0  0  0  0  0  0  0  0  0
    7.6740   -1.2590   -0.3290 C   0  0  1  0  0  0  0  0  0  0  0  0
    7.3370   -0.0130    0.4510 C   0  0  0  0  0  0  0  0  0  0  0  0
    8.3140    0.4020    1.2540 C   0  0  0  0  0  0  0  0  0  0  0  0
    9.4910   -0.5220    1.2240 C   0  0  1  0  0  0  0  0  0  0  0  0
    9.7150   -0.9280    2.2410 H   0  0  0  0  0  0  0  0  0  0  0  0
    9.1340   -1.6010    0.1370 C   0  0  2  0  0  0  0  0  0  0  0  0
   10.2610   -1.4260   -0.9210 C   0  0  1  0  0  0  0  0  0  0  0  0
    9.8540   -1.4190   -1.9620 H   0  0  0  0  0  0  0  0  0  0  0  0
   10.8600   -0.0570   -0.5490 C   0  0  1  0  0  0  0  0  0  0  0  0
   10.6630    0.1410    0.8220 O   0  0  0  0  0  0  0  0  0  0  0  0
   12.3530    0.2290   -0.8620 C   0  0  1  0  0  0  0  0  0  0  0  0
   12.6280   -0.2080   -1.8580 H   0  0  0  0  0  0  0  0  0  0  0  0
   12.3720    1.7670   -0.9330 C   0  0  0  0  0  0  0  0  0  0  0  0
   10.9100    2.1440   -1.2580 C   0  0  1  0  0  0  0  0  0  0  0  0
   10.1450    0.9550   -1.2100 O   0  0  0  0  0  0  0  0  0  0  0  0
   10.3370    3.1440   -0.2620 C   0  0  0  0  0  0  0  0  0  0  0  0
   10.7920    2.6800   -2.7050 C   0  0  0  0  0  0  0  0  0  0  0  0
    9.4590    3.0260   -2.9330 O   0  0  0  0  0  0  0  0  0  0  0  0
   13.1240   -0.3190    0.1570 O   0  0  0  0  0  0  0  0  0  0  0  0
   11.3220   -2.5150   -0.8650 C   0  0  0  0  0  0  0  0  0  0  0  0
    9.0980   -2.8790    0.6750 O   0  0  0  0  0  0  0  0  0  0  0  0
    7.5780   -0.9920   -1.8250 C   0  0  0  0  0  0  0  0  0  0  0  0
    6.7100   -3.4410   -0.7700 O   0  0  0  0  0  0  0  0  0  0  0  0
    3.2240    0.2600   -1.0660 C   0  0  0  0  0  0  0  0  0  0  0  0
    0.1370   -1.4340    1.0180 N   0  0  0  0  0  0  0  0  0  0  0  0
   -1.1370   -0.9700    1.0670 C   0  0  0  0  0  0  0  0  0  0  0  0
   -2.2190   -1.9990    1.0270 C   0  0  0  0  0  0  0  0  0  0  0  0
   -3.6600   -0.2240   -0.8420 C   0  0  0  0  0  0  0  0  0  0  0  0
   -5.4400    0.5910    2.3880 O   0  0  0  0  0  0  0  0  0  0  0  0
   -8.7470   -1.0590    0.9750 O   0  0  0  0  0  0  0  0  0  0  0  0
  -11.7950    0.0980    1.4340 H   0  0  0  0  0  0  0  0  0  0  0  0
  -12.2150    1.8190    1.4350 H   0  0  0  0  0  0  0  0  0  0  0  0
  -12.7970    0.7690    0.1490 H   0  0  0  0  0  0  0  0  0  0  0  0
   -9.0190    1.5870    3.0460 H   0  0  0  0  0  0  0  0  0  0  0  0
  -10.4350    0.6100    2.6660 H   0  0  0  0  0  0  0  0  0  0  0  0
   -8.5650    2.1020   -1.6850 H   0  0  0  0  0  0  0  0  0  0  0  0
   -7.3210    0.8260   -1.7850 H   0  0  0  0  0  0  0  0  0  0  0  0
  -12.3300   -0.9480   -3.6640 H   0  0  0  0  0  0  0  0  0  0  0  0
  -10.5840   -1.0550   -3.7710 H   0  0  0  0  0  0  0  0  0  0  0  0
  -13.2470   -2.8160   -2.2010 H   0  0  0  0  0  0  0  0  0  0  0  0
  -12.7840   -2.7490   -0.4950 H   0  0  0  0  0  0  0  0  0  0  0  0
  -13.4530   -1.3130   -1.2790 H   0  0  0  0  0  0  0  0  0  0  0  0
   -9.4330   -2.6780   -2.2210 H   0  0  0  0  0  0  0  0  0  0  0  0
  -10.4740   -3.6140   -1.1600 H   0  0  0  0  0  0  0  0  0  0  0  0
  -10.8200   -3.5640   -2.8940 H   0  0  0  0  0  0  0  0  0  0  0  0
  -12.9520    1.2780   -2.9980 H   0  0  0  0  0  0  0  0  0  0  0  0
   -5.4310    1.6480   -0.8030 H   0  0  0  0  0  0  0  0  0  0  0  0
   -4.8670    2.5430    0.5920 H   0  0  0  0  0  0  0  0  0  0  0  0
   -6.1640   -1.8360    2.4430 H   0  0  0  0  0  0  0  0  0  0  0  0
   -6.8120   -2.7130    1.0650 H   0  0  0  0  0  0  0  0  0  0  0  0
   -4.4600   -3.4100    1.5430 H   0  0  0  0  0  0  0  0  0  0  0  0
   -4.5990   -2.7330   -0.0660 H   0  0  0  0  0  0  0  0  0  0  0  0
   -2.8820    1.8890    0.6060 H   0  0  0  0  0  0  0  0  0  0  0  0
   -3.0170    1.2330    2.2370 H   0  0  0  0  0  0  0  0  0  0  0  0
    2.8050   -1.3600    1.9760 H   0  0  0  0  0  0  0  0  0  0  0  0
    2.5840   -1.9640    0.3420 H   0  0  0  0  0  0  0  0  0  0  0  0
    1.8770    2.4170    0.0030 H   0  0  0  0  0  0  0  0  0  0  0  0
    1.7250    2.7140    1.7240 H   0  0  0  0  0  0  0  0  0  0  0  0
    4.2710    2.7410   -0.1170 H   0  0  0  0  0  0  0  0  0  0  0  0
    4.2120    3.2580    1.5540 H   0  0  0  0  0  0  0  0  0  0  0  0
    6.5280    2.5760    0.9190 H   0  0  0  0  0  0  0  0  0  0  0  0
    5.9210    1.5570    2.2200 H   0  0  0  0  0  0  0  0  0  0  0  0
    4.4560   -2.5610    0.0630 H   0  0  0  0  0  0  0  0  0  0  0  0
    5.0460   -1.5810   -1.2750 H   0  0  0  0  0  0  0  0  0  0  0  0
    8.3400    1.2830    1.8880 H   0  0  0  0  0  0  0  0  0  0  0  0
   12.7050    2.2180    0.0240 H   0  0  0  0  0  0  0  0  0  0  0  0
   13.0900    2.1480   -1.6800 H   0  0  0  0  0  0  0  0  0  0  0  0
   10.8660    4.1060   -0.3140 H   0  0  0  0  0  0  0  0  0  0  0  0
    9.2720    3.3470   -0.4510 H   0  0  0  0  0  0  0  0  0  0  0  0
   10.4040    2.7850    0.7730 H   0  0  0  0  0  0  0  0  0  0  0  0
   11.4030    3.6050   -2.8170 H   0  0  0  0  0  0  0  0  0  0  0  0
   11.1980    1.9430   -3.4320 H   0  0  0  0  0  0  0  0  0  0  0  0
    9.1680    2.5480   -3.7200 H   0  0  0  0  0  0  0  0  0  0  0  0
   13.9860    0.1070    0.1230 H   0  0  0  0  0  0  0  0  0  0  0  0
   10.8900   -3.5130   -1.0300 H   0  0  0  0  0  0  0  0  0  0  0  0
   12.0800   -2.3890   -1.6510 H   0  0  0  0  0  0  0  0  0  0  0  0
   11.8700   -2.5450    0.0880 H   0  0  0  0  0  0  0  0  0  0  0  0
    9.8870   -3.0200    1.2050 H   0  0  0  0  0  0  0  0  0  0  0  0
    6.5450   -1.0260   -2.1890 H   0  0  0  0  0  0  0  0  0  0  0  0
    7.9690    0.0010   -2.1000 H   0  0  0  0  0  0  0  0  0  0  0  0
    8.1260   -1.7440   -2.4060 H   0  0  0  0  0  0  0  0  0  0  0  0
    7.4700   -3.9610   -0.4880 H   0  0  0  0  0  0  0  0  0  0  0  0
    2.1530    0.3610   -1.2860 H   0  0  0  0  0  0  0  0  0  0  0  0
    3.6990    1.1640   -1.4580 H   0  0  0  0  0  0  0  0  0  0  0  0
    3.5800   -0.5680   -1.6960 H   0  0  0  0  0  0  0  0  0  0  0  0
   -1.9790   -2.8340    1.7220 H   0  0  0  0  0  0  0  0  0  0  0  0
   -2.2210   -2.4750    0.0230 H   0  0  0  0  0  0  0  0  0  0  0  0
   -4.1560   -1.1150   -1.2560 H   0  0  0  0  0  0  0  0  0  0  0  0
   -4.0610    0.6400   -1.3960 H   0  0  0  0  0  0  0  0  0  0  0  0
   -2.6060   -0.3120   -1.1360 H   0  0  0  0  0  0  0  0  0  0  0  0
   -4.7770    1.2210    2.6930 H   0  0  0  0  0  0  0  0  0  0  0  0
  1  2  1  0
  1 84  1  0
  1 82  1  0
  1 83  1  0
  2 13  1  0
  2  3  1  6
  2  4  1  0
  4 10  1  0
  4  5  1  1
  4  6  1  0
  6  7  1  0
  6 86  1  0
  6 85  1  0
  7  9  1  0
  7 81  1  0
  7  8  1  1
  9 10  1  0
  9 26  1  0
  9 81  1  6
 10 11  1  0
 10 22  1  6
 11 88  1  0
 11 87  1  0
 11 12  1  0
 13 12  1  6
 13 14  1  0
 13 18  1  0
 14 15  1  6
 14 16  1  0
 14 21  1  0
 16 90  1  0
 16 89  1  0
 16 17  1  0
 17 20  1  6
 17 19  1  0
 17 18  1  0
 19 91  1  0
 19 93  1  0
 19 92  1  0
 20 96  1  0
 20 94  1  0
 20 95  1  0
 21 97  1  0
 22 24  1  0
 22 23  2  0
 24 98  1  0
 24 99  1  0
 24 25  1  0
 25 26  1  0
 25 32  1  0
 25 80  1  1
 26 27  1  6
 26 28  1  0
 28 29  1  0
 28101  1  0
 28100  1  0
 29103  1  0
 29 30  1  0
 29102  1  0
 30 32  1  0
 30 78  1  0
 30 31  1  1
 32 79  1  6
 32 33  1  0
 33104  1  0
 33 34  1  0
 33105  1  0
 34 77  2  0
 34 35  1  0
 35 36  2  0
 36 42  1  0
 36 37  1  0
 37 38  1  0
 37 76  2  0
 38107  1  0
 38 39  1  0
 38106  1  0
 39 75  1  6
 39 47  1  0
 39 40  1  0
 40 43  1  0
 40 42  1  0
 40 41  1  1
 42108  1  0
 42109  1  0
 43110  1  0
 43 44  1  0
 43111  1  0
 44 45  1  0
 44112  1  0
 44113  1  0
 45 46  1  6
 45 53  1  0
 45 47  1  0
 47 49  1  0
 47 48  1  1
 49115  1  0
 49114  1  0
 49 50  1  0
 50 74  1  0
 50 52  1  0
 50 51  1  1
 52 73  1  6
 52 57  1  0
 52 53  1  0
 53 54  2  0
 54 55  1  0
 54116  1  0
 55 57  1  0
 55 61  1  0
 55 56  1  1
 57 58  1  0
 57 72  1  1
 58 59  1  6
 58 71  1  0
 58 60  1  0
 60 66  1  6
 60 62  1  0
 60 61  1  0
 62 63  1  6
 62 64  1  0
 62 70  1  0
 64118  1  0
 64 65  1  0
 64117  1  0
 65 68  1  6
 65 66  1  0
 65 67  1  0
 67120  1  0
 67119  1  0
 67121  1  0
 68123  1  0
 68 69  1  0
 68122  1  0
 69124  1  0
 70125  1  0
 71127  1  0
 71126  1  0
 71128  1  0
 72129  1  0
 73132  1  0
 73130  1  0
 73131  1  0
 74133  1  0
 75136  1  0
 75135  1  0
 75134  1  0
 76 77  1  0
 77 78  1  0
 78138  1  0
 78137  1  0
 79140  1  0
 79139  1  0
 79141  1  0
 80142  1  0
M  END
>  <id>  (378) 
480

>  <scaffolds>  (378) 
['C1CCOCC1', 'C1CCC(C2CCCC2)CC1', 'C1CCCCC1', 'C=C1CCCC2CCCCC12', 'O=C1CC2C3Cc4nc5c(nc4CC3CCC2C23OC2CC2CC4(CCCO4)OCC123)CC1C(CCC2C3=CC4OC6(CCCO6)CC4C3CCC21)C5', 'C1CCC2CCCCC2C1']

>  <name>  (378) 
Cephalostatin 4

>  <formula>  (378) 
C54H74N2O12

>  <SMILES>  (378) 
C[C@H]1[C@H]2C[C@@H]3[C@]4([C@]2(CO[C@]15[C@@H](CC(O5)(C)C)O)C(=O)C[C@]6([C@H]4CC[C@@H]7[C@@]6(CC8=NC9=C(C[C@]1([C@H](C9)CC[C@@H]2[C@@H]1C[C@H]([C@]1(C2=C[C@H]2[C@@]1([C@@H]([C@@]1(O2)[C@@H](C[C@@](O1)(C)CO)O)C)O)C)O)C)N=C8C7)C)O)O3

>  <ChEMBL_id>  (378) 
CHEMBL404389

>  <ZINC_id>  (378) 


>  <PubChem_id>  (378) 


>  <DrugBank_id>  (378) 


>  <CAS_no>  (378) 
116229-58-4

>  <references>  (378) 
[{'journal': {'name': 'Journal of Natural Products', 'id': 5}, 'title': 'Review of Cytotoxic Cephalostatins and Ritterazines: Isolation and Synthesis', 'year': 2008, 'start_page': 487, 'volume': 71, 'issue': 3, 'doi': '10.1021/np070536z', 'isbn': '', 'despositor': {'code': 'TMM', 'first_name': 'Thommas', 'last_name': 'Musyoka', 'id': 22}, 'refauthors_set': [{'author': {'first_name': '', 'initials': 'BR', 'last_name': 'Moser', 'id': 701}, 'first_author': True, 'id': 983}, {'author': {'first_name': 'Amira', 'initials': 'A', 'last_name': 'Rudi', 'id': 534}, 'first_author': False, 'id': 1097}], 'id': 328}, {'journal': {'name': 'Journal of the Chemical Society, Chemical Communications', 'id': 8}, 'title': 'Isolation and Structure of the Hemichordate Cell Growth Inhibitors Cephalostatins 2,  3, and 4', 'year': 1988, 'start_page': 1972, 'volume': None, 'issue': 13, 'doi': '10.1039/C39880000865', 'isbn': '', 'despositor': {'code': 'TMM', 'first_name': 'Thommas', 'last_name': 'Musyoka', 'id': 22}, 'refauthors_set': [{'author': {'first_name': 'George', 'initials': 'GR', 'last_name': 'Pettit', 'id': 478}, 'first_author': True, 'id': 984}, {'author': {'first_name': 'Margaret', 'initials': 'L', 'last_name': 'Niven ', 'id': 702}, 'first_author': None, 'id': 985}, {'author': {'first_name': '', 'initials': 'I', 'last_name': 'Masuo', 'id': 506}, 'first_author': None, 'id': 986}, {'author': {'first_name': '', 'initials': 'Y', 'last_name': 'Kamano', 'id': 507}, 'first_author': None, 'id': 987}, {'author': {'first_name': '', 'initials': 'D', 'last_name': 'Claude', 'id': 510}, 'first_author': None, 'id': 988}, {'author': {'first_name': '', 'initials': 'DC', 'last_name': 'Nigel', 'id': 502}, 'first_author': None, 'id': 989}, {'author': {'first_name': '', 'initials': 'LH', 'last_name': 'Delbert ', 'id': 508}, 'first_author': None, 'id': 990}], 'id': 329}]

>  <classifications>  (378) 
[{'classification': 'Alkaloid', 'id': 738}, {'classification': 'Cephalostatin', 'id': 759}, {'classification': 'Steroid', 'id': 835}, {'classification': 'Steroids and steroid derivatives (Classyfire)', 'id': 942}]

>  <molecular_mass>  (378) 
943.17

$$$$
SANC00481_minRM1.pdb
     RDKit          3D

143155  0  0  1  0  0  0  0  0999 V2000
  -12.4720   -0.9660   -2.1290 O   0  0  0  0  0  0  0  0  0  0  0  0
  -12.7070   -0.5700   -0.8190 C   0  0  2  0  0  0  0  0  0  0  0  0
  -13.2960   -1.3400   -0.2600 H   0  0  0  0  0  0  0  0  0  0  0  0
  -13.3620    0.8160   -0.6650 C   0  0  0  0  0  0  0  0  0  0  0  0
  -12.6920    1.3830    0.6050 C   0  0  1  0  0  0  0  0  0  0  0  0
  -11.5790    0.5600    0.9020 O   0  0  0  0  0  0  0  0  0  0  0  0
  -11.3140   -0.3000   -0.1740 C   0  0  2  0  0  0  0  0  0  0  0  0
  -10.5770    0.4800   -1.0820 O   0  0  0  0  0  0  0  0  0  0  0  0
   -9.4960   -0.2550   -1.5910 C   0  0  1  0  0  0  0  0  0  0  0  0
   -9.7620   -0.6150   -2.6170 H   0  0  0  0  0  0  0  0  0  0  0  0
   -8.2740    0.6110   -1.6100 C   0  0  0  0  0  0  0  0  0  0  0  0
   -7.3720    0.2100   -0.7140 C   0  0  0  0  0  0  0  0  0  0  0  0
   -6.0250    0.7810   -0.4420 C   0  0  2  0  0  0  0  0  0  0  0  0
   -6.0710    1.2840    0.5600 H   0  0  0  0  0  0  0  0  0  0  0  0
   -5.6290    1.8130   -1.4950 C   0  0  0  0  0  0  0  0  0  0  0  0
   -4.2390    2.3630   -1.2080 C   0  0  0  0  0  0  0  0  0  0  0  0
   -3.2060    1.2380   -1.1590 C   0  0  2  0  0  0  0  0  0  0  0  0
   -3.1760    0.7430   -2.1660 H   0  0  0  0  0  0  0  0  0  0  0  0
   -3.5770    0.1790   -0.1110 C   0  0  2  0  0  0  0  0  0  0  0  0
   -3.4960    0.7330    1.3060 C   0  0  0  0  0  0  0  0  0  0  0  0
   -2.5860   -0.9890   -0.2460 C   0  0  0  0  0  0  0  0  0  0  0  0
   -1.1660   -0.5270   -0.2320 C   0  0  0  0  0  0  0  0  0  0  0  0
   -0.2340   -1.4500    0.1050 N   0  0  0  0  0  0  0  0  0  0  0  0
    1.0630   -1.0590    0.0530 C   0  0  0  0  0  0  0  0  0  0  0  0
    1.4250    0.2390   -0.3580 C   0  0  0  0  0  0  0  0  0  0  0  0
    0.4910    1.1700   -0.6700 N   0  0  0  0  0  0  0  0  0  0  0  0
   -0.8060    0.7870   -0.5950 C   0  0  0  0  0  0  0  0  0  0  0  0
   -1.8280    1.8380   -0.8810 C   0  0  0  0  0  0  0  0  0  0  0  0
    2.8530    0.6540   -0.5080 C   0  0  0  0  0  0  0  0  0  0  0  0
    3.8000   -0.2200    0.3310 C   0  0  1  0  0  0  0  0  0  0  0  0
    3.5740    0.0940    1.8060 C   0  0  0  0  0  0  0  0  0  0  0  0
    3.4880   -1.6910    0.0180 C   0  0  2  0  0  0  0  0  0  0  0  0
    3.5410   -1.8360   -1.0930 H   0  0  0  0  0  0  0  0  0  0  0  0
    2.0800   -2.0640    0.4840 C   0  0  0  0  0  0  0  0  0  0  0  0
    4.4960   -2.6330    0.6760 C   0  0  0  0  0  0  0  0  0  0  0  0
    5.9170   -2.2930    0.2470 C   0  0  0  0  0  0  0  0  0  0  0  0
    6.2400   -0.8480    0.6200 C   0  0  1  0  0  0  0  0  0  0  0  0
    6.1560   -0.7370    1.7310 H   0  0  0  0  0  0  0  0  0  0  0  0
    7.6150   -0.4570    0.2130 C   0  0  0  0  0  0  0  0  0  0  0  0
    8.5140   -1.1770   -0.4600 C   0  0  0  0  0  0  0  0  0  0  0  0
    9.6930   -0.3470   -0.8630 C   0  0  2  0  0  0  0  0  0  0  0  0
    9.7310   -0.2310   -1.9750 H   0  0  0  0  0  0  0  0  0  0  0  0
   10.8920   -0.9490   -0.4380 O   0  0  0  0  0  0  0  0  0  0  0  0
   11.6620   -0.0180    0.2830 C   0  0  2  0  0  0  0  0  0  0  0  0
   12.4080    0.6930   -0.6670 O   0  0  0  0  0  0  0  0  0  0  0  0
   13.3660   -0.0560   -1.3660 C   0  0  0  0  0  0  0  0  0  0  0  0
   14.3780   -0.7070   -0.3950 C   0  0  1  0  0  0  0  0  0  0  0  0
   15.0290    0.2460    0.3930 O   0  0  0  0  0  0  0  0  0  0  0  0
   13.5990   -1.5970    0.5870 C   0  0  0  0  0  0  0  0  0  0  0  0
   12.5320   -0.7730    1.2940 C   0  0  0  0  0  0  0  0  0  0  0  0
   15.4030   -1.5250   -1.1890 C   0  0  0  0  0  0  0  0  0  0  0  0
   10.6640    0.9750    0.9330 C   0  0  2  0  0  0  0  0  0  0  0  0
   10.3040    0.4940    1.8840 H   0  0  0  0  0  0  0  0  0  0  0  0
    9.5050    1.0130   -0.0930 C   0  0  1  0  0  0  0  0  0  0  0  0
    9.5880    2.0970   -0.9540 O   0  0  0  0  0  0  0  0  0  0  0  0
    8.0530    0.9610    0.4870 C   0  0  2  0  0  0  0  0  0  0  0  0
    8.0130    1.2810    1.9730 C   0  0  0  0  0  0  0  0  0  0  0  0
    7.0510    1.8620   -0.2770 C   0  0  2  0  0  0  0  0  0  0  0  0
    7.1460    1.6730   -1.3800 H   0  0  0  0  0  0  0  0  0  0  0  0
    7.2570    3.2030    0.0550 O   0  0  0  0  0  0  0  0  0  0  0  0
    5.6090    1.5500    0.1630 C   0  0  0  0  0  0  0  0  0  0  0  0
    5.2540    0.0870   -0.0970 C   0  0  2  0  0  0  0  0  0  0  0  0
    5.3440   -0.1010   -1.2000 H   0  0  0  0  0  0  0  0  0  0  0  0
   11.2560    2.3300    1.2760 C   0  0  0  0  0  0  0  0  0  0  0  0
   -4.9930   -0.3540   -0.4210 C   0  0  1  0  0  0  0  0  0  0  0  0
   -4.9760   -0.8160   -1.4450 H   0  0  0  0  0  0  0  0  0  0  0  0
   -5.4180   -1.4180    0.5880 C   0  0  0  0  0  0  0  0  0  0  0  0
   -6.7640   -2.0270    0.1580 C   0  0  1  0  0  0  0  0  0  0  0  0
   -6.6270   -2.4720   -0.8650 H   0  0  0  0  0  0  0  0  0  0  0  0
   -7.1470   -2.9780    1.1080 O   0  0  0  0  0  0  0  0  0  0  0  0
   -7.8560   -0.9390    0.1380 C   0  0  1  0  0  0  0  0  0  0  0  0
   -8.1060   -0.3930    1.5410 C   0  0  0  0  0  0  0  0  0  0  0  0
   -9.1790   -1.4030   -0.5700 C   0  0  2  0  0  0  0  0  0  0  0  0
   -8.8890   -2.5960   -1.2190 O   0  0  0  0  0  0  0  0  0  0  0  0
  -10.4590   -1.4920    0.3030 C   0  0  2  0  0  0  0  0  0  0  0  0
  -10.2010   -1.3670    1.3890 H   0  0  0  0  0  0  0  0  0  0  0  0
  -11.1890   -2.8220    0.2060 C   0  0  0  0  0  0  0  0  0  0  0  0
  -12.2090    2.8100    0.4000 C   0  0  0  0  0  0  0  0  0  0  0  0
  -13.6520    1.2770    1.8120 C   0  0  0  0  0  0  0  0  0  0  0  0
  -13.0190    1.8230    2.9270 O   0  0  0  0  0  0  0  0  0  0  0  0
  -13.2970   -0.8540   -2.6160 H   0  0  0  0  0  0  0  0  0  0  0  0
  -13.1670    1.4580   -1.5440 H   0  0  0  0  0  0  0  0  0  0  0  0
  -14.4660    0.7740   -0.5930 H   0  0  0  0  0  0  0  0  0  0  0  0
   -8.2170    1.4400   -2.3090 H   0  0  0  0  0  0  0  0  0  0  0  0
   -5.6730    1.3730   -2.5130 H   0  0  0  0  0  0  0  0  0  0  0  0
   -6.3610    2.6480   -1.5150 H   0  0  0  0  0  0  0  0  0  0  0  0
   -3.9570    3.1030   -1.9880 H   0  0  0  0  0  0  0  0  0  0  0  0
   -4.2440    2.9550   -0.2680 H   0  0  0  0  0  0  0  0  0  0  0  0
   -4.0380    1.6790    1.4350 H   0  0  0  0  0  0  0  0  0  0  0  0
   -3.9150    0.0370    2.0500 H   0  0  0  0  0  0  0  0  0  0  0  0
   -2.4620    0.9240    1.6290 H   0  0  0  0  0  0  0  0  0  0  0  0
   -2.7690   -1.7460    0.5500 H   0  0  0  0  0  0  0  0  0  0  0  0
   -2.7500   -1.5480   -1.1960 H   0  0  0  0  0  0  0  0  0  0  0  0
   -1.5090    2.4710   -1.7400 H   0  0  0  0  0  0  0  0  0  0  0  0
   -1.8550    2.5470   -0.0230 H   0  0  0  0  0  0  0  0  0  0  0  0
    3.1100    0.6060   -1.5900 H   0  0  0  0  0  0  0  0  0  0  0  0
    2.9790    1.7270   -0.2420 H   0  0  0  0  0  0  0  0  0  0  0  0
    2.5150    0.2650    2.0450 H   0  0  0  0  0  0  0  0  0  0  0  0
    3.9080   -0.7050    2.4800 H   0  0  0  0  0  0  0  0  0  0  0  0
    4.1060    1.0060    2.1260 H   0  0  0  0  0  0  0  0  0  0  0  0
    2.0280   -2.1620    1.5920 H   0  0  0  0  0  0  0  0  0  0  0  0
    1.8120   -3.0780    0.1120 H   0  0  0  0  0  0  0  0  0  0  0  0
    4.4140   -2.6060    1.7840 H   0  0  0  0  0  0  0  0  0  0  0  0
    4.2600   -3.6860    0.4140 H   0  0  0  0  0  0  0  0  0  0  0  0
    6.6380   -2.9880    0.7260 H   0  0  0  0  0  0  0  0  0  0  0  0
    6.0410   -2.4640   -0.8430 H   0  0  0  0  0  0  0  0  0  0  0  0
    8.4680   -2.2230   -0.7480 H   0  0  0  0  0  0  0  0  0  0  0  0
   12.9000   -0.8300   -2.0180 H   0  0  0  0  0  0  0  0  0  0  0  0
   13.8340    0.6920   -2.0430 H   0  0  0  0  0  0  0  0  0  0  0  0
   15.4130    0.9060   -0.1930 H   0  0  0  0  0  0  0  0  0  0  0  0
   13.1420   -2.4500    0.0400 H   0  0  0  0  0  0  0  0  0  0  0  0
   14.2840   -2.0630    1.3280 H   0  0  0  0  0  0  0  0  0  0  0  0
   12.9980   -0.0390    1.9870 H   0  0  0  0  0  0  0  0  0  0  0  0
   11.9020   -1.4240    1.9370 H   0  0  0  0  0  0  0  0  0  0  0  0
   15.9430   -0.9130   -1.9270 H   0  0  0  0  0  0  0  0  0  0  0  0
   16.1630   -1.9690   -0.5280 H   0  0  0  0  0  0  0  0  0  0  0  0
   14.9360   -2.3540   -1.7410 H   0  0  0  0  0  0  0  0  0  0  0  0
   10.4720    2.1180   -1.3320 H   0  0  0  0  0  0  0  0  0  0  0  0
    8.3180    2.3170    2.1790 H   0  0  0  0  0  0  0  0  0  0  0  0
    7.0100    1.1750    2.4110 H   0  0  0  0  0  0  0  0  0  0  0  0
    8.6730    0.6240    2.5590 H   0  0  0  0  0  0  0  0  0  0  0  0
    7.8290    3.5880   -0.6300 H   0  0  0  0  0  0  0  0  0  0  0  0
    5.4500    1.8160    1.2310 H   0  0  0  0  0  0  0  0  0  0  0  0
    4.9150    2.2260   -0.3820 H   0  0  0  0  0  0  0  0  0  0  0  0
   11.7770    2.8220    0.4410 H   0  0  0  0  0  0  0  0  0  0  0  0
   10.4790    3.0350    1.6080 H   0  0  0  0  0  0  0  0  0  0  0  0
   11.9920    2.2530    2.0890 H   0  0  0  0  0  0  0  0  0  0  0  0
   -4.6540   -2.2210    0.6720 H   0  0  0  0  0  0  0  0  0  0  0  0
   -5.4820   -0.9970    1.6160 H   0  0  0  0  0  0  0  0  0  0  0  0
   -6.9850   -3.8460    0.7130 H   0  0  0  0  0  0  0  0  0  0  0  0
   -7.1740   -0.1720    2.0790 H   0  0  0  0  0  0  0  0  0  0  0  0
   -8.6900    0.5410    1.5150 H   0  0  0  0  0  0  0  0  0  0  0  0
   -8.6650   -1.1030    2.1730 H   0  0  0  0  0  0  0  0  0  0  0  0
   -9.5930   -2.7770   -1.8510 H   0  0  0  0  0  0  0  0  0  0  0  0
  -10.5190   -3.6650    0.4410 H   0  0  0  0  0  0  0  0  0  0  0  0
  -12.0140   -2.8820    0.9320 H   0  0  0  0  0  0  0  0  0  0  0  0
  -11.6240   -3.0270   -0.7840 H   0  0  0  0  0  0  0  0  0  0  0  0
  -13.0460    3.4790    0.1450 H   0  0  0  0  0  0  0  0  0  0  0  0
  -11.7220    3.2200    1.2980 H   0  0  0  0  0  0  0  0  0  0  0  0
  -11.4660    2.8750   -0.4120 H   0  0  0  0  0  0  0  0  0  0  0  0
  -14.5740    1.8730    1.6200 H   0  0  0  0  0  0  0  0  0  0  0  0
  -13.9880    0.2250    1.9520 H   0  0  0  0  0  0  0  0  0  0  0  0
  -13.0230    1.1530    3.6260 H   0  0  0  0  0  0  0  0  0  0  0  0
  1 81  1  0
  1  2  1  0
  2  4  1  0
  2  3  1  1
  2  7  1  0
  4 82  1  0
  4 83  1  0
  4  5  1  0
  5 78  1  6
  5  6  1  0
  5 79  1  0
  7  6  1  1
  7  8  1  0
  7 75  1  0
  8  9  1  0
  9 10  1  6
  9 11  1  0
  9 73  1  0
 11 84  1  0
 11 12  2  0
 12 13  1  0
 12 71  1  0
 13 15  1  0
 13 65  1  0
 13 14  1  1
 15 85  1  0
 15 86  1  0
 15 16  1  0
 16 87  1  0
 16 17  1  0
 16 88  1  0
 17 18  1  6
 17 28  1  0
 17 19  1  0
 19 65  1  0
 19 21  1  0
 19 20  1  1
 20 89  1  0
 20 91  1  0
 20 90  1  0
 21 93  1  0
 21 22  1  0
 21 92  1  0
 22 27  2  0
 22 23  1  0
 23 24  2  0
 24 25  1  0
 24 34  1  0
 25 26  2  0
 25 29  1  0
 26 27  1  0
 27 28  1  0
 28 94  1  0
 28 95  1  0
 29 96  1  0
 29 97  1  0
 29 30  1  0
 30 62  1  0
 30 32  1  0
 30 31  1  1
 31 98  1  0
 31100  1  0
 31 99  1  0
 32 33  1  6
 32 34  1  0
 32 35  1  0
 34102  1  0
 34101  1  0
 35 36  1  0
 35104  1  0
 35103  1  0
 36106  1  0
 36 37  1  0
 36105  1  0
 37 62  1  0
 37 39  1  0
 37 38  1  1
 39 40  2  0
 39 56  1  0
 40 41  1  0
 40107  1  0
 41 42  1  6
 41 43  1  0
 41 54  1  0
 44 43  1  6
 44 45  1  0
 44 52  1  0
 44 50  1  0
 45 46  1  0
 46109  1  0
 46108  1  0
 46 47  1  0
 47 51  1  0
 47 48  1  1
 47 49  1  0
 48110  1  0
 49111  1  0
 49 50  1  0
 49112  1  0
 50114  1  0
 50113  1  0
 51115  1  0
 51117  1  0
 51116  1  0
 52 54  1  0
 52 64  1  0
 52 53  1  1
 54 55  1  6
 54 56  1  0
 55118  1  0
 56 58  1  0
 56 57  1  1
 57119  1  0
 57120  1  0
 57121  1  0
 58 59  1  6
 58 60  1  0
 58 61  1  0
 60122  1  0
 61124  1  0
 61 62  1  0
 61123  1  0
 62 63  1  6
 64125  1  0
 64126  1  0
 64127  1  0
 65 66  1  6
 65 67  1  0
 67 68  1  0
 67128  1  0
 67129  1  0
 68 69  1  6
 68 71  1  0
 68 70  1  0
 70130  1  0
 71 73  1  0
 71 72  1  1
 72132  1  0
 72131  1  0
 72133  1  0
 73 74  1  6
 73 75  1  0
 74134  1  0
 75 77  1  0
 75 76  1  1
 77137  1  0
 77135  1  0
 77136  1  0
 78140  1  0
 78138  1  0
 78139  1  0
 79141  1  0
 79142  1  0
 79 80  1  0
 80143  1  0
M  END
>  <id>  (379) 
481

>  <scaffolds>  (379) 
['C1CCOCC1', 'C1CCCCC1', 'C=C1CCCC2CCCCC12', 'C1=C2C(CCC3C2CCC2Cc4nc5c(nc4CC23)CC2CCC3C4=CC6OC7(CCCO7)CC6C4CCC3C2C5)C2CC3(CCCCO3)OC12', 'C1CCC2CCCCC2C1']

>  <name>  (379) 
Cephalostatin 7

>  <formula>  (379) 
C54H76N2O11

>  <SMILES>  (379) 
O[C@@H]%13C[C@@](O[C@]%13%12O[C@H]%11/C=C%10/[C@@H]9CC[C@@H]2[C@](C)(Cc1nc3c(nc1C2)C[C@@]8(C)[C@H](C3)CC[C@H]7/C6=C/[C@@H]5O[C@@]4(OC[C@@](O)(CC4)C)[C@H]([C@]5(O)[C@@]6(C)[C@H](O)C[C@@H]78)C)[C@H]9C[C@@H](O)[C@]%10(C)[C@@]%11(O)[C@@H]%12C)(C)CO

>  <ChEMBL_id>  (379) 


>  <ZINC_id>  (379) 


>  <PubChem_id>  (379) 
 9919359

>  <DrugBank_id>  (379) 


>  <CAS_no>  (379) 
138605-82-0

>  <references>  (379) 
[{'journal': {'name': 'Journal of the Chemical Society, Chemical Communications', 'id': 8}, 'title': 'Isolation and Structure of the Hemichordate Cell Growth Inhibitors Cephalostatins 2,  3, and 4', 'year': 1988, 'start_page': 1972, 'volume': None, 'issue': 13, 'doi': '10.1039/C39880000865', 'isbn': '', 'despositor': {'code': 'TMM', 'first_name': 'Thommas', 'last_name': 'Musyoka', 'id': 22}, 'refauthors_set': [{'author': {'first_name': 'George', 'initials': 'GR', 'last_name': 'Pettit', 'id': 478}, 'first_author': True, 'id': 984}, {'author': {'first_name': 'Margaret', 'initials': 'L', 'last_name': 'Niven ', 'id': 702}, 'first_author': None, 'id': 985}, {'author': {'first_name': '', 'initials': 'I', 'last_name': 'Masuo', 'id': 506}, 'first_author': None, 'id': 986}, {'author': {'first_name': '', 'initials': 'Y', 'last_name': 'Kamano', 'id': 507}, 'first_author': None, 'id': 987}, {'author': {'first_name': '', 'initials': 'D', 'last_name': 'Claude', 'id': 510}, 'first_author': None, 'id': 988}, {'author': {'first_name': '', 'initials': 'DC', 'last_name': 'Nigel', 'id': 502}, 'first_author': None, 'id': 989}, {'author': {'first_name': '', 'initials': 'LH', 'last_name': 'Delbert ', 'id': 508}, 'first_author': None, 'id': 990}], 'id': 329}, {'journal': {'name': 'The Journal of Organic Chemistry', 'id': 21}, 'title': 'Antineoplastic agents. 214. Isolation and structure of cephalostatins 7-9', 'year': 1992, 'start_page': 429, 'volume': 57, 'issue': 2, 'doi': '10.1021/jo00028a007', 'isbn': '', 'despositor': {'code': 'TMM', 'first_name': 'Thommas', 'last_name': 'Musyoka', 'id': 22}, 'refauthors_set': [{'author': {'first_name': 'George', 'initials': 'GR', 'last_name': 'Pettit', 'id': 478}, 'first_author': True, 'id': 991}, {'author': {'first_name': '', 'initials': 'Y', 'last_name': 'Kamano', 'id': 507}, 'first_author': None, 'id': 992}, {'author': {'first_name': '', 'initials': 'I', 'last_name': 'Masuo', 'id': 506}, 'first_author': None, 'id': 993}, {'author': {'first_name': '', 'initials': 'D', 'last_name': 'Claude', 'id': 510}, 'first_author': None, 'id': 994}, {'author': {'first_name': 'Michael', 'initials': 'R', 'last_name': 'Boyd', 'id': 683}, 'first_author': None, 'id': 995}, {'author': {'first_name': '', 'initials': 'LH', 'last_name': 'Cherry', 'id': 493}, 'first_author': None, 'id': 996}, {'author': {'first_name': '', 'initials': 'MS', 'last_name': 'Jean', 'id': 499}, 'first_author': None, 'id': 997}, {'author': {'first_name': '', 'initials': 'LD', 'last_name': 'Dennis', 'id': 511}, 'first_author': None, 'id': 998}, {'author': {'first_name': '', 'initials': 'DC', 'last_name': 'Nigel', 'id': 502}, 'first_author': None, 'id': 999}], 'id': 330}]

>  <classifications>  (379) 
[{'classification': 'Alkaloid', 'id': 738}, {'classification': 'Cephalostatin', 'id': 759}, {'classification': 'Pyrazine', 'id': 817}, {'classification': 'Steroid', 'id': 835}, {'classification': 'Steroids and steroid derivatives (Classyfire)', 'id': 942}]

>  <molecular_mass>  (379) 
929.19

$$$$
SANC00482_minRM1.pdb
     RDKit          3D

145157  0  0  1  0  0  0  0  0999 V2000
   11.8910   -3.1120   -0.4980 C   0  0  0  0  0  0  0  0  0  0  0  0
   12.1740   -2.2030    0.6830 C   0  0  2  0  0  0  0  0  0  0  0  0
   12.4300   -2.8550    1.5550 H   0  0  0  0  0  0  0  0  0  0  0  0
   10.9700   -1.3080    0.9880 C   0  0  0  0  0  0  0  0  0  0  0  0
   11.2850   -0.0320    0.1830 C   0  0  2  0  0  0  0  0  0  0  0  0
   10.6600    1.2850    0.7080 C   0  0  2  0  0  0  0  0  0  0  0  0
   10.3910    1.1870    1.7890 H   0  0  0  0  0  0  0  0  0  0  0  0
    9.4330    1.5070   -0.1980 C   0  0  1  0  0  0  0  0  0  0  0  0
    9.4220    2.5640   -0.5540 H   0  0  0  0  0  0  0  0  0  0  0  0
    9.6820    0.5250   -1.3770 C   0  0  1  0  0  0  0  0  0  0  0  0
    9.8000    1.0240   -2.3690 H   0  0  0  0  0  0  0  0  0  0  0  0
   10.8710   -0.1840   -1.1550 O   0  0  0  0  0  0  0  0  0  0  0  0
    8.5100   -0.4150   -1.3630 C   0  0  0  0  0  0  0  0  0  0  0  0
    7.6130   -0.0640   -0.4450 C   0  0  0  0  0  0  0  0  0  0  0  0
    8.0180    1.1450    0.3560 C   0  0  2  0  0  0  0  0  0  0  0  0
    6.9900    2.2340   -0.0290 C   0  0  1  0  0  0  0  0  0  0  0  0
    7.1780    2.5550   -1.0940 H   0  0  0  0  0  0  0  0  0  0  0  0
    5.5170    1.7800    0.0610 C   0  0  0  0  0  0  0  0  0  0  0  0
    5.2380    0.4410   -0.6220 C   0  0  1  0  0  0  0  0  0  0  0  0
    5.3440    0.5930   -1.7290 H   0  0  0  0  0  0  0  0  0  0  0  0
    6.2620   -0.6210   -0.1970 C   0  0  1  0  0  0  0  0  0  0  0  0
    6.1740   -0.8480    0.8980 H   0  0  0  0  0  0  0  0  0  0  0  0
    6.0240   -1.9010   -0.9990 C   0  0  0  0  0  0  0  0  0  0  0  0
    4.6340   -2.4350   -0.6900 C   0  0  0  0  0  0  0  0  0  0  0  0
    3.5740   -1.3950   -1.0540 C   0  0  2  0  0  0  0  0  0  0  0  0
    3.6260   -1.2060   -2.1580 H   0  0  0  0  0  0  0  0  0  0  0  0
    3.8020   -0.0610   -0.3240 C   0  0  2  0  0  0  0  0  0  0  0  0
    2.7920    0.9550   -0.8820 C   0  0  0  0  0  0  0  0  0  0  0  0
    1.3920    0.4320   -0.8190 C   0  0  0  0  0  0  0  0  0  0  0  0
    0.3970    1.3540   -0.8060 N   0  0  0  0  0  0  0  0  0  0  0  0
   -0.8730    0.8820   -0.7550 C   0  0  0  0  0  0  0  0  0  0  0  0
   -1.1450   -0.5020   -0.7420 C   0  0  0  0  0  0  0  0  0  0  0  0
   -2.5390   -1.0360   -0.7380 C   0  0  0  0  0  0  0  0  0  0  0  0
   -3.5290   -0.0140   -0.1590 C   0  0  1  0  0  0  0  0  0  0  0  0
   -3.3440    1.3030   -0.9260 C   0  0  2  0  0  0  0  0  0  0  0  0
   -3.4300    1.0860   -2.0240 H   0  0  0  0  0  0  0  0  0  0  0  0
   -1.9610    1.9040   -0.6620 C   0  0  0  0  0  0  0  0  0  0  0  0
   -4.4170    2.3310   -0.5600 C   0  0  0  0  0  0  0  0  0  0  0  0
   -5.8110    1.7670   -0.8010 C   0  0  0  0  0  0  0  0  0  0  0  0
   -6.0040    0.4980    0.0270 C   0  0  2  0  0  0  0  0  0  0  0  0
   -5.9060    0.7580    1.1120 H   0  0  0  0  0  0  0  0  0  0  0  0
   -4.9590   -0.5460   -0.3960 C   0  0  2  0  0  0  0  0  0  0  0  0
   -5.0910   -0.7340   -1.4950 H   0  0  0  0  0  0  0  0  0  0  0  0
   -5.1890   -1.8630    0.3450 C   0  0  0  0  0  0  0  0  0  0  0  0
   -6.6060   -2.4230    0.0940 C   0  0  2  0  0  0  0  0  0  0  0  0
   -6.7600   -2.6220   -1.0010 H   0  0  0  0  0  0  0  0  0  0  0  0
   -7.6480   -1.3830    0.5870 C   0  0  1  0  0  0  0  0  0  0  0  0
   -7.3350   -0.1240   -0.1850 C   0  0  0  0  0  0  0  0  0  0  0  0
   -8.2540    0.1820   -1.1010 C   0  0  0  0  0  0  0  0  0  0  0  0
   -9.3330   -0.8570   -1.1600 C   0  0  1  0  0  0  0  0  0  0  0  0
   -9.2840   -1.4520   -2.1030 H   0  0  0  0  0  0  0  0  0  0  0  0
   -9.1200   -1.6780    0.1590 C   0  0  2  0  0  0  0  0  0  0  0  0
  -10.2100   -1.0900    1.1060 C   0  0  1  0  0  0  0  0  0  0  0  0
   -9.7310   -0.5120    1.9390 H   0  0  0  0  0  0  0  0  0  0  0  0
  -10.9900   -0.0990    0.2110 C   0  0  1  0  0  0  0  0  0  0  0  0
  -10.6270   -0.3230   -1.1230 O   0  0  0  0  0  0  0  0  0  0  0  0
  -12.5390   -0.0490    0.2810 C   0  0  1  0  0  0  0  0  0  0  0  0
  -12.8900   -0.1920    1.3380 H   0  0  0  0  0  0  0  0  0  0  0  0
  -12.8390    1.3810   -0.2040 C   0  0  0  0  0  0  0  0  0  0  0  0
  -11.5170    2.1450    0.0430 C   0  0  1  0  0  0  0  0  0  0  0  0
  -10.5700    1.2080    0.5140 O   0  0  0  0  0  0  0  0  0  0  0  0
  -10.9900    2.7980   -1.2350 C   0  0  0  0  0  0  0  0  0  0  0  0
  -11.6890    3.1950    1.1690 C   0  0  0  0  0  0  0  0  0  0  0  0
  -10.4960    3.9110    1.3070 O   0  0  0  0  0  0  0  0  0  0  0  0
  -13.0380   -1.0460   -0.5490 O   0  0  0  0  0  0  0  0  0  0  0  0
  -11.0930   -2.1500    1.7350 C   0  0  0  0  0  0  0  0  0  0  0  0
   -9.2400   -3.0410   -0.0510 O   0  0  0  0  0  0  0  0  0  0  0  0
   -7.5060   -1.2230    2.0910 C   0  0  0  0  0  0  0  0  0  0  0  0
   -6.6480   -3.5910    0.8590 O   0  0  0  0  0  0  0  0  0  0  0  0
   -3.2410    0.1610    1.3280 C   0  0  0  0  0  0  0  0  0  0  0  0
   -0.1510   -1.4220   -0.7510 N   0  0  0  0  0  0  0  0  0  0  0  0
    1.1180   -0.9500   -0.7800 C   0  0  0  0  0  0  0  0  0  0  0  0
    2.1980   -1.9780   -0.7270 C   0  0  0  0  0  0  0  0  0  0  0  0
    3.5690   -0.2130    1.1760 C   0  0  0  0  0  0  0  0  0  0  0  0
    7.2210    3.2900    0.8600 O   0  0  0  0  0  0  0  0  0  0  0  0
    8.0650    0.8340    1.8670 C   0  0  0  0  0  0  0  0  0  0  0  0
    6.8490    0.9970    2.5210 O   0  0  0  0  0  0  0  0  0  0  0  0
   11.6290    2.4580    0.5930 C   0  0  0  0  0  0  0  0  0  0  0  0
   12.6820    0.0600    0.0750 O   0  0  0  0  0  0  0  0  0  0  0  0
   13.2940   -1.1610    0.4470 C   0  0  1  0  0  0  0  0  0  0  0  0
   14.0500   -0.8970    1.7580 C   0  0  0  0  0  0  0  0  0  0  0  0
   14.2890   -1.5050   -0.6520 C   0  0  0  0  0  0  0  0  0  0  0  0
   12.7410   -3.7680   -0.7380 H   0  0  0  0  0  0  0  0  0  0  0  0
   11.0340   -3.7670   -0.3080 H   0  0  0  0  0  0  0  0  0  0  0  0
   11.6390   -2.5610   -1.4170 H   0  0  0  0  0  0  0  0  0  0  0  0
    9.9960   -1.7550    0.7100 H   0  0  0  0  0  0  0  0  0  0  0  0
   10.8920   -1.0990    2.0720 H   0  0  0  0  0  0  0  0  0  0  0  0
    8.4790   -1.2480   -2.0600 H   0  0  0  0  0  0  0  0  0  0  0  0
    5.1630    1.7500    1.1210 H   0  0  0  0  0  0  0  0  0  0  0  0
    4.8830    2.5710   -0.3870 H   0  0  0  0  0  0  0  0  0  0  0  0
    6.1350   -1.7200   -2.0890 H   0  0  0  0  0  0  0  0  0  0  0  0
    6.7970   -2.6640   -0.7500 H   0  0  0  0  0  0  0  0  0  0  0  0
    4.4540   -3.3740   -1.2530 H   0  0  0  0  0  0  0  0  0  0  0  0
    4.5620   -2.7370    0.3760 H   0  0  0  0  0  0  0  0  0  0  0  0
    2.8650    1.9240   -0.3430 H   0  0  0  0  0  0  0  0  0  0  0  0
    3.0190    1.2070   -1.9420 H   0  0  0  0  0  0  0  0  0  0  0  0
   -2.8080   -1.3190   -1.7810 H   0  0  0  0  0  0  0  0  0  0  0  0
   -2.5930   -1.9960   -0.1730 H   0  0  0  0  0  0  0  0  0  0  0  0
   -1.9110    2.3880    0.3390 H   0  0  0  0  0  0  0  0  0  0  0  0
   -1.7700    2.7380   -1.3750 H   0  0  0  0  0  0  0  0  0  0  0  0
   -4.3170    2.6720    0.4930 H   0  0  0  0  0  0  0  0  0  0  0  0
   -4.2740    3.2580   -1.1560 H   0  0  0  0  0  0  0  0  0  0  0  0
   -6.5860    2.5200   -0.5460 H   0  0  0  0  0  0  0  0  0  0  0  0
   -5.9600    1.5680   -1.8840 H   0  0  0  0  0  0  0  0  0  0  0  0
   -4.4350   -2.6220    0.0400 H   0  0  0  0  0  0  0  0  0  0  0  0
   -5.0230   -1.7250    1.4420 H   0  0  0  0  0  0  0  0  0  0  0  0
   -8.2860    1.0340   -1.7760 H   0  0  0  0  0  0  0  0  0  0  0  0
  -13.1230    1.3960   -1.2740 H   0  0  0  0  0  0  0  0  0  0  0  0
  -13.6980    1.8300    0.3190 H   0  0  0  0  0  0  0  0  0  0  0  0
  -11.7020    3.5390   -1.6210 H   0  0  0  0  0  0  0  0  0  0  0  0
  -10.0230    3.3040   -1.0710 H   0  0  0  0  0  0  0  0  0  0  0  0
  -10.8180    2.0690   -2.0420 H   0  0  0  0  0  0  0  0  0  0  0  0
  -12.4820    3.9260    0.8890 H   0  0  0  0  0  0  0  0  0  0  0  0
  -12.0290    2.7040    2.1090 H   0  0  0  0  0  0  0  0  0  0  0  0
  -10.1640    3.7840    2.2070 H   0  0  0  0  0  0  0  0  0  0  0  0
  -13.9740   -0.8760   -0.6720 H   0  0  0  0  0  0  0  0  0  0  0  0
  -10.4920   -2.9410    2.2110 H   0  0  0  0  0  0  0  0  0  0  0  0
  -11.7320   -1.7390    2.5280 H   0  0  0  0  0  0  0  0  0  0  0  0
  -11.7640   -2.6480    1.0230 H   0  0  0  0  0  0  0  0  0  0  0  0
  -10.0890   -3.2010   -0.4810 H   0  0  0  0  0  0  0  0  0  0  0  0
   -6.4540   -1.1310    2.4070 H   0  0  0  0  0  0  0  0  0  0  0  0
   -8.0400   -0.3370    2.4720 H   0  0  0  0  0  0  0  0  0  0  0  0
   -7.9040   -2.1010    2.6230 H   0  0  0  0  0  0  0  0  0  0  0  0
   -7.3380   -4.1640    0.4930 H   0  0  0  0  0  0  0  0  0  0  0  0
   -2.1690    0.2690    1.5470 H   0  0  0  0  0  0  0  0  0  0  0  0
   -3.7270    1.0460    1.7630 H   0  0  0  0  0  0  0  0  0  0  0  0
   -3.5850   -0.7020    1.9240 H   0  0  0  0  0  0  0  0  0  0  0  0
    1.9680   -2.8190   -1.4200 H   0  0  0  0  0  0  0  0  0  0  0  0
    2.1830   -2.4490    0.2830 H   0  0  0  0  0  0  0  0  0  0  0  0
    3.9760   -1.1470    1.5860 H   0  0  0  0  0  0  0  0  0  0  0  0
    4.0340    0.6010    1.7570 H   0  0  0  0  0  0  0  0  0  0  0  0
    2.5050   -0.2030    1.4490 H   0  0  0  0  0  0  0  0  0  0  0  0
    6.6530    4.0230    0.6120 H   0  0  0  0  0  0  0  0  0  0  0  0
    8.3210   -0.2410    2.0220 H   0  0  0  0  0  0  0  0  0  0  0  0
    8.8760    1.4310    2.3590 H   0  0  0  0  0  0  0  0  0  0  0  0
    6.8120    1.9180    2.8540 H   0  0  0  0  0  0  0  0  0  0  0  0
   11.9940    2.6030   -0.4340 H   0  0  0  0  0  0  0  0  0  0  0  0
   11.1660    3.4040    0.9090 H   0  0  0  0  0  0  0  0  0  0  0  0
   12.5180    2.3200    1.2260 H   0  0  0  0  0  0  0  0  0  0  0  0
   13.3580   -0.6730    2.5910 H   0  0  0  0  0  0  0  0  0  0  0  0
   14.6490   -1.7690    2.0640 H   0  0  0  0  0  0  0  0  0  0  0  0
   14.7390   -0.0410    1.6730 H   0  0  0  0  0  0  0  0  0  0  0  0
   15.0730   -0.7390   -0.7360 H   0  0  0  0  0  0  0  0  0  0  0  0
   14.7870   -2.4640   -0.4600 H   0  0  0  0  0  0  0  0  0  0  0  0
   13.8220   -1.5660   -1.6470 H   0  0  0  0  0  0  0  0  0  0  0  0
  1 85  1  0
  1 83  1  0
  1 84  1  0
  1  2  1  0
  2 80  1  0
  2  4  1  0
  2  3  1  1
  4  5  1  0
  4 86  1  0
  4 87  1  0
  5 12  1  6
  5 79  1  0
  5  6  1  0
  6  8  1  0
  6 78  1  0
  6  7  1  1
  8 10  1  0
  8  9  1  6
  8 15  1  0
 10 11  1  6
 10 13  1  0
 10 12  1  0
 13 88  1  0
 13 14  2  0
 14 21  1  0
 14 15  1  0
 15 16  1  0
 15 76  1  1
 16 17  1  6
 16 18  1  0
 16 75  1  0
 18 19  1  0
 18 90  1  0
 18 89  1  0
 19 20  1  6
 19 27  1  0
 19 21  1  0
 21 23  1  0
 21 22  1  1
 23 91  1  0
 23 92  1  0
 23 24  1  0
 24 93  1  0
 24 25  1  0
 24 94  1  0
 25 26  1  6
 25 73  1  0
 25 27  1  0
 27 28  1  0
 27 74  1  1
 28 96  1  0
 28 29  1  0
 28 95  1  0
 29 30  2  0
 29 72  1  0
 30 31  1  0
 31 32  2  0
 31 37  1  0
 32 71  1  0
 32 33  1  0
 33 97  1  0
 33 98  1  0
 33 34  1  0
 34 35  1  0
 34 42  1  0
 34 70  1  1
 35 36  1  6
 35 37  1  0
 35 38  1  0
 37100  1  0
 37 99  1  0
 38102  1  0
 38 39  1  0
 38101  1  0
 39104  1  0
 39103  1  0
 39 40  1  0
 40 42  1  0
 40 48  1  0
 40 41  1  1
 42 43  1  6
 42 44  1  0
 44105  1  0
 44 45  1  0
 44106  1  0
 45 46  1  6
 45 47  1  0
 45 69  1  0
 47 48  1  0
 47 52  1  0
 47 68  1  1
 48 49  2  0
 49107  1  0
 49 50  1  0
 50 51  1  6
 50 56  1  0
 50 52  1  0
 52 67  1  6
 52 53  1  0
 53 55  1  0
 53 66  1  0
 53 54  1  1
 55 56  1  6
 55 57  1  0
 55 61  1  0
 57 65  1  0
 57 59  1  0
 57 58  1  1
 59108  1  0
 59 60  1  0
 59109  1  0
 60 62  1  6
 60 61  1  0
 60 63  1  0
 62112  1  0
 62110  1  0
 62111  1  0
 63113  1  0
 63 64  1  0
 63114  1  0
 64115  1  0
 65116  1  0
 66119  1  0
 66117  1  0
 66118  1  0
 67120  1  0
 68121  1  0
 68122  1  0
 68123  1  0
 69124  1  0
 70125  1  0
 70126  1  0
 70127  1  0
 71 72  2  0
 72 73  1  0
 73128  1  0
 73129  1  0
 74132  1  0
 74130  1  0
 74131  1  0
 75133  1  0
 76134  1  0
 76135  1  0
 76 77  1  0
 77136  1  0
 78137  1  0
 78138  1  0
 78139  1  0
 79 80  1  0
 80 82  1  6
 80 81  1  0
 81142  1  0
 81141  1  0
 81140  1  0
 82145  1  0
 82143  1  0
 82144  1  0
M  END
>  <id>  (380) 
482

>  <scaffolds>  (380) 
['C1=C2C(CCC3C2CCC2Cc4nc5c(nc4CC23)CC2CCC3C4=CC6OC7(CCCO7)CC6C4CCC3C2C5)C2CC3(CCCO3)OC12', 'C1CCCCC1', 'C=C1CCCC2CCCCC12', 'C1CCC2CCCCC2C1']

>  <name>  (380) 
Cephalostatin 8

>  <formula>  (380) 
C55H78N2O10

>  <SMILES>  (380) 
C[C@@H]1C[C@@]2([C@H]([C@H]3[C@@H](O2)C=C4[C@@]3([C@@H](C[C@H]5[C@H]4CC[C@@H]6[C@@]5(CC7=NC8=C(C[C@]9([C@H](C8)CC[C@@H]2[C@@H]9C[C@H]([C@]3(C2=C[C@H]2[C@@]3([C@@H]([C@@]3(O2)[C@@H](C[C@@](O3)(C)CO)O)C)O)C)O)C)N=C7C6)C)O)CO)C)OC1(C)C

>  <ChEMBL_id>  (380) 
CHEMBL255256

>  <ZINC_id>  (380) 


>  <PubChem_id>  (380) 


>  <DrugBank_id>  (380) 


>  <CAS_no>  (380) 
138605-83-1

>  <references>  (380) 
[{'journal': {'name': 'The Journal of Organic Chemistry', 'id': 21}, 'title': 'Antineoplastic agents. 214. Isolation and structure of cephalostatins 7-9', 'year': 1992, 'start_page': 429, 'volume': 57, 'issue': 2, 'doi': '10.1021/jo00028a007', 'isbn': '', 'despositor': {'code': 'TMM', 'first_name': 'Thommas', 'last_name': 'Musyoka', 'id': 22}, 'refauthors_set': [{'author': {'first_name': 'George', 'initials': 'GR', 'last_name': 'Pettit', 'id': 478}, 'first_author': True, 'id': 991}, {'author': {'first_name': '', 'initials': 'Y', 'last_name': 'Kamano', 'id': 507}, 'first_author': None, 'id': 992}, {'author': {'first_name': '', 'initials': 'I', 'last_name': 'Masuo', 'id': 506}, 'first_author': None, 'id': 993}, {'author': {'first_name': '', 'initials': 'D', 'last_name': 'Claude', 'id': 510}, 'first_author': None, 'id': 994}, {'author': {'first_name': 'Michael', 'initials': 'R', 'last_name': 'Boyd', 'id': 683}, 'first_author': None, 'id': 995}, {'author': {'first_name': '', 'initials': 'LH', 'last_name': 'Cherry', 'id': 493}, 'first_author': None, 'id': 996}, {'author': {'first_name': '', 'initials': 'MS', 'last_name': 'Jean', 'id': 499}, 'first_author': None, 'id': 997}, {'author': {'first_name': '', 'initials': 'LD', 'last_name': 'Dennis', 'id': 511}, 'first_author': None, 'id': 998}, {'author': {'first_name': '', 'initials': 'DC', 'last_name': 'Nigel', 'id': 502}, 'first_author': None, 'id': 999}], 'id': 330}]

>  <classifications>  (380) 
[{'classification': 'Alkaloid', 'id': 738}, {'classification': 'Cephalostatin', 'id': 759}, {'classification': 'Pyrazine', 'id': 817}, {'classification': 'Steroid', 'id': 835}, {'classification': 'Steroids and steroid derivatives (Classyfire)', 'id': 942}]

>  <molecular_mass>  (380) 
927.21

$$$$
SANC00483_minRM1.pdb
     RDKit          3D

143154  0  0  1  0  0  0  0  0999 V2000
   12.8150   -3.9230   -2.9710 C   0  0  0  0  0  0  0  0  0  0  0  0
   12.5810   -3.4990   -1.5130 C   0  0  1  0  0  0  0  0  0  0  0  0
   11.7380   -4.5600   -0.8000 C   0  0  0  0  0  0  0  0  0  0  0  0
   13.8600   -3.4100   -0.9660 O   0  0  0  0  0  0  0  0  0  0  0  0
   11.8740   -2.1260   -1.4890 C   0  0  0  0  0  0  0  0  0  0  0  0
   11.6130   -1.6270   -0.0600 C   0  0  1  0  0  0  0  0  0  0  0  0
   11.1950   -2.4680    0.5560 H   0  0  0  0  0  0  0  0  0  0  0  0
   12.7950   -1.2780    0.5830 O   0  0  0  0  0  0  0  0  0  0  0  0
   10.6400   -0.3960   -0.0210 C   0  0  1  0  0  0  0  0  0  0  0  0
   11.1230    0.6210   -0.8400 O   0  0  0  0  0  0  0  0  0  0  0  0
    9.4240   -0.8660   -0.5280 O   0  0  0  0  0  0  0  0  0  0  0  0
    8.4190    0.0950   -0.6830 C   0  0  0  0  0  0  0  0  0  0  0  0
    8.0620    0.8200    0.6210 C   0  0  2  0  0  0  0  0  0  0  0  0
    7.4780    2.1630    0.2560 C   0  0  0  0  0  0  0  0  0  0  0  0
    8.3590    3.1460    0.4520 C   0  0  0  0  0  0  0  0  0  0  0  0
    9.6560    2.6250    0.9880 C   0  0  0  0  0  0  0  0  0  0  0  0
    9.3070    1.1960    1.4560 C   0  0  2  0  0  0  0  0  0  0  0  0
    8.9890    1.2840    2.5290 H   0  0  0  0  0  0  0  0  0  0  0  0
   10.4800    0.2180    1.3880 C   0  0  1  0  0  0  0  0  0  0  0  0
   11.4200    0.7790    1.6370 H   0  0  0  0  0  0  0  0  0  0  0  0
   10.3010   -0.8860    2.4280 C   0  0  0  0  0  0  0  0  0  0  0  0
    6.1060    2.2210   -0.3060 C   0  0  2  0  0  0  0  0  0  0  0  0
    6.1380    1.7210   -1.3110 H   0  0  0  0  0  0  0  0  0  0  0  0
    5.6390    3.6660   -0.4750 C   0  0  0  0  0  0  0  0  0  0  0  0
    4.2330    3.6970   -1.0530 C   0  0  0  0  0  0  0  0  0  0  0  0
    3.2570    2.9440   -0.1510 C   0  0  1  0  0  0  0  0  0  0  0  0
    3.2240    3.4550    0.8480 H   0  0  0  0  0  0  0  0  0  0  0  0
    1.8630    3.0100   -0.7780 C   0  0  0  0  0  0  0  0  0  0  0  0
    0.8960    2.1040   -0.0900 C   0  0  0  0  0  0  0  0  0  0  0  0
   -0.4150    2.2980   -0.3750 N   0  0  0  0  0  0  0  0  0  0  0  0
   -1.3000    1.4530    0.2070 C   0  0  0  0  0  0  0  0  0  0  0  0
   -2.7420    1.6850   -0.1040 C   0  0  0  0  0  0  0  0  0  0  0  0
   -3.5990    0.4380    0.1750 C   0  0  2  0  0  0  0  0  0  0  0  0
   -3.2490   -0.6450   -0.8440 C   0  0  0  0  0  0  0  0  0  0  0  0
   -5.0860    0.8450    0.0810 C   0  0  1  0  0  0  0  0  0  0  0  0
   -5.2660    1.6950    0.7920 H   0  0  0  0  0  0  0  0  0  0  0  0
   -5.4450    1.3180   -1.3270 C   0  0  0  0  0  0  0  0  0  0  0  0
   -6.9190    1.7570   -1.4060 C   0  0  1  0  0  0  0  0  0  0  0  0
   -7.0830    2.6090   -0.6910 H   0  0  0  0  0  0  0  0  0  0  0  0
   -7.1350    2.1190   -2.7380 O   0  0  0  0  0  0  0  0  0  0  0  0
   -7.8400    0.5660   -1.0380 C   0  0  1  0  0  0  0  0  0  0  0  0
   -7.6450   -0.5570   -2.0490 C   0  0  0  0  0  0  0  0  0  0  0  0
   -7.4100    0.1100    0.3340 C   0  0  0  0  0  0  0  0  0  0  0  0
   -8.3720    0.1870    1.2510 C   0  0  0  0  0  0  0  0  0  0  0  0
   -9.6260    0.7920    0.6960 C   0  0  2  0  0  0  0  0  0  0  0  0
   -9.8980    1.7300    1.2380 H   0  0  0  0  0  0  0  0  0  0  0  0
  -10.7340   -0.0580    0.8410 O   0  0  0  0  0  0  0  0  0  0  0  0
  -10.8910   -0.8130   -0.3260 C   0  0  1  0  0  0  0  0  0  0  0  0
  -10.0510   -1.9290   -0.2010 O   0  0  0  0  0  0  0  0  0  0  0  0
  -10.7170   -2.9550    0.5050 C   0  0  2  0  0  0  0  0  0  0  0  0
  -10.4080   -2.8510    1.9930 C   0  0  0  0  0  0  0  0  0  0  0  0
  -10.1980   -4.2910   -0.0780 C   0  0  0  0  0  0  0  0  0  0  0  0
   -8.8870   -4.4830    0.3600 O   0  0  0  0  0  0  0  0  0  0  0  0
  -12.2220   -2.7740    0.2230 C   0  0  0  0  0  0  0  0  0  0  0  0
  -12.3410   -1.3650   -0.3890 C   0  0  1  0  0  0  0  0  0  0  0  0
  -12.6820   -1.4280   -1.4590 H   0  0  0  0  0  0  0  0  0  0  0  0
  -13.1470   -0.4960    0.3370 O   0  0  0  0  0  0  0  0  0  0  0  0
  -10.4060    0.0570   -1.5050 C   0  0  1  0  0  0  0  0  0  0  0  0
   -9.9690   -0.5740   -2.3180 H   0  0  0  0  0  0  0  0  0  0  0  0
  -11.5770    0.8190   -2.1060 C   0  0  0  0  0  0  0  0  0  0  0  0
   -9.3410    0.9720   -0.8410 C   0  0  2  0  0  0  0  0  0  0  0  0
   -9.4520    2.2980   -1.2340 O   0  0  0  0  0  0  0  0  0  0  0  0
   -5.9970   -0.3190    0.5020 C   0  0  2  0  0  0  0  0  0  0  0  0
   -5.8290   -1.2100   -0.1580 H   0  0  0  0  0  0  0  0  0  0  0  0
   -5.6830   -0.7070    1.9450 C   0  0  0  0  0  0  0  0  0  0  0  0
   -4.2280   -1.1420    2.0620 C   0  0  0  0  0  0  0  0  0  0  0  0
   -3.2870   -0.0280    1.6050 C   0  0  1  0  0  0  0  0  0  0  0  0
   -3.4140    0.8470    2.2980 H   0  0  0  0  0  0  0  0  0  0  0  0
   -1.8420   -0.5240    1.7100 C   0  0  0  0  0  0  0  0  0  0  0  0
   -0.8770    0.4270    1.0800 C   0  0  0  0  0  0  0  0  0  0  0  0
    0.4320    0.2370    1.3670 N   0  0  0  0  0  0  0  0  0  0  0  0
    1.3190    1.0760    0.7750 C   0  0  0  0  0  0  0  0  0  0  0  0
    2.7600    0.8640    1.1110 C   0  0  0  0  0  0  0  0  0  0  0  0
    3.6990    1.4880    0.0630 C   0  0  1  0  0  0  0  0  0  0  0  0
    3.5960    0.6960   -1.2370 C   0  0  0  0  0  0  0  0  0  0  0  0
    5.1410    1.4710    0.6230 C   0  0  1  0  0  0  0  0  0  0  0  0
    5.1430    1.9900    1.6190 H   0  0  0  0  0  0  0  0  0  0  0  0
    5.6330    0.0380    0.8340 C   0  0  0  0  0  0  0  0  0  0  0  0
    7.0340    0.0280    1.3920 C   0  0  0  0  0  0  0  0  0  0  0  0
    7.2980   -0.5900    2.4030 O   0  0  0  0  0  0  0  0  0  0  0  0
   11.8720   -3.9980   -3.5270 H   0  0  0  0  0  0  0  0  0  0  0  0
   13.4550   -3.2170   -3.5130 H   0  0  0  0  0  0  0  0  0  0  0  0
   13.3060   -4.9040   -3.0360 H   0  0  0  0  0  0  0  0  0  0  0  0
   12.2470   -5.5350   -0.7790 H   0  0  0  0  0  0  0  0  0  0  0  0
   11.5140   -4.2960    0.2450 H   0  0  0  0  0  0  0  0  0  0  0  0
   10.7720   -4.7130   -1.2990 H   0  0  0  0  0  0  0  0  0  0  0  0
   13.7870   -3.3060   -0.0120 H   0  0  0  0  0  0  0  0  0  0  0  0
   12.4920   -1.4010   -2.0600 H   0  0  0  0  0  0  0  0  0  0  0  0
   10.9190   -2.2080   -2.0460 H   0  0  0  0  0  0  0  0  0  0  0  0
   13.2060   -0.5480    0.1030 H   0  0  0  0  0  0  0  0  0  0  0  0
   11.1060    0.3410   -1.7620 H   0  0  0  0  0  0  0  0  0  0  0  0
    8.6810    0.8340   -1.4770 H   0  0  0  0  0  0  0  0  0  0  0  0
    7.5750   -0.5000   -1.0930 H   0  0  0  0  0  0  0  0  0  0  0  0
    8.2330    4.2090    0.2660 H   0  0  0  0  0  0  0  0  0  0  0  0
   10.4390    2.6630    0.2060 H   0  0  0  0  0  0  0  0  0  0  0  0
   10.0550    3.2460    1.8130 H   0  0  0  0  0  0  0  0  0  0  0  0
    9.5440   -1.6290    2.1370 H   0  0  0  0  0  0  0  0  0  0  0  0
   11.2380   -1.4260    2.6390 H   0  0  0  0  0  0  0  0  0  0  0  0
    9.9770   -0.4870    3.4050 H   0  0  0  0  0  0  0  0  0  0  0  0
    5.6790    4.2100    0.4920 H   0  0  0  0  0  0  0  0  0  0  0  0
    6.3300    4.2230   -1.1420 H   0  0  0  0  0  0  0  0  0  0  0  0
    3.8990    4.7490   -1.1870 H   0  0  0  0  0  0  0  0  0  0  0  0
    4.2340    3.2790   -2.0840 H   0  0  0  0  0  0  0  0  0  0  0  0
    1.4910    4.0600   -0.7630 H   0  0  0  0  0  0  0  0  0  0  0  0
    1.8890    2.7470   -1.8590 H   0  0  0  0  0  0  0  0  0  0  0  0
   -3.0890    2.5550    0.4990 H   0  0  0  0  0  0  0  0  0  0  0  0
   -2.8670    2.0170   -1.1590 H   0  0  0  0  0  0  0  0  0  0  0  0
   -2.1730   -0.6880   -1.0660 H   0  0  0  0  0  0  0  0  0  0  0  0
   -3.5280   -1.6560   -0.5180 H   0  0  0  0  0  0  0  0  0  0  0  0
   -3.7490   -0.4870   -1.8140 H   0  0  0  0  0  0  0  0  0  0  0  0
   -4.7950    2.1620   -1.6430 H   0  0  0  0  0  0  0  0  0  0  0  0
   -5.2440    0.5180   -2.0790 H   0  0  0  0  0  0  0  0  0  0  0  0
   -7.7260    2.8870   -2.7450 H   0  0  0  0  0  0  0  0  0  0  0  0
   -6.6110   -0.6010   -2.4380 H   0  0  0  0  0  0  0  0  0  0  0  0
   -7.8690   -1.5480   -1.6220 H   0  0  0  0  0  0  0  0  0  0  0  0
   -8.2880   -0.4280   -2.9390 H   0  0  0  0  0  0  0  0  0  0  0  0
   -8.3440   -0.1230    2.2920 H   0  0  0  0  0  0  0  0  0  0  0  0
  -10.9070   -1.9980    2.4740 H   0  0  0  0  0  0  0  0  0  0  0  0
  -10.7130   -3.7580    2.5310 H   0  0  0  0  0  0  0  0  0  0  0  0
   -9.3280   -2.7160    2.1680 H   0  0  0  0  0  0  0  0  0  0  0  0
  -10.8110   -5.1370    0.3060 H   0  0  0  0  0  0  0  0  0  0  0  0
  -10.3000   -4.3060   -1.1850 H   0  0  0  0  0  0  0  0  0  0  0  0
   -8.3210   -4.5920   -0.4130 H   0  0  0  0  0  0  0  0  0  0  0  0
  -12.6090   -3.5390   -0.4710 H   0  0  0  0  0  0  0  0  0  0  0  0
  -12.8300   -2.9010    1.1370 H   0  0  0  0  0  0  0  0  0  0  0  0
  -14.0210   -0.8940    0.3900 H   0  0  0  0  0  0  0  0  0  0  0  0
  -12.1760    1.3510   -1.3520 H   0  0  0  0  0  0  0  0  0  0  0  0
  -11.2540    1.5500   -2.8630 H   0  0  0  0  0  0  0  0  0  0  0  0
  -12.2740    0.1420   -2.6270 H   0  0  0  0  0  0  0  0  0  0  0  0
  -10.2880    2.6510   -0.9150 H   0  0  0  0  0  0  0  0  0  0  0  0
   -5.8940    0.1330    2.6410 H   0  0  0  0  0  0  0  0  0  0  0  0
   -6.3520   -1.5280    2.2820 H   0  0  0  0  0  0  0  0  0  0  0  0
   -4.0000   -1.4240    3.1140 H   0  0  0  0  0  0  0  0  0  0  0  0
   -4.0610   -2.0800    1.4900 H   0  0  0  0  0  0  0  0  0  0  0  0
   -1.5780   -0.6950    2.7770 H   0  0  0  0  0  0  0  0  0  0  0  0
   -1.7170   -1.5210    1.2320 H   0  0  0  0  0  0  0  0  0  0  0  0
    2.9460    1.2880    2.1230 H   0  0  0  0  0  0  0  0  0  0  0  0
    2.9690   -0.2240    1.2250 H   0  0  0  0  0  0  0  0  0  0  0  0
    2.5640    0.3920   -1.4690 H   0  0  0  0  0  0  0  0  0  0  0  0
    3.9480    1.2580   -2.1140 H   0  0  0  0  0  0  0  0  0  0  0  0
    4.1850   -0.2360   -1.2120 H   0  0  0  0  0  0  0  0  0  0  0  0
    4.9520   -0.5200    1.5140 H   0  0  0  0  0  0  0  0  0  0  0  0
    5.6000   -0.5440   -0.1140 H   0  0  0  0  0  0  0  0  0  0  0  0
  1 81  1  0
  1 82  1  0
  1 83  1  0
  1  2  1  0
  2  5  1  0
  2  4  1  1
  2  3  1  0
  3 86  1  0
  3 84  1  0
  3 85  1  0
  4 87  1  0
  5 88  1  0
  5 89  1  0
  5  6  1  0
  6  9  1  0
  6  7  1  1
  6  8  1  0
  8 90  1  0
  9 10  1  6
  9 11  1  0
  9 19  1  0
 10 91  1  0
 11 12  1  0
 12 92  1  0
 12 93  1  0
 12 13  1  0
 13 14  1  0
 13 79  1  1
 13 17  1  0
 14 22  1  0
 14 15  2  0
 15 94  1  0
 15 16  1  0
 16 95  1  0
 16 17  1  0
 16 96  1  0
 17 19  1  0
 17 18  1  1
 19 20  1  1
 19 21  1  0
 21 97  1  0
 21 98  1  0
 21 99  1  0
 22 23  1  6
 22 24  1  0
 22 76  1  0
 24101  1  0
 24 25  1  0
 24100  1  0
 25103  1  0
 25102  1  0
 25 26  1  0
 26 28  1  0
 26 74  1  0
 26 27  1  1
 28105  1  0
 28104  1  0
 28 29  1  0
 29 30  2  0
 29 72  1  0
 30 31  1  0
 31 32  1  0
 31 70  2  0
 32107  1  0
 32 33  1  0
 32106  1  0
 33 34  1  6
 33 35  1  0
 33 67  1  0
 34110  1  0
 34108  1  0
 34109  1  0
 35 37  1  0
 35 63  1  0
 35 36  1  1
 37112  1  0
 37111  1  0
 37 38  1  0
 38 40  1  0
 38 41  1  0
 38 39  1  1
 40113  1  0
 41 42  1  6
 41 61  1  0
 41 43  1  0
 42116  1  0
 42114  1  0
 42115  1  0
 43 63  1  0
 43 44  2  0
 44 45  1  0
 44117  1  0
 45 61  1  0
 45 47  1  0
 45 46  1  1
 48 47  1  1
 48 58  1  0
 48 55  1  0
 48 49  1  0
 49 50  1  0
 50 52  1  6
 50 54  1  0
 50 51  1  0
 51120  1  0
 51118  1  0
 51119  1  0
 52122  1  0
 52121  1  0
 52 53  1  0
 53123  1  0
 54124  1  0
 54 55  1  0
 54125  1  0
 55 56  1  6
 55 57  1  0
 57126  1  0
 58 59  1  6
 58 60  1  0
 58 61  1  0
 60128  1  0
 60129  1  0
 60127  1  0
 61 62  1  6
 62130  1  0
 63 64  1  6
 63 65  1  0
 65 66  1  0
 65132  1  0
 65131  1  0
 66134  1  0
 66 67  1  0
 66133  1  0
 67 69  1  0
 67 68  1  1
 69 70  1  0
 69136  1  0
 69135  1  0
 70 71  1  0
 71 72  2  0
 72 73  1  0
 73 74  1  0
 73138  1  0
 73137  1  0
 74 75  1  6
 74 76  1  0
 75140  1  0
 75139  1  0
 75141  1  0
 76 78  1  0
 76 77  1  1
 78143  1  0
 78 79  1  0
 78142  1  0
 79 80  2  0
M  END
>  <id>  (381) 
483

>  <scaffolds>  (381) 
['C1CCOCC1', 'C1CCCCC1', 'C=C1CCCC2CCCCC12', 'O=C1CC2C(CCC3Cc4nc5c(nc4CC32)CC2CCC3C4=CC6OC7(CCCO7)CC6C4CCC3C2C5)C2=CCC3CCOCC123', 'C1CCC2CCCCC2C1']

>  <name>  (381) 
Cephalostatin 9

>  <formula>  (381) 
C54H76N2O11

>  <SMILES>  (381) 
CC(C)(O)C[C@@H](O)C1(O)OC[C@]26C(=C\C[C@@H]2[C@H]1C)/[C@@H]7CC[C@H]8Cc9nc%10C[C@]%11(C)[C@H]%12C[C@@H](O)[C@@]5(C)C(=C/[C@@H]4O[C@]3(O[C@](C)(CO)C[C@H]3O)[C@@H](C)[C@@]45O)\[C@@H]%12CC[C@H]%11Cc%10nc9C[C@]8(C)[C@H]7CC6=O

>  <ChEMBL_id>  (381) 
CHEMBL256077

>  <ZINC_id>  (381) 


>  <PubChem_id>  (381) 


>  <DrugBank_id>  (381) 


>  <CAS_no>  (381) 
138628-96-3

>  <references>  (381) 
[{'journal': {'name': 'The Journal of Organic Chemistry', 'id': 21}, 'title': 'Antineoplastic agents. 214. Isolation and structure of cephalostatins 7-9', 'year': 1992, 'start_page': 429, 'volume': 57, 'issue': 2, 'doi': '10.1021/jo00028a007', 'isbn': '', 'despositor': {'code': 'TMM', 'first_name': 'Thommas', 'last_name': 'Musyoka', 'id': 22}, 'refauthors_set': [{'author': {'first_name': 'George', 'initials': 'GR', 'last_name': 'Pettit', 'id': 478}, 'first_author': True, 'id': 991}, {'author': {'first_name': '', 'initials': 'Y', 'last_name': 'Kamano', 'id': 507}, 'first_author': None, 'id': 992}, {'author': {'first_name': '', 'initials': 'I', 'last_name': 'Masuo', 'id': 506}, 'first_author': None, 'id': 993}, {'author': {'first_name': '', 'initials': 'D', 'last_name': 'Claude', 'id': 510}, 'first_author': None, 'id': 994}, {'author': {'first_name': 'Michael', 'initials': 'R', 'last_name': 'Boyd', 'id': 683}, 'first_author': None, 'id': 995}, {'author': {'first_name': '', 'initials': 'LH', 'last_name': 'Cherry', 'id': 493}, 'first_author': None, 'id': 996}, {'author': {'first_name': '', 'initials': 'MS', 'last_name': 'Jean', 'id': 499}, 'first_author': None, 'id': 997}, {'author': {'first_name': '', 'initials': 'LD', 'last_name': 'Dennis', 'id': 511}, 'first_author': None, 'id': 998}, {'author': {'first_name': '', 'initials': 'DC', 'last_name': 'Nigel', 'id': 502}, 'first_author': None, 'id': 999}], 'id': 330}]

>  <classifications>  (381) 
[{'classification': 'Alkaloid', 'id': 738}, {'classification': 'Cephalostatin', 'id': 759}, {'classification': 'Pyrazine', 'id': 817}, {'classification': 'Steroid', 'id': 835}, {'classification': 'Steroids and steroid derivatives (Classyfire)', 'id': 942}]

>  <molecular_mass>  (381) 
929.19

$$$$
SANC00484_minRM1.pdb
     RDKit          3D

145157  0  0  1  0  0  0  0  0999 V2000
  -10.7060   -1.5370   -0.8030 C   0  0  0  0  0  0  0  0  0  0  0  0
  -10.8600   -0.2960    0.0710 C   0  0  1  0  0  0  0  0  0  0  0  0
  -11.9010   -0.2860    0.4840 H   0  0  0  0  0  0  0  0  0  0  0  0
   -9.8640   -0.2350    1.2320 C   0  0  1  0  0  0  0  0  0  0  0  0
  -10.1640    0.5830    1.9310 H   0  0  0  0  0  0  0  0  0  0  0  0
   -9.8200   -1.5920    1.9630 C   0  0  0  0  0  0  0  0  0  0  0  0
   -8.6750   -2.3060    1.3120 C   0  0  0  0  0  0  0  0  0  0  0  0
   -7.9020   -1.4520    0.6340 C   0  0  0  0  0  0  0  0  0  0  0  0
   -8.4190   -0.0390    0.7270 C   0  0  1  0  0  0  0  0  0  0  0  0
   -8.2780    0.8390   -0.5250 C   0  0  0  0  0  0  0  0  0  0  0  0
   -9.3700    0.9060   -1.3890 O   0  0  0  0  0  0  0  0  0  0  0  0
  -10.6370    0.9610   -0.7800 C   0  0  2  0  0  0  0  0  0  0  0  0
  -10.8470    2.3390   -0.0730 C   0  0  1  0  0  0  0  0  0  0  0  0
   -9.9310    2.7060    0.4550 H   0  0  0  0  0  0  0  0  0  0  0  0
  -11.2440    3.2430   -1.2530 C   0  0  0  0  0  0  0  0  0  0  0  0
  -11.7710    2.2660   -2.3240 C   0  0  1  0  0  0  0  0  0  0  0  0
  -11.5060    0.9480   -1.8730 O   0  0  0  0  0  0  0  0  0  0  0  0
  -13.2870    2.3640   -2.4820 C   0  0  0  0  0  0  0  0  0  0  0  0
  -11.0670    2.4560   -3.6660 C   0  0  0  0  0  0  0  0  0  0  0  0
  -11.9080    2.1670    0.8160 O   0  0  0  0  0  0  0  0  0  0  0  0
   -7.4700    0.5580    1.7600 C   0  0  0  0  0  0  0  0  0  0  0  0
   -7.8560    1.1030    2.7750 O   0  0  0  0  0  0  0  0  0  0  0  0
   -6.0000    0.4540    1.4250 C   0  0  0  0  0  0  0  0  0  0  0  0
   -5.5580   -0.9820    1.0530 C   0  0  1  0  0  0  0  0  0  0  0  0
   -6.5540   -1.6220    0.0510 C   0  0  1  0  0  0  0  0  0  0  0  0
   -6.5280   -1.0630   -0.9240 H   0  0  0  0  0  0  0  0  0  0  0  0
   -6.1750   -3.0760   -0.1920 C   0  0  0  0  0  0  0  0  0  0  0  0
   -4.7860   -3.1290   -0.8130 C   0  0  0  0  0  0  0  0  0  0  0  0
   -3.7480   -2.4520    0.0860 C   0  0  2  0  0  0  0  0  0  0  0  0
   -3.6710   -3.0410    1.0380 H   0  0  0  0  0  0  0  0  0  0  0  0
   -4.1210   -1.0060    0.4480 C   0  0  2  0  0  0  0  0  0  0  0  0
   -3.1110   -0.4890    1.4850 C   0  0  0  0  0  0  0  0  0  0  0  0
   -1.7000   -0.7160    1.0460 C   0  0  0  0  0  0  0  0  0  0  0  0
   -1.3600   -1.6880    0.0870 C   0  0  0  0  0  0  0  0  0  0  0  0
   -2.3920   -2.5010   -0.6230 C   0  0  0  0  0  0  0  0  0  0  0  0
   -0.0700   -1.9170   -0.2620 N   0  0  0  0  0  0  0  0  0  0  0  0
    0.8730   -1.1720    0.3550 C   0  0  0  0  0  0  0  0  0  0  0  0
    2.3070   -1.4890    0.0040 C   0  0  1  0  0  0  0  0  0  0  0  0
    2.3890   -1.7680   -1.0850 H   0  0  0  0  0  0  0  0  0  0  0  0
    3.2250   -0.2700    0.2910 C   0  0  1  0  0  0  0  0  0  0  0  0
    2.9940    0.1860    1.7380 C   0  0  1  0  0  0  0  0  0  0  0  0
    3.1670   -0.6830    2.4260 H   0  0  0  0  0  0  0  0  0  0  0  0
    3.9640    1.3050    2.1230 C   0  0  0  0  0  0  0  0  0  0  0  0
    5.4050    0.8450    1.9560 C   0  0  0  0  0  0  0  0  0  0  0  0
    5.6520    0.4530    0.5000 C   0  0  2  0  0  0  0  0  0  0  0  0
    5.4860    1.3540   -0.1460 H   0  0  0  0  0  0  0  0  0  0  0  0
    4.7010   -0.6880    0.1060 C   0  0  2  0  0  0  0  0  0  0  0  0
    4.9180   -1.5550    0.7840 H   0  0  0  0  0  0  0  0  0  0  0  0
    4.9800   -1.1120   -1.3360 C   0  0  0  0  0  0  0  0  0  0  0  0
    6.4320   -1.6020   -1.4970 C   0  0  2  0  0  0  0  0  0  0  0  0
    6.5930   -2.4920   -0.8290 H   0  0  0  0  0  0  0  0  0  0  0  0
    7.4180   -0.4620   -1.1210 C   0  0  1  0  0  0  0  0  0  0  0  0
    7.0420   -0.0230    0.2740 C   0  0  0  0  0  0  0  0  0  0  0  0
    8.0210   -0.1690    1.1640 C   0  0  0  0  0  0  0  0  0  0  0  0
    9.2400   -0.7950    0.5580 C   0  0  1  0  0  0  0  0  0  0  0  0
    9.5010   -1.7540    1.0680 H   0  0  0  0  0  0  0  0  0  0  0  0
    8.9120   -0.9280   -0.9730 C   0  0  2  0  0  0  0  0  0  0  0  0
   10.0000   -0.0430   -1.6500 C   0  0  1  0  0  0  0  0  0  0  0  0
    9.5660    0.6260   -2.4330 H   0  0  0  0  0  0  0  0  0  0  0  0
   10.5650    0.7730   -0.4680 C   0  0  1  0  0  0  0  0  0  0  0  0
   10.3690    0.0260    0.7000 O   0  0  0  0  0  0  0  0  0  0  0  0
   12.0480    1.2310   -0.4960 C   0  0  1  0  0  0  0  0  0  0  0  0
   12.3380    1.5550   -1.5310 H   0  0  0  0  0  0  0  0  0  0  0  0
   12.0260    2.4350    0.4630 C   0  0  0  0  0  0  0  0  0  0  0  0
   10.5480    2.8880    0.4600 C   0  0  1  0  0  0  0  0  0  0  0  0
    9.8250    1.9600   -0.3260 O   0  0  0  0  0  0  0  0  0  0  0  0
    9.9590    2.9200    1.8660 C   0  0  0  0  0  0  0  0  0  0  0  0
   10.3970    4.2670   -0.2290 C   0  0  0  0  0  0  0  0  0  0  0  0
    9.0620    4.6680   -0.1850 O   0  0  0  0  0  0  0  0  0  0  0  0
   12.8340    0.1660   -0.0670 O   0  0  0  0  0  0  0  0  0  0  0  0
   11.1080   -0.8460   -2.3180 C   0  0  0  0  0  0  0  0  0  0  0  0
    8.9610   -2.2480   -1.4000 O   0  0  0  0  0  0  0  0  0  0  0  0
    7.2500    0.6900   -2.1020 C   0  0  0  0  0  0  0  0  0  0  0  0
    6.5510   -1.9240   -2.8510 O   0  0  0  0  0  0  0  0  0  0  0  0
    1.5630    0.6900    1.9450 C   0  0  0  0  0  0  0  0  0  0  0  0
    0.5370   -0.1860    1.3040 C   0  0  0  0  0  0  0  0  0  0  0  0
   -0.7520    0.0440    1.6510 N   0  0  0  0  0  0  0  0  0  0  0  0
    2.8490    0.8400   -0.6900 C   0  0  0  0  0  0  0  0  0  0  0  0
    2.7140   -2.5330    0.8570 O   0  0  0  0  0  0  0  0  0  0  0  0
    2.3920   -3.8200    0.4030 C   0  0  0  0  0  0  0  0  0  0  0  0
   -4.0530   -0.0920   -0.7740 C   0  0  0  0  0  0  0  0  0  0  0  0
   -5.4890   -1.7390    2.2240 O   0  0  0  0  0  0  0  0  0  0  0  0
   -9.7120   -1.6190   -1.2660 H   0  0  0  0  0  0  0  0  0  0  0  0
  -10.8800   -2.4730   -0.2540 H   0  0  0  0  0  0  0  0  0  0  0  0
  -11.4320   -1.5410   -1.6310 H   0  0  0  0  0  0  0  0  0  0  0  0
   -9.6200   -1.4660    3.0470 H   0  0  0  0  0  0  0  0  0  0  0  0
  -10.7760   -2.1480    1.9250 H   0  0  0  0  0  0  0  0  0  0  0  0
   -8.5300   -3.3740    1.4470 H   0  0  0  0  0  0  0  0  0  0  0  0
   -7.9960    1.8820   -0.2390 H   0  0  0  0  0  0  0  0  0  0  0  0
   -7.4590    0.4670   -1.1860 H   0  0  0  0  0  0  0  0  0  0  0  0
  -11.9920    4.0110   -0.9760 H   0  0  0  0  0  0  0  0  0  0  0  0
  -10.3730    3.8240   -1.6160 H   0  0  0  0  0  0  0  0  0  0  0  0
  -13.5890    3.3430   -2.8800 H   0  0  0  0  0  0  0  0  0  0  0  0
  -13.6800    1.5990   -3.1670 H   0  0  0  0  0  0  0  0  0  0  0  0
  -13.8080    2.2240   -1.5220 H   0  0  0  0  0  0  0  0  0  0  0  0
   -9.9810    2.2960   -3.5880 H   0  0  0  0  0  0  0  0  0  0  0  0
  -11.4300    1.7410   -4.4200 H   0  0  0  0  0  0  0  0  0  0  0  0
  -11.2270    3.4660   -4.0690 H   0  0  0  0  0  0  0  0  0  0  0  0
  -12.0210    2.9990    1.2870 H   0  0  0  0  0  0  0  0  0  0  0  0
   -5.7670    1.1590    0.5960 H   0  0  0  0  0  0  0  0  0  0  0  0
   -5.3930    0.8250    2.2810 H   0  0  0  0  0  0  0  0  0  0  0  0
   -6.2050   -3.6730    0.7430 H   0  0  0  0  0  0  0  0  0  0  0  0
   -6.9210   -3.5620   -0.8560 H   0  0  0  0  0  0  0  0  0  0  0  0
   -4.4950   -4.1860   -0.9940 H   0  0  0  0  0  0  0  0  0  0  0  0
   -4.8040   -2.6820   -1.8300 H   0  0  0  0  0  0  0  0  0  0  0  0
   -3.2800    0.5920    1.6890 H   0  0  0  0  0  0  0  0  0  0  0  0
   -3.2390   -0.9810    2.4760 H   0  0  0  0  0  0  0  0  0  0  0  0
   -2.0550   -3.5580   -0.7190 H   0  0  0  0  0  0  0  0  0  0  0  0
   -2.4650   -2.1480   -1.6760 H   0  0  0  0  0  0  0  0  0  0  0  0
    3.7810    2.2220    1.5220 H   0  0  0  0  0  0  0  0  0  0  0  0
    3.7830    1.6240    3.1730 H   0  0  0  0  0  0  0  0  0  0  0  0
    6.1020    1.6540    2.2630 H   0  0  0  0  0  0  0  0  0  0  0  0
    5.6250    0.0020    2.6440 H   0  0  0  0  0  0  0  0  0  0  0  0
    4.2860   -1.9190   -1.6540 H   0  0  0  0  0  0  0  0  0  0  0  0
    4.7770   -0.2730   -2.0430 H   0  0  0  0  0  0  0  0  0  0  0  0
    8.0240    0.0940    2.2180 H   0  0  0  0  0  0  0  0  0  0  0  0
   12.3620    2.1540    1.4810 H   0  0  0  0  0  0  0  0  0  0  0  0
   12.7250    3.2340    0.1510 H   0  0  0  0  0  0  0  0  0  0  0  0
   10.4500    3.6830    2.4880 H   0  0  0  0  0  0  0  0  0  0  0  0
    8.8820    3.1510    1.8570 H   0  0  0  0  0  0  0  0  0  0  0  0
   10.0630    1.9520    2.3820 H   0  0  0  0  0  0  0  0  0  0  0  0
   10.9680    5.0370    0.3410 H   0  0  0  0  0  0  0  0  0  0  0  0
   10.8310    4.2480   -1.2540 H   0  0  0  0  0  0  0  0  0  0  0  0
    8.6960    4.5600   -1.0780 H   0  0  0  0  0  0  0  0  0  0  0  0
   13.7040    0.5230    0.1430 H   0  0  0  0  0  0  0  0  0  0  0  0
   10.7160   -1.5120   -3.1030 H   0  0  0  0  0  0  0  0  0  0  0  0
   11.8380   -0.1970   -2.8250 H   0  0  0  0  0  0  0  0  0  0  0  0
   11.6820   -1.4670   -1.6160 H   0  0  0  0  0  0  0  0  0  0  0  0
    9.7770   -2.6510   -1.0870 H   0  0  0  0  0  0  0  0  0  0  0  0
    6.1940    0.8500   -2.3860 H   0  0  0  0  0  0  0  0  0  0  0  0
    7.6190    1.6440   -1.6960 H   0  0  0  0  0  0  0  0  0  0  0  0
    7.7830    0.4980   -3.0480 H   0  0  0  0  0  0  0  0  0  0  0  0
    7.2920   -2.5480   -2.9480 H   0  0  0  0  0  0  0  0  0  0  0  0
    1.3560    0.7960    3.0340 H   0  0  0  0  0  0  0  0  0  0  0  0
    1.4340    1.7220    1.5480 H   0  0  0  0  0  0  0  0  0  0  0  0
    1.7640    0.9660   -0.8160 H   0  0  0  0  0  0  0  0  0  0  0  0
    3.2300    1.8240   -0.3770 H   0  0  0  0  0  0  0  0  0  0  0  0
    3.2490    0.6630   -1.7010 H   0  0  0  0  0  0  0  0  0  0  0  0
    2.7780   -4.4870    1.1890 H   0  0  0  0  0  0  0  0  0  0  0  0
    1.3100   -4.0000    0.2920 H   0  0  0  0  0  0  0  0  0  0  0  0
    2.8840   -4.0780   -0.5520 H   0  0  0  0  0  0  0  0  0  0  0  0
   -4.5800   -0.4900   -1.6540 H   0  0  0  0  0  0  0  0  0  0  0  0
   -4.4890    0.9040   -0.5770 H   0  0  0  0  0  0  0  0  0  0  0  0
   -3.0190    0.0990   -1.1000 H   0  0  0  0  0  0  0  0  0  0  0  0
   -6.3710   -1.7960    2.6080 H   0  0  0  0  0  0  0  0  0  0  0  0
  1 85  1  0
  1 83  1  0
  1 84  1  0
  1  2  1  0
  2 12  1  0
  2  3  1  1
  2  4  1  0
  4  9  1  0
  4  5  1  1
  4  6  1  0
  6  7  1  0
  6 87  1  0
  6 86  1  0
  7  8  2  0
  7 88  1  0
  8 25  1  0
  9  8  1  0
  9 10  1  0
  9 21  1  1
 10 11  1  0
 10 90  1  0
 10 89  1  0
 12 11  1  6
 12 17  1  0
 12 13  1  0
 13 15  1  0
 13 14  1  1
 13 20  1  0
 15 16  1  0
 15 92  1  0
 15 91  1  0
 16 19  1  6
 16 18  1  0
 16 17  1  0
 18 94  1  0
 18 93  1  0
 18 95  1  0
 19 97  1  0
 19 98  1  0
 19 96  1  0
 20 99  1  0
 21 23  1  0
 21 22  2  0
 23100  1  0
 23 24  1  0
 23101  1  0
 24 25  1  0
 24 31  1  0
 24 82  1  1
 25 26  1  6
 25 27  1  0
 27103  1  0
 27 28  1  0
 27102  1  0
 28105  1  0
 28104  1  0
 28 29  1  0
 29 35  1  0
 29 31  1  0
 29 30  1  1
 31 81  1  6
 31 32  1  0
 32 33  1  0
 32106  1  0
 32107  1  0
 33 34  2  0
 33 77  1  0
 34 35  1  0
 34 36  1  0
 35109  1  0
 35108  1  0
 36 37  2  0
 37 38  1  0
 37 76  1  0
 38 39  1  6
 38 40  1  0
 38 79  1  0
 40 78  1  6
 40 47  1  0
 40 41  1  0
 41 75  1  0
 41 43  1  0
 41 42  1  1
 43110  1  0
 43 44  1  0
 43111  1  0
 44 45  1  0
 44112  1  0
 44113  1  0
 45 46  1  6
 45 47  1  0
 45 53  1  0
 47 49  1  0
 47 48  1  1
 49115  1  0
 49114  1  0
 49 50  1  0
 50 74  1  0
 50 52  1  0
 50 51  1  1
 52 73  1  6
 52 57  1  0
 52 53  1  0
 53 54  2  0
 54 55  1  0
 54116  1  0
 55 57  1  0
 55 61  1  0
 55 56  1  1
 57 58  1  0
 57 72  1  6
 58 59  1  6
 58 71  1  0
 58 60  1  0
 60 62  1  0
 60 66  1  1
 60 61  1  0
 62 63  1  6
 62 70  1  0
 62 64  1  0
 64118  1  0
 64 65  1  0
 64117  1  0
 65 66  1  0
 65 68  1  6
 65 67  1  0
 67120  1  0
 67121  1  0
 67119  1  0
 68123  1  0
 68 69  1  0
 68122  1  0
 69124  1  0
 70125  1  0
 71126  1  0
 71127  1  0
 71128  1  0
 72129  1  0
 73132  1  0
 73130  1  0
 73131  1  0
 74133  1  0
 75 76  1  0
 75135  1  0
 75134  1  0
 76 77  2  0
 78138  1  0
 78136  1  0
 78137  1  0
 79 80  1  0
 80141  1  0
 80140  1  0
 80139  1  0
 81142  1  0
 81144  1  0
 81143  1  0
 82145  1  0
M  END
>  <id>  (382) 
484

>  <scaffolds>  (382) 
['O=C1CC2C(CCC3Cc4nc5c(nc4CC32)CC2CCC3C4=CC6OC7(CCCO7)CC6C4CCC3C2C5)C2=CCC3CC4(CCCO4)OCC123', 'C1CCOCC1', 'C1CCCCC1', 'C=C1CCCC2CCCCC12', 'O=C1CC2C(CCC3Cc4nc5c(nc4CC32)CC2CCC3C4=CC6OC7(CCCO7)CC6C4CCC3C2C5)C2=CCC3CCOCC123', 'C1CCC2CCCCC2C1']

>  <name>  (382) 
Cephalostatin 10

>  <formula>  (382) 
C55H76N2O12

>  <SMILES>  (382) 
C[C@H]1[C@H]2CC=C3[C@]2(CO[C@]14[C@@H](CC(O4)(C)C)O)C(=O)C[C@]5([C@H]3CC[C@@H]6[C@@]5(CC7=C(C6)N=C8[C@@H]([C@]9([C@@H](CC[C@@H]1[C@@H]9C[C@H]([C@]2(C1=C[C@H]1[C@@]2([C@@H]([C@@]2(O1)[C@@H](C[C@@](O2)(C)CO)O)C)O)C)O)CC8=N7)C)OC)C)O

>  <ChEMBL_id>  (382) 
CHEMBL421638

>  <ZINC_id>  (382) 


>  <PubChem_id>  (382) 
 10373697

>  <DrugBank_id>  (382) 


>  <CAS_no>  (382) 
153698-87-4

>  <references>  (382) 
[{'journal': {'name': 'Journal of Natural Products', 'id': 5}, 'title': 'Isolation and Structure of Cephalostatins 10 and 11', 'year': 1994, 'start_page': 52, 'volume': 57, 'issue': 1, 'doi': '10.1021/np50103a007', 'isbn': '', 'despositor': {'code': 'TMM', 'first_name': 'Thommas', 'last_name': 'Musyoka', 'id': 22}, 'refauthors_set': [{'author': {'first_name': 'George', 'initials': 'GR', 'last_name': 'Pettit', 'id': 478}, 'first_author': True, 'id': 1000}, {'author': {'first_name': '', 'initials': 'J', 'last_name': 'Xu', 'id': 680}, 'first_author': None, 'id': 1001}, {'author': {'first_name': 'Michael', 'initials': 'D', 'last_name': 'Williams', 'id': 682}, 'first_author': None, 'id': 1002}, {'author': {'first_name': '', 'initials': 'DC', 'last_name': 'Nigel', 'id': 502}, 'first_author': None, 'id': 1003}, {'author': {'first_name': '', 'initials': 'LD', 'last_name': 'Dennis', 'id': 511}, 'first_author': None, 'id': 1004}, {'author': {'first_name': '', 'initials': 'MS', 'last_name': 'Jean', 'id': 499}, 'first_author': None, 'id': 1005}, {'author': {'first_name': 'Michael', 'initials': 'R', 'last_name': 'Boyd', 'id': 683}, 'first_author': None, 'id': 1006}], 'id': 331}]

>  <classifications>  (382) 
[{'classification': 'Alkaloid', 'id': 738}, {'classification': 'Cephalostatin', 'id': 759}, {'classification': 'Steroid', 'id': 835}, {'classification': 'Steroids and steroid derivatives (Classyfire)', 'id': 942}]

>  <molecular_mass>  (382) 
957.2

$$$$
SANC00485_minRM1.pdb
     RDKit          3D

145157  0  0  1  0  0  0  0  0999 V2000
    7.4360   -1.5470    1.8180 O   0  0  0  0  0  0  0  0  0  0  0  0
    7.1070   -0.7320    0.9790 C   0  0  0  0  0  0  0  0  0  0  0  0
    8.1160    0.1000    0.2340 C   0  0  1  0  0  0  0  0  0  0  0  0
    7.6270    1.5050    0.0020 C   0  0  0  0  0  0  0  0  0  0  0  0
    8.6250    2.3820    0.1440 C   0  0  0  0  0  0  0  0  0  0  0  0
    9.9050    1.6910    0.5130 C   0  0  0  0  0  0  0  0  0  0  0  0
    9.4270    0.3140    1.0200 C   0  0  2  0  0  0  0  0  0  0  0  0
    9.1730    0.4240    2.1090 H   0  0  0  0  0  0  0  0  0  0  0  0
   10.4350   -0.8330    0.9150 C   0  0  2  0  0  0  0  0  0  0  0  0
   10.1020   -1.6420    1.6240 H   0  0  0  0  0  0  0  0  0  0  0  0
   11.8050   -0.3250    1.3550 C   0  0  0  0  0  0  0  0  0  0  0  0
   10.4660   -1.5010   -0.4680 C   0  0  1  0  0  0  0  0  0  0  0  0
    9.1780   -1.6750   -1.0080 O   0  0  0  0  0  0  0  0  0  0  0  0
    8.4140   -0.5140   -1.1370 C   0  0  0  0  0  0  0  0  0  0  0  0
   11.1800   -0.7120   -1.3720 O   0  0  0  0  0  0  0  0  0  0  0  0
   11.7930   -1.5000   -2.3750 C   0  0  1  0  0  0  0  0  0  0  0  0
   11.7320   -2.9730   -1.9250 C   0  0  0  0  0  0  0  0  0  0  0  0
   11.0450   -2.9570   -0.5470 C   0  0  1  0  0  0  0  0  0  0  0  0
   10.2300   -3.7300   -0.4730 H   0  0  0  0  0  0  0  0  0  0  0  0
   11.9710   -3.1150    0.4830 O   0  0  0  0  0  0  0  0  0  0  0  0
   11.0220   -1.2790   -3.6780 C   0  0  0  0  0  0  0  0  0  0  0  0
   13.2320   -0.9940   -2.5000 C   0  0  0  0  0  0  0  0  0  0  0  0
    6.2160    1.7230   -0.3920 C   0  0  2  0  0  0  0  0  0  0  0  0
    6.0960    1.2930   -1.4210 H   0  0  0  0  0  0  0  0  0  0  0  0
    5.8570    3.2050   -0.4150 C   0  0  0  0  0  0  0  0  0  0  0  0
    4.4130    3.3750   -0.8600 C   0  0  0  0  0  0  0  0  0  0  0  0
    3.4580    2.6570    0.0960 C   0  0  1  0  0  0  0  0  0  0  0  0
    3.5640    3.1150    1.1150 H   0  0  0  0  0  0  0  0  0  0  0  0
    2.0240    2.8810   -0.3950 C   0  0  0  0  0  0  0  0  0  0  0  0
    1.0360    1.9330    0.1990 C   0  0  0  0  0  0  0  0  0  0  0  0
   -0.2700    2.2050   -0.0450 N   0  0  0  0  0  0  0  0  0  0  0  0
   -1.1800    1.3260    0.4400 C   0  0  0  0  0  0  0  0  0  0  0  0
   -0.7910    0.1840    1.1680 C   0  0  0  0  0  0  0  0  0  0  0  0
    0.5150   -0.0880    1.4100 N   0  0  0  0  0  0  0  0  0  0  0  0
    1.4200    0.7900    0.9220 C   0  0  0  0  0  0  0  0  0  0  0  0
    2.8700    0.5030    1.2400 C   0  0  2  0  0  0  0  0  0  0  0  0
    3.0570   -0.6080    1.2510 H   0  0  0  0  0  0  0  0  0  0  0  0
    3.1270    1.1180    2.4770 O   0  0  0  0  0  0  0  0  0  0  0  0
    2.9380    0.2800    3.5850 C   0  0  0  0  0  0  0  0  0  0  0  0
    3.7940    1.1630    0.1840 C   0  0  1  0  0  0  0  0  0  0  0  0
    3.5340    0.4880   -1.1640 C   0  0  0  0  0  0  0  0  0  0  0  0
    5.2850    0.9760    0.5920 C   0  0  2  0  0  0  0  0  0  0  0  0
    5.3970    1.5030    1.8760 O   0  0  0  0  0  0  0  0  0  0  0  0
    5.6610   -0.5190    0.6190 C   0  0  0  0  0  0  0  0  0  0  0  0
   -1.7840   -0.8110    1.6790 C   0  0  0  0  0  0  0  0  0  0  0  0
   -3.2210   -0.2840    1.6150 C   0  0  2  0  0  0  0  0  0  0  0  0
   -3.3500    0.4830    2.4250 H   0  0  0  0  0  0  0  0  0  0  0  0
   -4.1890   -1.4350    1.8880 C   0  0  0  0  0  0  0  0  0  0  0  0
   -5.6330   -0.9580    1.8170 C   0  0  0  0  0  0  0  0  0  0  0  0
   -5.9110   -0.3630    0.4380 C   0  0  1  0  0  0  0  0  0  0  0  0
   -5.7380   -1.1550   -0.3350 H   0  0  0  0  0  0  0  0  0  0  0  0
   -7.3110    0.1180    0.3070 C   0  0  0  0  0  0  0  0  0  0  0  0
   -8.2820    0.1320    1.2190 C   0  0  0  0  0  0  0  0  0  0  0  0
   -9.5060    0.8380    0.7170 C   0  0  2  0  0  0  0  0  0  0  0  0
   -9.7500    1.7240    1.3520 H   0  0  0  0  0  0  0  0  0  0  0  0
  -10.6460    0.0200    0.7710 O   0  0  0  0  0  0  0  0  0  0  0  0
  -10.8230   -0.6060   -0.4680 C   0  0  1  0  0  0  0  0  0  0  0  0
  -10.0360   -1.7680   -0.4490 O   0  0  0  0  0  0  0  0  0  0  0  0
  -10.7640   -2.8280    0.1330 C   0  0  2  0  0  0  0  0  0  0  0  0
  -10.5250   -2.8650    1.6390 C   0  0  0  0  0  0  0  0  0  0  0  0
  -10.2530   -4.1200   -0.5490 C   0  0  0  0  0  0  0  0  0  0  0  0
   -8.9810   -4.3990   -0.0460 O   0  0  0  0  0  0  0  0  0  0  0  0
  -12.2510   -2.5650   -0.1940 C   0  0  0  0  0  0  0  0  0  0  0  0
  -12.2980   -1.0800   -0.5980 C   0  0  1  0  0  0  0  0  0  0  0  0
  -12.6430   -0.9730   -1.6630 H   0  0  0  0  0  0  0  0  0  0  0  0
  -13.0610   -0.2850    0.2490 O   0  0  0  0  0  0  0  0  0  0  0  0
  -10.2850    0.3520   -1.5540 C   0  0  1  0  0  0  0  0  0  0  0  0
   -9.8530   -0.2100   -2.4170 H   0  0  0  0  0  0  0  0  0  0  0  0
  -11.4180    1.2070   -2.1030 C   0  0  0  0  0  0  0  0  0  0  0  0
   -9.2010    1.1630   -0.7900 C   0  0  1  0  0  0  0  0  0  0  0  0
   -9.2710    2.5240   -1.0540 O   0  0  0  0  0  0  0  0  0  0  0  0
   -7.7070    0.7360   -1.0100 C   0  0  2  0  0  0  0  0  0  0  0  0
   -7.5110   -0.2650   -2.1410 C   0  0  0  0  0  0  0  0  0  0  0  0
   -6.7590    1.9480   -1.2070 C   0  0  2  0  0  0  0  0  0  0  0  0
   -6.9330    2.7070   -0.3960 H   0  0  0  0  0  0  0  0  0  0  0  0
   -6.9420    2.4720   -2.4890 O   0  0  0  0  0  0  0  0  0  0  0  0
   -5.2910    1.4930   -1.1410 C   0  0  0  0  0  0  0  0  0  0  0  0
   -4.9750    0.8300    0.2000 C   0  0  2  0  0  0  0  0  0  0  0  0
   -5.1550    1.5800    1.0160 H   0  0  0  0  0  0  0  0  0  0  0  0
   -3.4980    0.3850    0.2610 C   0  0  2  0  0  0  0  0  0  0  0  0
   -3.1500   -0.5500   -0.8940 C   0  0  0  0  0  0  0  0  0  0  0  0
   -2.6160    1.6410    0.1770 C   0  0  0  0  0  0  0  0  0  0  0  0
    8.5930    3.4610    0.0210 H   0  0  0  0  0  0  0  0  0  0  0  0
   10.5730    1.6150   -0.3700 H   0  0  0  0  0  0  0  0  0  0  0  0
   10.4900    2.2510    1.2740 H   0  0  0  0  0  0  0  0  0  0  0  0
   11.7390    0.2160    2.3130 H   0  0  0  0  0  0  0  0  0  0  0  0
   12.5370   -1.1320    1.5190 H   0  0  0  0  0  0  0  0  0  0  0  0
   12.2680    0.3660    0.6330 H   0  0  0  0  0  0  0  0  0  0  0  0
    7.4980   -0.8650   -1.6550 H   0  0  0  0  0  0  0  0  0  0  0  0
    8.8940    0.2310   -1.8120 H   0  0  0  0  0  0  0  0  0  0  0  0
   11.1640   -3.5980   -2.6420 H   0  0  0  0  0  0  0  0  0  0  0  0
   12.7370   -3.4410   -1.8910 H   0  0  0  0  0  0  0  0  0  0  0  0
   12.1840   -4.0540    0.5310 H   0  0  0  0  0  0  0  0  0  0  0  0
   11.0090   -0.2180   -3.9730 H   0  0  0  0  0  0  0  0  0  0  0  0
   11.4720   -1.8350   -4.5120 H   0  0  0  0  0  0  0  0  0  0  0  0
    9.9690   -1.5930   -3.5930 H   0  0  0  0  0  0  0  0  0  0  0  0
   13.7930   -1.1240   -1.5600 H   0  0  0  0  0  0  0  0  0  0  0  0
   13.7770   -1.5270   -3.2900 H   0  0  0  0  0  0  0  0  0  0  0  0
   13.2710    0.0760   -2.7500 H   0  0  0  0  0  0  0  0  0  0  0  0
    6.0210    3.6690    0.5810 H   0  0  0  0  0  0  0  0  0  0  0  0
    6.5320    3.7590   -1.1020 H   0  0  0  0  0  0  0  0  0  0  0  0
    4.1550    4.4540   -0.9190 H   0  0  0  0  0  0  0  0  0  0  0  0
    4.2910    3.0040   -1.9030 H   0  0  0  0  0  0  0  0  0  0  0  0
    1.7190    3.9300   -0.1930 H   0  0  0  0  0  0  0  0  0  0  0  0
    1.9580    2.7970   -1.5040 H   0  0  0  0  0  0  0  0  0  0  0  0
    3.1580    0.9290    4.4500 H   0  0  0  0  0  0  0  0  0  0  0  0
    1.9110   -0.1140    3.6810 H   0  0  0  0  0  0  0  0  0  0  0  0
    3.6420   -0.5750    3.6040 H   0  0  0  0  0  0  0  0  0  0  0  0
    2.4650    0.3190   -1.3660 H   0  0  0  0  0  0  0  0  0  0  0  0
    3.9030    1.0840   -2.0130 H   0  0  0  0  0  0  0  0  0  0  0  0
    4.0070   -0.5020   -1.2480 H   0  0  0  0  0  0  0  0  0  0  0  0
    6.3280    1.5050    2.1240 H   0  0  0  0  0  0  0  0  0  0  0  0
    5.4640   -0.9960   -0.3680 H   0  0  0  0  0  0  0  0  0  0  0  0
    5.0000   -1.0640    1.3300 H   0  0  0  0  0  0  0  0  0  0  0  0
   -1.6700   -1.7550    1.1000 H   0  0  0  0  0  0  0  0  0  0  0  0
   -1.5350   -1.1060    2.7220 H   0  0  0  0  0  0  0  0  0  0  0  0
   -4.0280   -2.2770    1.1810 H   0  0  0  0  0  0  0  0  0  0  0  0
   -3.9830   -1.8810    2.8850 H   0  0  0  0  0  0  0  0  0  0  0  0
   -6.3260   -1.8020    2.0220 H   0  0  0  0  0  0  0  0  0  0  0  0
   -5.8390   -0.2220    2.6230 H   0  0  0  0  0  0  0  0  0  0  0  0
   -8.2730   -0.2830    2.2240 H   0  0  0  0  0  0  0  0  0  0  0  0
  -11.0400   -2.0500    2.1710 H   0  0  0  0  0  0  0  0  0  0  0  0
  -10.8760   -3.8060    2.0750 H   0  0  0  0  0  0  0  0  0  0  0  0
   -9.4600   -2.7690    1.8830 H   0  0  0  0  0  0  0  0  0  0  0  0
  -10.9190   -4.9740   -0.2820 H   0  0  0  0  0  0  0  0  0  0  0  0
  -10.2890   -4.0240   -1.6580 H   0  0  0  0  0  0  0  0  0  0  0  0
   -8.3920   -4.5480   -0.8120 H   0  0  0  0  0  0  0  0  0  0  0  0
  -12.6170   -3.2090   -1.0170 H   0  0  0  0  0  0  0  0  0  0  0  0
  -12.9140   -2.8050    0.6600 H   0  0  0  0  0  0  0  0  0  0  0  0
  -13.9580   -0.6400    0.2480 H   0  0  0  0  0  0  0  0  0  0  0  0
  -12.0040    1.7080   -1.3180 H   0  0  0  0  0  0  0  0  0  0  0  0
  -11.0560    1.9780   -2.8000 H   0  0  0  0  0  0  0  0  0  0  0  0
  -12.1360    0.5960   -2.6750 H   0  0  0  0  0  0  0  0  0  0  0  0
  -10.1010    2.8660   -0.6990 H   0  0  0  0  0  0  0  0  0  0  0  0
   -8.1690   -0.0620   -2.9920 H   0  0  0  0  0  0  0  0  0  0  0  0
   -6.4940   -0.2350   -2.5510 H   0  0  0  0  0  0  0  0  0  0  0  0
   -7.6950   -1.2950   -1.8330 H   0  0  0  0  0  0  0  0  0  0  0  0
   -7.4430    3.2930   -2.4060 H   0  0  0  0  0  0  0  0  0  0  0  0
   -5.0620    0.8060   -1.9890 H   0  0  0  0  0  0  0  0  0  0  0  0
   -4.6300    2.3690   -1.3170 H   0  0  0  0  0  0  0  0  0  0  0  0
   -3.6120   -0.2290   -1.8430 H   0  0  0  0  0  0  0  0  0  0  0  0
   -2.0700   -0.6000   -1.0920 H   0  0  0  0  0  0  0  0  0  0  0  0
   -3.4820   -1.5840   -0.7310 H   0  0  0  0  0  0  0  0  0  0  0  0
   -2.9380    2.4120    0.9120 H   0  0  0  0  0  0  0  0  0  0  0  0
   -2.7390    2.1360   -0.8120 H   0  0  0  0  0  0  0  0  0  0  0  0
  1  2  2  0
  2 44  1  0
  3  2  1  1
  3 14  1  0
  3  4  1  0
  3  7  1  0
  4 23  1  0
  4  5  2  0
  5 83  1  0
  5  6  1  0
  6 84  1  0
  6  7  1  0
  6 85  1  0
  7  9  1  0
  7  8  1  1
  9 12  1  0
  9 11  1  0
  9 10  1  1
 11 88  1  0
 11 87  1  0
 11 86  1  0
 12 15  1  6
 12 13  1  0
 12 18  1  0
 13 14  1  0
 14 90  1  0
 14 89  1  0
 15 16  1  0
 16 21  1  6
 16 22  1  0
 16 17  1  0
 17 91  1  0
 17 92  1  0
 17 18  1  0
 18 19  1  6
 18 20  1  0
 20 93  1  0
 21 95  1  0
 21 94  1  0
 21 96  1  0
 22 98  1  0
 22 99  1  0
 22 97  1  0
 23 24  1  6
 23 25  1  0
 23 42  1  0
 25101  1  0
 25 26  1  0
 25100  1  0
 26103  1  0
 26102  1  0
 26 27  1  0
 27 29  1  0
 27 40  1  0
 27 28  1  1
 29105  1  0
 29104  1  0
 29 30  1  0
 30 31  2  0
 30 35  1  0
 31 32  1  0
 32 82  1  0
 32 33  2  0
 33 34  1  0
 33 45  1  0
 34 35  2  0
 35 36  1  0
 36 40  1  0
 36 37  1  1
 36 38  1  0
 38 39  1  0
 39108  1  0
 39107  1  0
 39106  1  0
 40 41  1  6
 40 42  1  0
 41110  1  0
 41109  1  0
 41111  1  0
 42 44  1  0
 42 43  1  1
 43112  1  0
 44113  1  0
 44114  1  0
 45115  1  0
 45 46  1  0
 45116  1  0
 46 80  1  0
 46 48  1  0
 46 47  1  1
 48117  1  0
 48 49  1  0
 48118  1  0
 49 50  1  0
 49119  1  0
 49120  1  0
 50 51  1  6
 50 78  1  0
 50 52  1  0
 52 72  1  0
 52 53  2  0
 53 54  1  0
 53121  1  0
 54 70  1  0
 54 56  1  0
 54 55  1  1
 57 56  1  1
 57 67  1  0
 57 64  1  0
 57 58  1  0
 58 59  1  0
 59 61  1  6
 59 63  1  0
 59 60  1  0
 60124  1  0
 60123  1  0
 60122  1  0
 61126  1  0
 61125  1  0
 61 62  1  0
 62127  1  0
 63128  1  0
 63 64  1  0
 63129  1  0
 64 65  1  6
 64 66  1  0
 66130  1  0
 67 68  1  6
 67 69  1  0
 67 70  1  0
 69132  1  0
 69133  1  0
 69131  1  0
 70 71  1  1
 70 72  1  0
 71134  1  0
 72 73  1  6
 72 74  1  0
 73135  1  0
 73136  1  0
 73137  1  0
 74 76  1  0
 74 77  1  0
 74 75  1  1
 76138  1  0
 77139  1  0
 77140  1  0
 77 78  1  0
 78 80  1  0
 78 79  1  1
 80 81  1  6
 80 82  1  0
 81141  1  0
 81142  1  0
 81143  1  0
 82145  1  0
 82144  1  0
M  END
>  <id>  (383) 
485

>  <scaffolds>  (383) 
['O=C1CC2C(CCC3Cc4nc5c(nc4CC32)CC2CCC3C4=CC6OC7(CCCO7)CC6C4CCC3C2C5)C2=CCC3CC4(CCCO4)OCC123', 'C1CCOCC1', 'C1CCCCC1', 'C=C1CCCC2CCCCC12', 'O=C1CC2C(CCC3Cc4nc5c(nc4CC32)CC2CCC3C4=CC6OC7(CCCO7)CC6C4CCC3C2C5)C2=CCC3CCOCC123', 'C1CCC2CCCCC2C1']

>  <name>  (383) 
Cephalostatin 11

>  <formula>  (383) 
C55H76N2O12

>  <SMILES>  (383) 
O=C7[C@@]31/C(=C/C[C@@H]3[C@H](C)[C@@]2(OC1)OC(C[C@H]2O)(C)C)[C@@H]6CC[C@H]5Cc4nc%12c(nc4[C@H](OC)[C@]5(C)[C@@]6(O)C7)C[C@@H]%13CC[C@H]%11/C%10=C/[C@@H]9O[C@]8(O[C@](C)(CO)C[C@H]8O)[C@@H](C)[C@]9(O)[C@@]%10(C)[C@H](O)C[C@@H]%11[C@@]%13(C)C%12

>  <ChEMBL_id>  (383) 


>  <ZINC_id>  (383) 


>  <PubChem_id>  (383) 
 10373698

>  <DrugBank_id>  (383) 


>  <CAS_no>  (383) 
153698-88-5

>  <references>  (383) 
[{'journal': {'name': 'Journal of Natural Products', 'id': 5}, 'title': 'Review of Cytotoxic Cephalostatins and Ritterazines: Isolation and Synthesis', 'year': 2008, 'start_page': 487, 'volume': 71, 'issue': 3, 'doi': '10.1021/np070536z', 'isbn': '', 'despositor': {'code': 'TMM', 'first_name': 'Thommas', 'last_name': 'Musyoka', 'id': 22}, 'refauthors_set': [{'author': {'first_name': '', 'initials': 'BR', 'last_name': 'Moser', 'id': 701}, 'first_author': True, 'id': 983}, {'author': {'first_name': 'Amira', 'initials': 'A', 'last_name': 'Rudi', 'id': 534}, 'first_author': False, 'id': 1097}], 'id': 328}, {'journal': {'name': 'Journal of Natural Products', 'id': 5}, 'title': 'Isolation and Structure of Cephalostatins 10 and 11', 'year': 1994, 'start_page': 52, 'volume': 57, 'issue': 1, 'doi': '10.1021/np50103a007', 'isbn': '', 'despositor': {'code': 'TMM', 'first_name': 'Thommas', 'last_name': 'Musyoka', 'id': 22}, 'refauthors_set': [{'author': {'first_name': 'George', 'initials': 'GR', 'last_name': 'Pettit', 'id': 478}, 'first_author': True, 'id': 1000}, {'author': {'first_name': '', 'initials': 'J', 'last_name': 'Xu', 'id': 680}, 'first_author': None, 'id': 1001}, {'author': {'first_name': 'Michael', 'initials': 'D', 'last_name': 'Williams', 'id': 682}, 'first_author': None, 'id': 1002}, {'author': {'first_name': '', 'initials': 'DC', 'last_name': 'Nigel', 'id': 502}, 'first_author': None, 'id': 1003}, {'author': {'first_name': '', 'initials': 'LD', 'last_name': 'Dennis', 'id': 511}, 'first_author': None, 'id': 1004}, {'author': {'first_name': '', 'initials': 'MS', 'last_name': 'Jean', 'id': 499}, 'first_author': None, 'id': 1005}, {'author': {'first_name': 'Michael', 'initials': 'R', 'last_name': 'Boyd', 'id': 683}, 'first_author': None, 'id': 1006}], 'id': 331}]

>  <classifications>  (383) 
[{'classification': 'Alkaloid', 'id': 738}, {'classification': 'Cephalostatin', 'id': 759}, {'classification': 'Steroid', 'id': 835}, {'classification': 'Steroids and steroid derivatives (Classyfire)', 'id': 942}]

>  <molecular_mass>  (383) 
957.2

$$$$
SANC00486_minRM1.pdb
     RDKit          3D

144156  0  0  1  0  0  0  0  0999 V2000
  -10.7620   -2.4660    1.3900 C   0  0  0  0  0  0  0  0  0  0  0  0
  -10.2550   -1.1630    0.8090 C   0  0  2  0  0  0  0  0  0  0  0  0
   -9.9700   -0.4780    1.6560 H   0  0  0  0  0  0  0  0  0  0  0  0
  -11.2890   -0.4250   -0.0660 C   0  0  1  0  0  0  0  0  0  0  0  0
  -12.2730   -1.3070   -0.8940 C   0  0  1  0  0  0  0  0  0  0  0  0
  -12.4040   -2.3230   -0.4170 H   0  0  0  0  0  0  0  0  0  0  0  0
  -13.5820   -0.5030   -0.8640 C   0  0  0  0  0  0  0  0  0  0  0  0
  -13.2840    0.7040    0.0540 C   0  0  1  0  0  0  0  0  0  0  0  0
  -12.0750    0.4180    0.7250 O   0  0  0  0  0  0  0  0  0  0  0  0
  -13.1490    1.9990   -0.7330 C   0  0  0  0  0  0  0  0  0  0  0  0
  -14.3660    0.8480    1.1470 C   0  0  0  0  0  0  0  0  0  0  0  0
  -14.1470    2.0160    1.8710 O   0  0  0  0  0  0  0  0  0  0  0  0
  -11.7110   -1.4620   -2.1590 O   0  0  0  0  0  0  0  0  0  0  0  0
  -10.5690    0.4200   -0.9260 O   0  0  0  0  0  0  0  0  0  0  0  0
   -9.3100   -0.1510   -1.1900 C   0  0  2  0  0  0  0  0  0  0  0  0
   -9.3010   -0.4840   -2.2590 H   0  0  0  0  0  0  0  0  0  0  0  0
   -9.0530   -1.3070   -0.1570 C   0  0  1  0  0  0  0  0  0  0  0  0
   -7.6350   -1.0270    0.4410 C   0  0  1  0  0  0  0  0  0  0  0  0
   -6.5380   -2.0040   -0.0540 C   0  0  1  0  0  0  0  0  0  0  0  0
   -6.5840   -2.0890   -1.1740 H   0  0  0  0  0  0  0  0  0  0  0  0
   -5.1530   -1.4800    0.3640 C   0  0  0  0  0  0  0  0  0  0  0  0
   -4.8850   -0.1040   -0.2440 C   0  0  1  0  0  0  0  0  0  0  0  0
   -4.9650   -0.1900   -1.3610 H   0  0  0  0  0  0  0  0  0  0  0  0
   -5.9490    0.9020    0.2220 C   0  0  2  0  0  0  0  0  0  0  0  0
   -5.8980    1.0510    1.3320 H   0  0  0  0  0  0  0  0  0  0  0  0
   -7.2830    0.3340   -0.1130 C   0  0  0  0  0  0  0  0  0  0  0  0
   -8.2090    0.8350   -0.9300 C   0  0  0  0  0  0  0  0  0  0  0  0
   -5.6970    2.2470   -0.4590 C   0  0  0  0  0  0  0  0  0  0  0  0
   -4.3050    2.7580   -0.1100 C   0  0  0  0  0  0  0  0  0  0  0  0
   -3.2310    1.7590   -0.5400 C   0  0  2  0  0  0  0  0  0  0  0  0
   -3.2820    1.6430   -1.6550 H   0  0  0  0  0  0  0  0  0  0  0  0
   -3.4630    0.3850    0.1040 C   0  0  2  0  0  0  0  0  0  0  0  0
   -2.4610   -0.6040   -0.5120 C   0  0  0  0  0  0  0  0  0  0  0  0
   -1.0610   -0.0900   -0.4390 C   0  0  0  0  0  0  0  0  0  0  0  0
   -0.7710    1.2830   -0.3110 C   0  0  0  0  0  0  0  0  0  0  0  0
   -1.8490    2.3110   -0.1780 C   0  0  0  0  0  0  0  0  0  0  0  0
    0.5070    1.7340   -0.2770 N   0  0  0  0  0  0  0  0  0  0  0  0
    1.4910    0.8050   -0.3710 C   0  0  0  0  0  0  0  0  0  0  0  0
    2.8970    1.3150   -0.3760 C   0  0  0  0  0  0  0  0  0  0  0  0
    3.9180    0.2220   -0.0110 C   0  0  1  0  0  0  0  0  0  0  0  0
    3.6260   -1.0050   -0.8890 C   0  0  1  0  0  0  0  0  0  0  0  0
    3.6070   -0.6720   -1.9610 H   0  0  0  0  0  0  0  0  0  0  0  0
    4.6910   -2.0920   -0.7460 C   0  0  0  0  0  0  0  0  0  0  0  0
    6.0730   -1.5400   -1.0540 C   0  0  0  0  0  0  0  0  0  0  0  0
    6.3770   -0.3720   -0.1180 C   0  0  2  0  0  0  0  0  0  0  0  0
    6.3460   -0.7420    0.9390 H   0  0  0  0  0  0  0  0  0  0  0  0
    5.3400    0.7430   -0.3330 C   0  0  2  0  0  0  0  0  0  0  0  0
    5.3730    1.0460   -1.4130 H   0  0  0  0  0  0  0  0  0  0  0  0
    5.6950    1.9640    0.5160 C   0  0  0  0  0  0  0  0  0  0  0  0
    7.1200    2.4790    0.2230 C   0  0  2  0  0  0  0  0  0  0  0  0
    7.1860    2.8020   -0.8510 H   0  0  0  0  0  0  0  0  0  0  0  0
    8.1620    1.3590    0.4950 C   0  0  1  0  0  0  0  0  0  0  0  0
    7.7260    0.1990   -0.3650 C   0  0  0  0  0  0  0  0  0  0  0  0
    8.5940   -0.1150   -1.3250 C   0  0  0  0  0  0  0  0  0  0  0  0
    9.7640    0.8200   -1.3460 C   0  0  1  0  0  0  0  0  0  0  0  0
    9.8000    1.4060   -2.2950 H   0  0  0  0  0  0  0  0  0  0  0  0
    9.6040    1.6760   -0.0370 C   0  0  2  0  0  0  0  0  0  0  0  0
   10.7990    1.1990    0.8440 C   0  0  1  0  0  0  0  0  0  0  0  0
   10.4800    0.8820    1.8640 H   0  0  0  0  0  0  0  0  0  0  0  0
   11.3410   -0.0230    0.0660 C   0  0  1  0  0  0  0  0  0  0  0  0
   10.9910    0.1440   -1.2780 O   0  0  0  0  0  0  0  0  0  0  0  0
   12.8520   -0.3650    0.1530 C   0  0  1  0  0  0  0  0  0  0  0  0
   13.2560   -0.1010    1.1650 H   0  0  0  0  0  0  0  0  0  0  0  0
   12.8700   -1.8900   -0.0340 C   0  0  0  0  0  0  0  0  0  0  0  0
   11.4070   -2.3320    0.1740 C   0  0  1  0  0  0  0  0  0  0  0  0
   10.6710   -1.1750    0.5130 O   0  0  0  0  0  0  0  0  0  0  0  0
   10.8250   -2.9560   -1.0900 C   0  0  0  0  0  0  0  0  0  0  0  0
   11.2880   -3.2920    1.3820 C   0  0  0  0  0  0  0  0  0  0  0  0
    9.9700   -3.7480    1.4420 O   0  0  0  0  0  0  0  0  0  0  0  0
   13.4980    0.3500   -0.8500 O   0  0  0  0  0  0  0  0  0  0  0  0
   11.8690    2.2650    1.0300 C   0  0  0  0  0  0  0  0  0  0  0  0
    9.6460    3.0360   -0.3090 O   0  0  0  0  0  0  0  0  0  0  0  0
    8.1400    1.0050    1.9750 C   0  0  0  0  0  0  0  0  0  0  0  0
    7.2970    3.5400    1.1160 O   0  0  0  0  0  0  0  0  0  0  0  0
    2.2640   -1.6090   -0.5460 C   0  0  0  0  0  0  0  0  0  0  0  0
    1.1960   -0.5680   -0.4920 C   0  0  0  0  0  0  0  0  0  0  0  0
   -0.0800   -1.0190   -0.5280 N   0  0  0  0  0  0  0  0  0  0  0  0
    3.7750   -0.1100    1.4710 C   0  0  0  0  0  0  0  0  0  0  0  0
   -3.2390    0.4400    1.6130 C   0  0  0  0  0  0  0  0  0  0  0  0
   -6.6500   -3.2460    0.5740 O   0  0  0  0  0  0  0  0  0  0  0  0
   -7.6570   -1.0170    1.9620 C   0  0  0  0  0  0  0  0  0  0  0  0
   -9.0240   -2.5530   -0.7650 O   0  0  0  0  0  0  0  0  0  0  0  0
   -9.9470   -3.0700    1.8150 H   0  0  0  0  0  0  0  0  0  0  0  0
  -11.4970   -2.2940    2.1880 H   0  0  0  0  0  0  0  0  0  0  0  0
  -11.2630   -3.1100    0.6460 H   0  0  0  0  0  0  0  0  0  0  0  0
  -13.9200   -0.1800   -1.8660 H   0  0  0  0  0  0  0  0  0  0  0  0
  -14.4260   -1.1250   -0.4880 H   0  0  0  0  0  0  0  0  0  0  0  0
  -14.1210    2.3670   -1.0710 H   0  0  0  0  0  0  0  0  0  0  0  0
  -12.6880    2.7920   -0.1220 H   0  0  0  0  0  0  0  0  0  0  0  0
  -12.5190    1.8810   -1.6310 H   0  0  0  0  0  0  0  0  0  0  0  0
  -15.3650    0.9690    0.6630 H   0  0  0  0  0  0  0  0  0  0  0  0
  -14.4300   -0.0660    1.7790 H   0  0  0  0  0  0  0  0  0  0  0  0
  -13.8640    1.7600    2.7670 H   0  0  0  0  0  0  0  0  0  0  0  0
  -12.4180   -1.6940   -2.7700 H   0  0  0  0  0  0  0  0  0  0  0  0
   -5.0610   -1.4490    1.4740 H   0  0  0  0  0  0  0  0  0  0  0  0
   -4.3750   -2.2100    0.0480 H   0  0  0  0  0  0  0  0  0  0  0  0
   -8.2310    1.8060   -1.4160 H   0  0  0  0  0  0  0  0  0  0  0  0
   -5.8110    2.1650   -1.5600 H   0  0  0  0  0  0  0  0  0  0  0  0
   -6.4650    2.9880   -0.1510 H   0  0  0  0  0  0  0  0  0  0  0  0
   -4.1270    3.7420   -0.5950 H   0  0  0  0  0  0  0  0  0  0  0  0
   -4.2410    2.9760    0.9780 H   0  0  0  0  0  0  0  0  0  0  0  0
   -2.5460   -1.5990   -0.0170 H   0  0  0  0  0  0  0  0  0  0  0  0
   -2.6980   -0.8080   -1.5820 H   0  0  0  0  0  0  0  0  0  0  0  0
   -1.6190    3.1980   -0.8090 H   0  0  0  0  0  0  0  0  0  0  0  0
   -1.8290    2.7080    0.8620 H   0  0  0  0  0  0  0  0  0  0  0  0
    3.1050    1.7420   -1.3820 H   0  0  0  0  0  0  0  0  0  0  0  0
    2.9890    2.1790    0.3200 H   0  0  0  0  0  0  0  0  0  0  0  0
    4.6770   -2.5470    0.2680 H   0  0  0  0  0  0  0  0  0  0  0  0
    4.4600   -2.9430   -1.4230 H   0  0  0  0  0  0  0  0  0  0  0  0
    6.8400   -2.3360   -0.9450 H   0  0  0  0  0  0  0  0  0  0  0  0
    6.1360   -1.2310   -2.1190 H   0  0  0  0  0  0  0  0  0  0  0  0
    4.9800    2.7950    0.3330 H   0  0  0  0  0  0  0  0  0  0  0  0
    5.5790    1.7320    1.6010 H   0  0  0  0  0  0  0  0  0  0  0  0
    8.5410   -0.9210   -2.0510 H   0  0  0  0  0  0  0  0  0  0  0  0
   13.2450   -2.1830   -1.0370 H   0  0  0  0  0  0  0  0  0  0  0  0
   13.5790   -2.3900    0.6660 H   0  0  0  0  0  0  0  0  0  0  0  0
   11.3520   -3.8870   -1.3480 H   0  0  0  0  0  0  0  0  0  0  0  0
    9.7610   -3.2020   -0.9900 H   0  0  0  0  0  0  0  0  0  0  0  0
   10.9090   -2.2870   -1.9590 H   0  0  0  0  0  0  0  0  0  0  0  0
   11.9490   -4.1760    1.2350 H   0  0  0  0  0  0  0  0  0  0  0  0
   11.6300   -2.7900    2.3120 H   0  0  0  0  0  0  0  0  0  0  0  0
    9.6420   -3.5950    2.3550 H   0  0  0  0  0  0  0  0  0  0  0  0
   14.3950   -0.0060   -0.9030 H   0  0  0  0  0  0  0  0  0  0  0  0
   11.4500    3.1940    1.4480 H   0  0  0  0  0  0  0  0  0  0  0  0
   12.6480    1.9580    1.7430 H   0  0  0  0  0  0  0  0  0  0  0  0
   12.3910    2.5290    0.0990 H   0  0  0  0  0  0  0  0  0  0  0  0
   10.4040    3.2150   -0.8740 H   0  0  0  0  0  0  0  0  0  0  0  0
    7.1260    1.0280    2.4010 H   0  0  0  0  0  0  0  0  0  0  0  0
    8.5300   -0.0040    2.1710 H   0  0  0  0  0  0  0  0  0  0  0  0
    8.7190    1.7230    2.5740 H   0  0  0  0  0  0  0  0  0  0  0  0
    7.9300    4.1550    0.7300 H   0  0  0  0  0  0  0  0  0  0  0  0
    2.0000   -2.3980   -1.2860 H   0  0  0  0  0  0  0  0  0  0  0  0
    2.2870   -2.1530    0.4250 H   0  0  0  0  0  0  0  0  0  0  0  0
    2.7230   -0.0990    1.8060 H   0  0  0  0  0  0  0  0  0  0  0  0
    4.1730   -1.1010    1.7420 H   0  0  0  0  0  0  0  0  0  0  0  0
    4.2980    0.6200    2.1140 H   0  0  0  0  0  0  0  0  0  0  0  0
   -3.6480    1.3470    2.0800 H   0  0  0  0  0  0  0  0  0  0  0  0
   -3.7030   -0.4130    2.1370 H   0  0  0  0  0  0  0  0  0  0  0  0
   -2.1730    0.4140    1.8860 H   0  0  0  0  0  0  0  0  0  0  0  0
   -7.3280   -3.7570    0.1100 H   0  0  0  0  0  0  0  0  0  0  0  0
   -7.9740   -1.9880    2.3710 H   0  0  0  0  0  0  0  0  0  0  0  0
   -6.6680   -0.8180    2.4010 H   0  0  0  0  0  0  0  0  0  0  0  0
   -8.3450   -0.2530    2.3610 H   0  0  0  0  0  0  0  0  0  0  0  0
   -9.8310   -2.6650   -1.2760 H   0  0  0  0  0  0  0  0  0  0  0  0
  1 85  1  0
  1  2  1  0
  1 83  1  0
  1 84  1  0
  2 17  1  0
  2  4  1  0
  2  3  1  1
  4 14  1  6
  4  5  1  0
  4  9  1  0
  5 13  1  0
  5  7  1  0
  5  6  1  1
  7 86  1  0
  7 87  1  0
  7  8  1  0
  8 10  1  6
  8  9  1  0
  8 11  1  0
 10 90  1  0
 10 88  1  0
 10 89  1  0
 11 91  1  0
 11 92  1  0
 11 12  1  0
 12 93  1  0
 13 94  1  0
 14 15  1  0
 15 16  1  6
 15 27  1  0
 15 17  1  0
 17 82  1  6
 17 18  1  0
 18 26  1  0
 18 19  1  0
 18 81  1  1
 19 20  1  6
 19 21  1  0
 19 80  1  0
 21 22  1  0
 21 96  1  0
 21 95  1  0
 22 23  1  6
 22 32  1  0
 22 24  1  0
 24 28  1  0
 24 26  1  0
 24 25  1  1
 26 27  2  0
 27 97  1  0
 28 98  1  0
 28 99  1  0
 28 29  1  0
 29100  1  0
 29 30  1  0
 29101  1  0
 30 31  1  6
 30 36  1  0
 30 32  1  0
 32 33  1  0
 32 79  1  1
 33103  1  0
 33 34  1  0
 33102  1  0
 34 77  2  0
 34 35  1  0
 35 37  2  0
 35 36  1  0
 36104  1  0
 36105  1  0
 37 38  1  0
 38 76  2  0
 38 39  1  0
 39106  1  0
 39 40  1  0
 39107  1  0
 40 41  1  0
 40 47  1  0
 40 78  1  1
 41 42  1  6
 41 43  1  0
 41 75  1  0
 43109  1  0
 43 44  1  0
 43108  1  0
 44111  1  0
 44110  1  0
 44 45  1  0
 45 53  1  0
 45 47  1  0
 45 46  1  1
 47 48  1  6
 47 49  1  0
 49 50  1  0
 49112  1  0
 49113  1  0
 50 51  1  6
 50 52  1  0
 50 74  1  0
 52 53  1  0
 52 57  1  0
 52 73  1  1
 53 54  2  0
 54114  1  0
 54 55  1  0
 55 56  1  6
 55 61  1  0
 55 57  1  0
 57 72  1  6
 57 58  1  0
 58 60  1  0
 58 71  1  0
 58 59  1  1
 60 61  1  6
 60 62  1  0
 60 66  1  0
 62 70  1  0
 62 64  1  0
 62 63  1  1
 64115  1  0
 64 65  1  0
 64116  1  0
 65 67  1  6
 65 66  1  0
 65 68  1  0
 67119  1  0
 67117  1  0
 67118  1  0
 68120  1  0
 68 69  1  0
 68121  1  0
 69122  1  0
 70123  1  0
 71126  1  0
 71124  1  0
 71125  1  0
 72127  1  0
 73129  1  0
 73128  1  0
 73130  1  0
 74131  1  0
 75132  1  0
 75 76  1  0
 75133  1  0
 76 77  1  0
 78135  1  0
 78134  1  0
 78136  1  0
 79139  1  0
 79137  1  0
 79138  1  0
 80140  1  0
 81143  1  0
 81141  1  0
 81142  1  0
 82144  1  0
M  END
>  <id>  (384) 
486

>  <scaffolds>  (384) 
['C1=C2C(CCC3C2CCC2Cc4nc5c(nc4CC23)CC2CCC3C4=CC6OC7(CCCO7)CC6C4CCC3C2C5)C2CC3(CCCO3)OC12', 'C1CCCCC1', 'C=C1CCCC2CCCCC12', 'C1CCC2CCCCC2C1']

>  <name>  (384) 
Cephalostatin 12

>  <formula>  (384) 
C54H76N2O12

>  <SMILES>  (384) 
C[C@@H]1[C@]2([C@@H](C[C@@](O2)(C)CO)O)O[C@@H]3[C@]1([C@]4([C@@H](C[C@H]5[C@H](C4=C3)CC[C@@H]6[C@@]5(CC7=C(C6)N=C8C[C@]9([C@@H](CC[C@@H]1[C@@H]9C[C@H]([C@]2(C1=C[C@H]1[C@@]2([C@@H]([C@@]2(O1)[C@@H](C[C@@](O2)(C)CO)O)C)O)C)O)CC8=N7)C)C)O)C)O

>  <ChEMBL_id>  (384) 
CHEMBL403143

>  <ZINC_id>  (384) 


>  <PubChem_id>  (384) 


>  <DrugBank_id>  (384) 


>  <CAS_no>  (384) 
158371-96-1

>  <references>  (384) 
[{'journal': {'name': 'Bioorganic & Medicinal Chemistry Letters', 'id': 28}, 'title': 'Isolation and structure of the symmetrical disteroidal alkaloids cephalostatin 12 and cephalostatin 13', 'year': 1994, 'start_page': 1507, 'volume': 4, 'issue': 12, 'doi': '10.1016/S0960-894X(01)80522-9', 'isbn': '', 'despositor': {'code': 'TMM', 'first_name': 'Thommas', 'last_name': 'Musyoka', 'id': 22}, 'refauthors_set': [{'author': {'first_name': 'George', 'initials': 'GR', 'last_name': 'Pettit', 'id': 478}, 'first_author': True, 'id': 1007}, {'author': {'first_name': '', 'initials': 'Y', 'last_name': 'Ichihara', 'id': 681}, 'first_author': None, 'id': 1008}, {'author': {'first_name': '', 'initials': 'J', 'last_name': 'Xu', 'id': 680}, 'first_author': None, 'id': 1009}, {'author': {'first_name': 'Michael', 'initials': 'R', 'last_name': 'Boyd', 'id': 683}, 'first_author': None, 'id': 1010}, {'author': {'first_name': 'Michael', 'initials': 'D', 'last_name': 'Williams', 'id': 682}, 'first_author': None, 'id': 1011}], 'id': 332}]

>  <classifications>  (384) 
[{'classification': 'Alkaloid', 'id': 738}, {'classification': 'Cephalostatin', 'id': 759}, {'classification': 'Steroid', 'id': 835}, {'classification': 'Steroids and steroid derivatives (Classyfire)', 'id': 942}]

>  <molecular_mass>  (384) 
945.18

$$$$
SANC00487_minRM1.pdb
     RDKit          3D

145157  0  0  1  0  0  0  0  0999 V2000
   10.8830    1.9110    1.8670 C   0  0  0  0  0  0  0  0  0  0  0  0
   10.3400    0.8250    0.9620 C   0  0  2  0  0  0  0  0  0  0  0  0
   10.1020   -0.0800    1.5860 H   0  0  0  0  0  0  0  0  0  0  0  0
   11.3410    0.3950   -0.1370 C   0  0  1  0  0  0  0  0  0  0  0  0
   12.1630    1.5410   -0.7970 C   0  0  1  0  0  0  0  0  0  0  0  0
   11.9340    2.5410   -0.3160 H   0  0  0  0  0  0  0  0  0  0  0  0
   13.6290    1.1240   -0.5580 C   0  0  0  0  0  0  0  0  0  0  0  0
   13.5270   -0.3600   -0.1510 C   0  0  1  0  0  0  0  0  0  0  0  0
   12.2290   -0.5510    0.3800 O   0  0  0  0  0  0  0  0  0  0  0  0
   13.7280   -1.2750   -1.3550 C   0  0  0  0  0  0  0  0  0  0  0  0
   14.5110   -0.6730    0.9990 C   0  0  0  0  0  0  0  0  0  0  0  0
   14.5450   -2.0550    1.1820 O   0  0  0  0  0  0  0  0  0  0  0  0
   11.8210    1.5320   -2.1580 O   0  0  0  0  0  0  0  0  0  0  0  0
   10.5880   -0.2980   -1.1010 O   0  0  0  0  0  0  0  0  0  0  0  0
    9.3270    0.3180   -1.1860 C   0  0  2  0  0  0  0  0  0  0  0  0
    9.2850    0.9040   -2.1380 H   0  0  0  0  0  0  0  0  0  0  0  0
    9.1080    1.1950    0.1070 C   0  0  1  0  0  0  0  0  0  0  0  0
    7.7120    0.7560    0.6630 C   0  0  1  0  0  0  0  0  0  0  0  0
    6.6160    1.8180    0.4280 C   0  0  1  0  0  0  0  0  0  0  0  0
    6.6410    2.1520   -0.6510 H   0  0  0  0  0  0  0  0  0  0  0  0
    5.2260    1.2400    0.7360 C   0  0  0  0  0  0  0  0  0  0  0  0
    4.9350    0.0270   -0.1480 C   0  0  1  0  0  0  0  0  0  0  0  0
    4.9750    0.3570   -1.2220 H   0  0  0  0  0  0  0  0  0  0  0  0
    6.0080   -1.0560    0.0470 C   0  0  2  0  0  0  0  0  0  0  0  0
    5.9920   -1.4490    1.0960 H   0  0  0  0  0  0  0  0  0  0  0  0
    7.3300   -0.4210   -0.2020 C   0  0  0  0  0  0  0  0  0  0  0  0
    8.2300   -0.7050   -1.1440 C   0  0  0  0  0  0  0  0  0  0  0  0
    5.7240   -2.2100   -0.9140 C   0  0  0  0  0  0  0  0  0  0  0  0
    4.3450   -2.7970   -0.6360 C   0  0  0  0  0  0  0  0  0  0  0  0
    3.2560   -1.7320   -0.7790 C   0  0  2  0  0  0  0  0  0  0  0  0
    3.2530   -1.3720   -1.8430 H   0  0  0  0  0  0  0  0  0  0  0  0
    3.5250   -0.5310    0.1380 C   0  0  2  0  0  0  0  0  0  0  0  0
    2.5100    0.5680   -0.2160 C   0  0  0  0  0  0  0  0  0  0  0  0
    1.1100    0.0520   -0.2390 C   0  0  0  0  0  0  0  0  0  0  0  0
    0.8130   -1.3200   -0.3790 C   0  0  0  0  0  0  0  0  0  0  0  0
    1.8900   -2.3540   -0.4740 C   0  0  0  0  0  0  0  0  0  0  0  0
   -0.4690   -1.7580   -0.4080 N   0  0  0  0  0  0  0  0  0  0  0  0
   -1.4420   -0.8220   -0.3040 C   0  0  0  0  0  0  0  0  0  0  0  0
   -2.8650   -1.3430   -0.3640 C   0  0  1  0  0  0  0  0  0  0  0  0
   -2.9420   -2.2600    0.2880 H   0  0  0  0  0  0  0  0  0  0  0  0
   -3.8900   -0.2790    0.1210 C   0  0  1  0  0  0  0  0  0  0  0  0
   -3.5660    1.0590   -0.5620 C   0  0  1  0  0  0  0  0  0  0  0  0
   -3.5380    0.8850   -1.6710 H   0  0  0  0  0  0  0  0  0  0  0  0
   -4.6080    2.1410   -0.2720 C   0  0  0  0  0  0  0  0  0  0  0  0
   -6.0030    1.6650   -0.6440 C   0  0  0  0  0  0  0  0  0  0  0  0
   -6.3230    0.3940    0.1380 C   0  0  2  0  0  0  0  0  0  0  0  0
   -6.2620    0.6200    1.2330 H   0  0  0  0  0  0  0  0  0  0  0  0
   -5.3270   -0.7100   -0.2600 C   0  0  2  0  0  0  0  0  0  0  0  0
   -5.3910   -0.8300   -1.3740 H   0  0  0  0  0  0  0  0  0  0  0  0
   -5.6960   -2.0550    0.3720 C   0  0  0  0  0  0  0  0  0  0  0  0
   -7.1680   -2.4470    0.1210 C   0  0  2  0  0  0  0  0  0  0  0  0
   -7.3230   -2.6150   -0.9810 H   0  0  0  0  0  0  0  0  0  0  0  0
   -8.1290   -1.3320    0.5980 C   0  0  1  0  0  0  0  0  0  0  0  0
   -7.6820   -0.1110   -0.1610 C   0  0  0  0  0  0  0  0  0  0  0  0
   -8.5280    0.2570   -1.1240 C   0  0  0  0  0  0  0  0  0  0  0  0
   -9.6870   -0.6910   -1.2260 C   0  0  1  0  0  0  0  0  0  0  0  0
   -9.6500   -1.2900   -2.1660 H   0  0  0  0  0  0  0  0  0  0  0  0
   -9.5980   -1.5210    0.1010 C   0  0  2  0  0  0  0  0  0  0  0  0
  -10.6890   -0.8530    0.9900 C   0  0  1  0  0  0  0  0  0  0  0  0
  -10.2200   -0.3560    1.8800 H   0  0  0  0  0  0  0  0  0  0  0  0
  -11.3030    0.2400    0.0750 C   0  0  1  0  0  0  0  0  0  0  0  0
  -10.9310   -0.0480   -1.2450 O   0  0  0  0  0  0  0  0  0  0  0  0
  -12.8360    0.4910    0.1250 C   0  0  1  0  0  0  0  0  0  0  0  0
  -13.2750    0.1360    1.0960 H   0  0  0  0  0  0  0  0  0  0  0  0
  -12.9630    2.0240    0.0340 C   0  0  0  0  0  0  0  0  0  0  0  0
  -11.5090    2.5370   -0.0320 C   0  0  1  0  0  0  0  0  0  0  0  0
  -10.6920    1.4680    0.3980 O   0  0  0  0  0  0  0  0  0  0  0  0
  -11.1380    2.9630   -1.4510 C   0  0  0  0  0  0  0  0  0  0  0  0
  -11.2640    3.6770    0.9900 C   0  0  0  0  0  0  0  0  0  0  0  0
  -10.0000    4.2130    0.7270 O   0  0  0  0  0  0  0  0  0  0  0  0
  -13.3900   -0.1890   -0.9530 O   0  0  0  0  0  0  0  0  0  0  0  0
  -11.7260   -1.8360    1.5070 C   0  0  0  0  0  0  0  0  0  0  0  0
   -9.7950   -2.8730   -0.1180 O   0  0  0  0  0  0  0  0  0  0  0  0
   -8.0510   -1.1870    2.1070 C   0  0  0  0  0  0  0  0  0  0  0  0
   -7.4020   -3.6010    0.8650 O   0  0  0  0  0  0  0  0  0  0  0  0
   -2.2030    1.5930   -0.1150 C   0  0  0  0  0  0  0  0  0  0  0  0
   -1.1430    0.5480   -0.1970 C   0  0  0  0  0  0  0  0  0  0  0  0
    0.1380    0.9910   -0.1520 N   0  0  0  0  0  0  0  0  0  0  0  0
   -3.7400   -0.1820    1.6390 C   0  0  0  0  0  0  0  0  0  0  0  0
   -3.1580   -1.6380   -1.6990 O   0  0  0  0  0  0  0  0  0  0  0  0
    3.3630   -0.9060    1.6070 C   0  0  0  0  0  0  0  0  0  0  0  0
    6.9090    2.8860    1.2800 O   0  0  0  0  0  0  0  0  0  0  0  0
    7.7760    0.3670    2.1330 C   0  0  0  0  0  0  0  0  0  0  0  0
    9.2320    2.5490   -0.1680 O   0  0  0  0  0  0  0  0  0  0  0  0
   10.1070    2.3110    2.5340 H   0  0  0  0  0  0  0  0  0  0  0  0
   11.7030    1.5340    2.4950 H   0  0  0  0  0  0  0  0  0  0  0  0
   11.2830    2.7790    1.3150 H   0  0  0  0  0  0  0  0  0  0  0  0
   14.2800    1.2740   -1.4370 H   0  0  0  0  0  0  0  0  0  0  0  0
   14.0860    1.7500    0.2400 H   0  0  0  0  0  0  0  0  0  0  0  0
   14.7960   -1.3530   -1.6300 H   0  0  0  0  0  0  0  0  0  0  0  0
   13.3780   -2.3020   -1.1470 H   0  0  0  0  0  0  0  0  0  0  0  0
   13.1650   -0.9350   -2.2230 H   0  0  0  0  0  0  0  0  0  0  0  0
   15.5400   -0.3330    0.7200 H   0  0  0  0  0  0  0  0  0  0  0  0
   14.2350   -0.1000    1.9200 H   0  0  0  0  0  0  0  0  0  0  0  0
   14.4660   -2.2230    2.1290 H   0  0  0  0  0  0  0  0  0  0  0  0
   12.2410    2.3030   -2.5530 H   0  0  0  0  0  0  0  0  0  0  0  0
    5.1290    0.9850    1.8160 H   0  0  0  0  0  0  0  0  0  0  0  0
    4.4540    2.0290    0.5770 H   0  0  0  0  0  0  0  0  0  0  0  0
    8.2350   -1.5360   -1.8470 H   0  0  0  0  0  0  0  0  0  0  0  0
    5.8000   -1.8830   -1.9740 H   0  0  0  0  0  0  0  0  0  0  0  0
    6.5000   -2.9990   -0.8060 H   0  0  0  0  0  0  0  0  0  0  0  0
    4.1440   -3.6370   -1.3370 H   0  0  0  0  0  0  0  0  0  0  0  0
    4.3230   -3.2720    0.3680 H   0  0  0  0  0  0  0  0  0  0  0  0
    2.5990    1.4220    0.4960 H   0  0  0  0  0  0  0  0  0  0  0  0
    2.7280    1.0170   -1.2110 H   0  0  0  0  0  0  0  0  0  0  0  0
    1.6360   -3.1030   -1.2590 H   0  0  0  0  0  0  0  0  0  0  0  0
    1.9080   -2.9440    0.4690 H   0  0  0  0  0  0  0  0  0  0  0  0
   -4.5840    2.4650    0.7900 H   0  0  0  0  0  0  0  0  0  0  0  0
   -4.3600    3.0650   -0.8390 H   0  0  0  0  0  0  0  0  0  0  0  0
   -6.7560    2.4530   -0.4310 H   0  0  0  0  0  0  0  0  0  0  0  0
   -6.0750    1.4990   -1.7400 H   0  0  0  0  0  0  0  0  0  0  0  0
   -5.0570   -2.8650   -0.0450 H   0  0  0  0  0  0  0  0  0  0  0  0
   -5.4690   -2.0620    1.4620 H   0  0  0  0  0  0  0  0  0  0  0  0
   -8.4620    1.1080   -1.7950 H   0  0  0  0  0  0  0  0  0  0  0  0
  -13.5620    2.3630   -0.8300 H   0  0  0  0  0  0  0  0  0  0  0  0
  -13.5160    2.4330    0.9110 H   0  0  0  0  0  0  0  0  0  0  0  0
  -11.6650    3.8830   -1.7340 H   0  0  0  0  0  0  0  0  0  0  0  0
  -10.0590    3.1510   -1.5640 H   0  0  0  0  0  0  0  0  0  0  0  0
  -11.4040    2.1970   -2.2000 H   0  0  0  0  0  0  0  0  0  0  0  0
  -12.0290    4.4770    0.8390 H   0  0  0  0  0  0  0  0  0  0  0  0
  -11.4010    3.3150    2.0380 H   0  0  0  0  0  0  0  0  0  0  0  0
   -9.5990    4.4170    1.5780 H   0  0  0  0  0  0  0  0  0  0  0  0
  -14.3200    0.0570   -0.9890 H   0  0  0  0  0  0  0  0  0  0  0  0
  -11.2570   -2.7210    1.9640 H   0  0  0  0  0  0  0  0  0  0  0  0
  -12.3550   -1.3940    2.2950 H   0  0  0  0  0  0  0  0  0  0  0  0
  -12.4110   -2.1990    0.7260 H   0  0  0  0  0  0  0  0  0  0  0  0
  -10.6410   -2.9840   -0.5640 H   0  0  0  0  0  0  0  0  0  0  0  0
   -7.0220   -1.1210    2.4870 H   0  0  0  0  0  0  0  0  0  0  0  0
   -8.5710   -0.2820    2.4630 H   0  0  0  0  0  0  0  0  0  0  0  0
   -8.5090   -2.0500    2.6150 H   0  0  0  0  0  0  0  0  0  0  0  0
   -7.7750   -4.2700    0.2800 H   0  0  0  0  0  0  0  0  0  0  0  0
   -1.9240    2.4780   -0.7320 H   0  0  0  0  0  0  0  0  0  0  0  0
   -2.2330    1.9920    0.9240 H   0  0  0  0  0  0  0  0  0  0  0  0
   -2.6950   -0.2120    1.9750 H   0  0  0  0  0  0  0  0  0  0  0  0
   -4.1610    0.7420    2.0600 H   0  0  0  0  0  0  0  0  0  0  0  0
   -4.2450   -1.0120    2.1610 H   0  0  0  0  0  0  0  0  0  0  0  0
   -2.5880   -2.3700   -1.9640 H   0  0  0  0  0  0  0  0  0  0  0  0
    3.8200   -1.8750    1.8630 H   0  0  0  0  0  0  0  0  0  0  0  0
    3.8140   -0.1630    2.2840 H   0  0  0  0  0  0  0  0  0  0  0  0
    2.3090   -0.9840    1.9140 H   0  0  0  0  0  0  0  0  0  0  0  0
    6.2410    3.5650    1.1390 H   0  0  0  0  0  0  0  0  0  0  0  0
    8.0610    1.2150    2.7740 H   0  0  0  0  0  0  0  0  0  0  0  0
    6.8200   -0.0010    2.5290 H   0  0  0  0  0  0  0  0  0  0  0  0
    8.5160   -0.4320    2.3080 H   0  0  0  0  0  0  0  0  0  0  0  0
    8.5240    2.7990   -0.7700 H   0  0  0  0  0  0  0  0  0  0  0  0
  1  2  1  0
  1 87  1  0
  1 86  1  0
  1 85  1  0
  2  4  1  0
  2 17  1  0
  2  3  1  1
  4 14  1  6
  4  5  1  0
  4  9  1  0
  5 13  1  0
  5  7  1  0
  5  6  1  1
  7 88  1  0
  7  8  1  0
  7 89  1  0
  8 10  1  6
  8  9  1  0
  8 11  1  0
 10 92  1  0
 10 90  1  0
 10 91  1  0
 11 93  1  0
 11 12  1  0
 11 94  1  0
 12 95  1  0
 13 96  1  0
 14 15  1  0
 15 16  1  6
 15 27  1  0
 15 17  1  0
 17 84  1  6
 17 18  1  0
 18 26  1  0
 18 19  1  0
 18 83  1  1
 19 20  1  6
 19 21  1  0
 19 82  1  0
 21 22  1  0
 21 98  1  0
 21 97  1  0
 22 23  1  6
 22 24  1  0
 22 32  1  0
 24 28  1  0
 24 26  1  0
 24 25  1  1
 26 27  2  0
 27 99  1  0
 28100  1  0
 28101  1  0
 28 29  1  0
 29102  1  0
 29 30  1  0
 29103  1  0
 30 31  1  6
 30 36  1  0
 30 32  1  0
 32 33  1  0
 32 81  1  1
 33105  1  0
 33 34  1  0
 33104  1  0
 34 35  2  0
 34 78  1  0
 35 36  1  0
 35 37  1  0
 36106  1  0
 36107  1  0
 37 38  2  0
 38 39  1  0
 38 77  1  0
 39 80  1  0
 39 41  1  0
 39 40  1  1
 41 42  1  0
 41 48  1  0
 41 79  1  1
 42 43  1  6
 42 44  1  0
 42 76  1  0
 44109  1  0
 44 45  1  0
 44108  1  0
 45111  1  0
 45110  1  0
 45 46  1  0
 46 48  1  0
 46 54  1  0
 46 47  1  1
 48 49  1  6
 48 50  1  0
 50112  1  0
 50 51  1  0
 50113  1  0
 51 52  1  6
 51 53  1  0
 51 75  1  0
 53 54  1  0
 53 58  1  0
 53 74  1  1
 54 55  2  0
 55114  1  0
 55 56  1  0
 56 57  1  6
 56 62  1  0
 56 58  1  0
 58 73  1  6
 58 59  1  0
 59 61  1  0
 59 72  1  0
 59 60  1  1
 61 62  1  6
 61 63  1  0
 61 67  1  0
 63 71  1  0
 63 65  1  0
 63 64  1  1
 65115  1  0
 65 66  1  0
 65116  1  0
 66 68  1  6
 66 67  1  0
 66 69  1  0
 68119  1  0
 68117  1  0
 68118  1  0
 69 70  1  0
 69120  1  0
 69121  1  0
 70122  1  0
 71123  1  0
 72126  1  0
 72124  1  0
 72125  1  0
 73127  1  0
 74129  1  0
 74128  1  0
 74130  1  0
 75131  1  0
 76132  1  0
 76 77  1  0
 76133  1  0
 77 78  2  0
 79134  1  0
 79135  1  0
 79136  1  0
 80137  1  0
 81138  1  0
 81140  1  0
 81139  1  0
 82141  1  0
 83144  1  0
 83143  1  0
 83142  1  0
 84145  1  0
M  END
>  <id>  (385) 
487

>  <scaffolds>  (385) 
['C1=C2C(CCC3C2CCC2Cc4nc5c(nc4CC23)CC2CCC3C4=CC6OC7(CCCO7)CC6C4CCC3C2C5)C2CC3(CCCO3)OC12', 'C1CCCCC1', 'C=C1CCCC2CCCCC12', 'C1CCC2CCCCC2C1']

>  <name>  (385) 
Cephalostatin 13

>  <formula>  (385) 
C54H76N2O13

>  <SMILES>  (385) 
C[C@@H]1[C@]2([C@@H](C[C@@](O2)(C)CO)O)O[C@@H]3[C@]1([C@]4([C@@H](C[C@H]5[C@H](C4=C3)CC[C@@H]6[C@@]5(CC7=C(C6)N=C8[C@@H]([C@]9([C@@H](CC[C@@H]1[C@@H]9C[C@H]([C@]2(C1=C[C@H]1[C@@]2([C@@H]([C@@]2(O1)[C@@H](C[C@@](O2)(C)CO)O)C)O)C)O)CC8=N7)C)O)C)O)C)O

>  <ChEMBL_id>  (385) 
CHEMBL256953

>  <ZINC_id>  (385) 


>  <PubChem_id>  (385) 


>  <DrugBank_id>  (385) 


>  <CAS_no>  (385) 
158371-97-2

>  <references>  (385) 
[{'journal': {'name': 'Bioorganic & Medicinal Chemistry Letters', 'id': 28}, 'title': 'Isolation and structure of the symmetrical disteroidal alkaloids cephalostatin 12 and cephalostatin 13', 'year': 1994, 'start_page': 1507, 'volume': 4, 'issue': 12, 'doi': '10.1016/S0960-894X(01)80522-9', 'isbn': '', 'despositor': {'code': 'TMM', 'first_name': 'Thommas', 'last_name': 'Musyoka', 'id': 22}, 'refauthors_set': [{'author': {'first_name': 'George', 'initials': 'GR', 'last_name': 'Pettit', 'id': 478}, 'first_author': True, 'id': 1007}, {'author': {'first_name': '', 'initials': 'Y', 'last_name': 'Ichihara', 'id': 681}, 'first_author': None, 'id': 1008}, {'author': {'first_name': '', 'initials': 'J', 'last_name': 'Xu', 'id': 680}, 'first_author': None, 'id': 1009}, {'author': {'first_name': 'Michael', 'initials': 'R', 'last_name': 'Boyd', 'id': 683}, 'first_author': None, 'id': 1010}, {'author': {'first_name': 'Michael', 'initials': 'D', 'last_name': 'Williams', 'id': 682}, 'first_author': None, 'id': 1011}], 'id': 332}]

>  <classifications>  (385) 
[{'classification': 'Alkaloid', 'id': 738}, {'classification': 'Cephalostatin', 'id': 759}, {'classification': 'Steroid', 'id': 835}, {'classification': 'Steroids and steroid derivatives (Classyfire)', 'id': 942}]

>  <molecular_mass>  (385) 
961.18

$$$$
SANC00488_minRM1.pdb
     RDKit          3D

140153  0  0  1  0  0  0  0  0999 V2000
  -11.6240    0.2450    0.5030 C   0  0  0  0  0  0  0  0  0  0  0  0
  -10.2240    0.3750   -0.0900 C   0  0  1  0  0  0  0  0  0  0  0  0
   -9.2560    0.8440    1.0080 C   0  0  2  0  0  0  0  0  0  0  0  0
   -9.3330    2.3810    1.1570 C   0  0  0  0  0  0  0  0  0  0  0  0
   -8.2100    2.9370    0.2970 C   0  0  2  0  0  0  0  0  0  0  0  0
   -8.1570    2.3630   -1.0050 O   0  0  0  0  0  0  0  0  0  0  0  0
   -7.2750    1.8070   -0.0520 C   0  0  1  0  0  0  0  0  0  0  0  0
   -5.7940    1.9260   -0.3820 C   0  0  2  0  0  0  0  0  0  0  0  0
   -5.4490    3.2780   -0.3450 O   0  0  0  0  0  0  0  0  0  0  0  0
   -5.5340    1.3040   -1.7650 C   0  0  0  0  0  0  0  0  0  0  0  0
   -4.0640    1.4390   -2.1210 C   0  0  0  0  0  0  0  0  0  0  0  0
   -3.2020    0.7150   -1.0890 C   0  0  1  0  0  0  0  0  0  0  0  0
   -1.7350    0.8520   -1.4940 C   0  0  0  0  0  0  0  0  0  0  0  0
   -0.8160    0.3150   -0.4460 C   0  0  0  0  0  0  0  0  0  0  0  0
    0.4570    0.0460   -0.8270 N   0  0  0  0  0  0  0  0  0  0  0  0
    1.3170   -0.3330    0.1450 C   0  0  0  0  0  0  0  0  0  0  0  0
    2.6980   -0.7220   -0.2610 C   0  0  0  0  0  0  0  0  0  0  0  0
    3.7240   -0.3300    0.8120 C   0  0  1  0  0  0  0  0  0  0  0  0
    3.6810    1.1940    0.9680 C   0  0  0  0  0  0  0  0  0  0  0  0
    3.3180   -1.0110    2.1260 C   0  0  1  0  0  0  0  0  0  0  0  0
    4.2820   -0.6690    3.2700 C   0  0  0  0  0  0  0  0  0  0  0  0
    5.7370   -0.5480    2.8290 C   0  0  0  0  0  0  0  0  0  0  0  0
    5.9660   -1.3470    1.5570 C   0  0  2  0  0  0  0  0  0  0  0  0
    7.3840   -1.3530    1.1180 C   0  0  0  0  0  0  0  0  0  0  0  0
    8.4140   -0.7010    1.6500 C   0  0  0  0  0  0  0  0  0  0  0  0
    9.6770   -0.9270    0.8770 C   0  0  2  0  0  0  0  0  0  0  0  0
   10.2070    0.2970    0.4320 O   0  0  0  0  0  0  0  0  0  0  0  0
    9.7150    0.5710   -0.8460 C   0  0  1  0  0  0  0  0  0  0  0  0
    8.4580    1.1740   -0.6370 O   0  0  0  0  0  0  0  0  0  0  0  0
    8.4550    2.5200   -1.0640 C   0  0  1  0  0  0  0  0  0  0  0  0
    7.7000    2.5820   -2.3950 C   0  0  0  0  0  0  0  0  0  0  0  0
    7.6910    3.3230    0.0150 C   0  0  0  0  0  0  0  0  0  0  0  0
    8.3160    3.2390    1.2580 O   0  0  0  0  0  0  0  0  0  0  0  0
    9.9220    2.9480   -1.2290 C   0  0  0  0  0  0  0  0  0  0  0  0
   10.6350    1.6190   -1.5290 C   0  0  1  0  0  0  0  0  0  0  0  0
   11.9290    1.4880   -1.0380 O   0  0  0  0  0  0  0  0  0  0  0  0
    9.4860   -0.7820   -1.5620 C   0  0  1  0  0  0  0  0  0  0  0  0
   10.6740   -1.1420   -2.4380 C   0  0  0  0  0  0  0  0  0  0  0  0
    9.2360   -1.7630   -0.3830 C   0  0  1  0  0  0  0  0  0  0  0  0
    9.9640   -2.9360   -0.4960 O   0  0  0  0  0  0  0  0  0  0  0  0
    7.7410   -2.1760   -0.0970 C   0  0  1  0  0  0  0  0  0  0  0  0
    7.6380   -3.6550    0.2800 C   0  0  0  0  0  0  0  0  0  0  0  0
    6.7560   -1.8230   -1.2320 C   0  0  1  0  0  0  0  0  0  0  0  0
    6.9070   -2.8250   -2.2020 O   0  0  0  0  0  0  0  0  0  0  0  0
    5.2840   -1.7420   -0.7650 C   0  0  0  0  0  0  0  0  0  0  0  0
    5.1640   -0.7430    0.3910 C   0  0  1  0  0  0  0  0  0  0  0  0
    1.9020   -0.6480    2.5960 C   0  0  0  0  0  0  0  0  0  0  0  0
    0.9240   -0.3990    1.4960 C   0  0  0  0  0  0  0  0  0  0  0  0
   -0.3620   -0.1900    1.8690 N   0  0  0  0  0  0  0  0  0  0  0  0
   -1.2350    0.1450    0.8880 C   0  0  0  0  0  0  0  0  0  0  0  0
   -2.6690    0.2840    1.2900 C   0  0  0  0  0  0  0  0  0  0  0  0
   -3.4320    1.2330    0.3440 C   0  0  1  0  0  0  0  0  0  0  0  0
   -2.8770    2.6420    0.5640 C   0  0  0  0  0  0  0  0  0  0  0  0
   -4.9150    1.2330    0.6380 C   0  0  0  0  0  0  0  0  0  0  0  0
   -5.4570    0.6390    1.7030 C   0  0  0  0  0  0  0  0  0  0  0  0
   -6.9100    0.6040    1.9470 C   0  0  0  0  0  0  0  0  0  0  0  0
   -7.3680    0.5940    3.0740 O   0  0  0  0  0  0  0  0  0  0  0  0
   -7.7670    0.5800    0.6910 C   0  0  1  0  0  0  0  0  0  0  0  0
   -7.5340   -0.7540   -0.0090 C   0  0  0  0  0  0  0  0  0  0  0  0
   -8.4250   -0.9500   -1.0640 O   0  0  0  0  0  0  0  0  0  0  0  0
   -9.7870   -0.9560   -0.7250 C   0  0  1  0  0  0  0  0  0  0  0  0
   -9.9750   -2.0000    0.1900 O   0  0  0  0  0  0  0  0  0  0  0  0
  -10.3900   -3.1790   -0.4650 C   0  0  1  0  0  0  0  0  0  0  0  0
   -9.1600   -4.0190   -0.8060 C   0  0  0  0  0  0  0  0  0  0  0  0
  -11.2950   -3.9260    0.5070 C   0  0  0  0  0  0  0  0  0  0  0  0
  -11.1330   -2.7290   -1.7340 C   0  0  0  0  0  0  0  0  0  0  0  0
  -10.4900   -1.3730   -2.0680 C   0  0  1  0  0  0  0  0  0  0  0  0
  -11.4430   -0.4060   -2.4060 O   0  0  0  0  0  0  0  0  0  0  0  0
  -11.6540   -0.4550    1.3620 H   0  0  0  0  0  0  0  0  0  0  0  0
  -12.0070    1.2160    0.8650 H   0  0  0  0  0  0  0  0  0  0  0  0
  -12.3690   -0.1230   -0.2180 H   0  0  0  0  0  0  0  0  0  0  0  0
  -10.2480    1.1300   -0.9190 H   0  0  0  0  0  0  0  0  0  0  0  0
   -9.5330    0.3360    1.9640 H   0  0  0  0  0  0  0  0  0  0  0  0
  -10.3140    2.8030    0.8780 H   0  0  0  0  0  0  0  0  0  0  0  0
   -9.1680    2.6920    2.2050 H   0  0  0  0  0  0  0  0  0  0  0  0
   -7.9460    4.0000    0.3930 H   0  0  0  0  0  0  0  0  0  0  0  0
   -5.8480    3.7110   -1.1050 H   0  0  0  0  0  0  0  0  0  0  0  0
   -5.8510    0.2350   -1.7550 H   0  0  0  0  0  0  0  0  0  0  0  0
   -6.1730    1.7670   -2.5460 H   0  0  0  0  0  0  0  0  0  0  0  0
   -3.8800    1.0210   -3.1350 H   0  0  0  0  0  0  0  0  0  0  0  0
   -3.7810    2.5080   -2.2160 H   0  0  0  0  0  0  0  0  0  0  0  0
   -3.4760   -0.3740   -1.1100 H   0  0  0  0  0  0  0  0  0  0  0  0
   -1.5590    0.3410   -2.4680 H   0  0  0  0  0  0  0  0  0  0  0  0
   -1.4640    1.9130   -1.6950 H   0  0  0  0  0  0  0  0  0  0  0  0
    2.6780   -1.8230   -0.4290 H   0  0  0  0  0  0  0  0  0  0  0  0
    2.9650   -0.2780   -1.2460 H   0  0  0  0  0  0  0  0  0  0  0  0
    2.7130    1.5700    1.3220 H   0  0  0  0  0  0  0  0  0  0  0  0
    4.4260    1.5790    1.6760 H   0  0  0  0  0  0  0  0  0  0  0  0
    3.8660    1.7110    0.0160 H   0  0  0  0  0  0  0  0  0  0  0  0
    3.3420   -2.1180    1.9460 H   0  0  0  0  0  0  0  0  0  0  0  0
    3.9830    0.2710    3.7820 H   0  0  0  0  0  0  0  0  0  0  0  0
    4.1830   -1.4440    4.0620 H   0  0  0  0  0  0  0  0  0  0  0  0
    6.0240    0.5140    2.6800 H   0  0  0  0  0  0  0  0  0  0  0  0
    6.4100   -0.8980    3.6410 H   0  0  0  0  0  0  0  0  0  0  0  0
    5.6540   -2.4060    1.7580 H   0  0  0  0  0  0  0  0  0  0  0  0
    8.4260   -0.0570    2.5220 H   0  0  0  0  0  0  0  0  0  0  0  0
   10.4740   -1.3980    1.4990 H   0  0  0  0  0  0  0  0  0  0  0  0
    6.6930    2.1450   -2.3180 H   0  0  0  0  0  0  0  0  0  0  0  0
    7.5820    3.6140   -2.7520 H   0  0  0  0  0  0  0  0  0  0  0  0
    8.2170    2.0180   -3.1870 H   0  0  0  0  0  0  0  0  0  0  0  0
    7.6970    4.4130   -0.2240 H   0  0  0  0  0  0  0  0  0  0  0  0
    6.6250    2.9990    0.0580 H   0  0  0  0  0  0  0  0  0  0  0  0
    8.3420    2.3240    1.5360 H   0  0  0  0  0  0  0  0  0  0  0  0
   10.0590    3.6960   -2.0320 H   0  0  0  0  0  0  0  0  0  0  0  0
   10.3090    3.4430   -0.3150 H   0  0  0  0  0  0  0  0  0  0  0  0
   10.6950    1.4270   -2.6330 H   0  0  0  0  0  0  0  0  0  0  0  0
   12.2050    2.3070   -0.6340 H   0  0  0  0  0  0  0  0  0  0  0  0
    8.5950   -0.7110   -2.2340 H   0  0  0  0  0  0  0  0  0  0  0  0
   11.6350   -1.1060   -1.9060 H   0  0  0  0  0  0  0  0  0  0  0  0
   10.5720   -2.1440   -2.8800 H   0  0  0  0  0  0  0  0  0  0  0  0
   10.7760   -0.4420   -3.2830 H   0  0  0  0  0  0  0  0  0  0  0  0
   10.9030   -2.7180   -0.4820 H   0  0  0  0  0  0  0  0  0  0  0  0
    8.2490   -3.8900    1.1650 H   0  0  0  0  0  0  0  0  0  0  0  0
    6.6100   -3.9590    0.5120 H   0  0  0  0  0  0  0  0  0  0  0  0
    7.9690   -4.3290   -0.5280 H   0  0  0  0  0  0  0  0  0  0  0  0
    7.0190   -0.8130   -1.6670 H   0  0  0  0  0  0  0  0  0  0  0  0
    6.3480   -2.5900   -2.9480 H   0  0  0  0  0  0  0  0  0  0  0  0
    4.6750   -1.4280   -1.6410 H   0  0  0  0  0  0  0  0  0  0  0  0
    4.8910   -2.7420   -0.4930 H   0  0  0  0  0  0  0  0  0  0  0  0
    5.6920    0.1940    0.0600 H   0  0  0  0  0  0  0  0  0  0  0  0
    1.5250   -1.4430    3.2760 H   0  0  0  0  0  0  0  0  0  0  0  0
    1.9130    0.2630    3.2380 H   0  0  0  0  0  0  0  0  0  0  0  0
   -3.1140   -0.7370    1.2910 H   0  0  0  0  0  0  0  0  0  0  0  0
   -2.7400    0.6410    2.3420 H   0  0  0  0  0  0  0  0  0  0  0  0
   -1.7930    2.6490    0.7410 H   0  0  0  0  0  0  0  0  0  0  0  0
   -3.0390    3.3170   -0.2860 H   0  0  0  0  0  0  0  0  0  0  0  0
   -3.3380    3.1270    1.4380 H   0  0  0  0  0  0  0  0  0  0  0  0
   -4.8850    0.1450    2.4950 H   0  0  0  0  0  0  0  0  0  0  0  0
   -6.5400   -0.7910   -0.5140 H   0  0  0  0  0  0  0  0  0  0  0  0
   -7.5600   -1.5950    0.7210 H   0  0  0  0  0  0  0  0  0  0  0  0
   -8.5380   -4.2160    0.0770 H   0  0  0  0  0  0  0  0  0  0  0  0
   -9.4380   -4.9910   -1.2310 H   0  0  0  0  0  0  0  0  0  0  0  0
   -8.5120   -3.5280   -1.5480 H   0  0  0  0  0  0  0  0  0  0  0  0
  -12.1290   -3.3000    0.8550 H   0  0  0  0  0  0  0  0  0  0  0  0
  -11.7130   -4.8240    0.0470 H   0  0  0  0  0  0  0  0  0  0  0  0
  -10.7540   -4.2410    1.4100 H   0  0  0  0  0  0  0  0  0  0  0  0
  -11.0330   -3.4500   -2.5570 H   0  0  0  0  0  0  0  0  0  0  0  0
  -12.2220   -2.6330   -1.5620 H   0  0  0  0  0  0  0  0  0  0  0  0
   -9.7360   -1.4800   -2.8970 H   0  0  0  0  0  0  0  0  0  0  0  0
  -11.7440   -0.6130   -3.2970 H   0  0  0  0  0  0  0  0  0  0  0  0
  1 71  1  0
  1  2  1  0
  1 70  1  0
  1 69  1  0
  2 72  1  6
  2 61  1  0
  2  3  1  0
  3 58  1  0
  3  4  1  0
  3 73  1  1
  4  5  1  0
  4 74  1  0
  4 75  1  0
  5  6  1  0
  5  7  1  0
  5 76  1  6
  7  6  1  6
  7  8  1  0
  7 58  1  0
  8 10  1  0
  8  9  1  6
  8 54  1  0
  9 77  1  0
 10 79  1  0
 10 11  1  0
 10 78  1  0
 11 80  1  0
 11 81  1  0
 11 12  1  0
 12 13  1  0
 12 82  1  1
 12 52  1  0
 13 83  1  0
 13 84  1  0
 13 14  1  0
 14 15  2  0
 14 50  1  0
 15 16  1  0
 16 17  1  0
 16 48  2  0
 17 86  1  0
 17 85  1  0
 17 18  1  0
 18 46  1  0
 18 19  1  1
 18 20  1  0
 19 89  1  0
 19 87  1  0
 19 88  1  0
 20 90  1  6
 20 47  1  0
 20 21  1  0
 21 22  1  0
 21 91  1  0
 21 92  1  0
 22 23  1  0
 22 93  1  0
 22 94  1  0
 23 46  1  0
 23 24  1  0
 23 95  1  1
 24 41  1  0
 24 25  2  0
 25 26  1  0
 25 96  1  0
 26 39  1  0
 26 27  1  0
 26 97  1  1
 28 27  1  1
 28 37  1  0
 28 35  1  0
 28 29  1  0
 29 30  1  0
 30 31  1  6
 30 34  1  0
 30 32  1  0
 31100  1  0
 31 99  1  0
 31 98  1  0
 32101  1  0
 32102  1  0
 32 33  1  0
 33103  1  0
 34104  1  0
 34 35  1  0
 34105  1  0
 35106  1  6
 35 36  1  0
 36107  1  0
 37 38  1  0
 37108  1  6
 37 39  1  0
 38111  1  0
 38110  1  0
 38109  1  0
 39 40  1  6
 39 41  1  0
 40112  1  0
 41 43  1  0
 41 42  1  1
 42115  1  0
 42114  1  0
 42113  1  0
 43 44  1  0
 43116  1  6
 43 45  1  0
 44117  1  0
 45118  1  0
 45119  1  0
 45 46  1  0
 46120  1  6
 47 48  1  0
 47122  1  0
 47121  1  0
 48 49  1  0
 49 50  2  0
 50 51  1  0
 51 52  1  0
 51123  1  0
 51124  1  0
 52 53  1  6
 52 54  1  0
 53126  1  0
 53125  1  0
 53127  1  0
 54 55  2  0
 55 56  1  0
 55128  1  0
 56 57  2  0
 58 56  1  1
 58 59  1  0
 59 60  1  0
 59129  1  0
 59130  1  0
 61 60  1  6
 61 67  1  0
 61 62  1  0
 62 63  1  0
 63 66  1  0
 63 64  1  6
 63 65  1  0
 64133  1  0
 64132  1  0
 64131  1  0
 65135  1  0
 65134  1  0
 65136  1  0
 66137  1  0
 66 67  1  0
 66138  1  0
 67139  1  6
 67 68  1  0
 68140  1  0
M  END
>  <id>  (386) 
488

>  <scaffolds>  (386) 
['C1=CCCCC1', 'C1CCOCC1', 'C1CCC(C2CCCC2)CC1', 'C1CCCCC1', 'C=C1CCCC2CCCCC12', 'O=C1C=CCCC1', 'O=C1C=C2C3Cc4nc5c(nc4CC3CCC2C23OC2CC2CC4(CCCO4)OCC123)CC1C(CCC2C3=CC4OC6(CCCO6)CC4C3CCC21)C5', 'C1=C2CCCCC2CCC1', 'C1CCC2CCCCC2C1']

>  <name>  (386) 
Cephalostatin 14

>  <formula>  (386) 
C54H72N2O12

>  <SMILES>  (386) 
O=C4C([H])=C8[C@](O[H])([C@]13O[C@@]1([H])C([H])([H])[C@@]2([H])[C@]([H])(C([H])([H])[H])[C@@]5(OC([H])([H])[C@@]234)OC(C([H])([H])[H])(C([H])([H])[H])C([H])([H])[C@@]5([H])O[H])C([H])([H])C([H])([H])[C@@]7([H])C([H])([H])c6nc9c(nc6C([H])([H])[C@]78C([H])([H])[H])C([H])([H])[C@@]%14([H])[C@@](C9([H])[H])(C([H])([H])[H])[C@@]%13([H])[C@@]([H])(C%12=C([H])[C@]%11([H])O[C@]%10(O[C@@](C([H])([H])[H])(C([H])([H])O[H])C([H])([H])[C@@]%10([H])O[H])[C@@]([H])(C([H])([H])[H])[C@]%11(O[H])[C@]%12(C([H])([H])[H])[C@@]([H])(O[H])C%13([H])[H])C([H])([H])C%14([H])[H]

>  <ChEMBL_id>  (386) 


>  <ZINC_id>  (386) 


>  <PubChem_id>  (386) 


>  <DrugBank_id>  (386) 


>  <CAS_no>  (386) 
159602-64-9

>  <references>  (386) 
[{'journal': {'name': 'Canadian Journal of Chemistry', 'id': 30}, 'title': 'Antineoplastic agents 285. Isolation and structures of cephalostatins 14 and 15', 'year': 1994, 'start_page': 2260, 'volume': 74, 'issue': 11, 'doi': '10.1139/v94-288', 'isbn': '', 'despositor': {'code': 'TMM', 'first_name': 'Thommas', 'last_name': 'Musyoka', 'id': 22}, 'refauthors_set': [{'author': {'first_name': 'George', 'initials': 'GR', 'last_name': 'Pettit', 'id': 478}, 'first_author': True, 'id': 1012}, {'author': {'first_name': '', 'initials': 'J', 'last_name': 'Xu', 'id': 680}, 'first_author': None, 'id': 1013}, {'author': {'first_name': '', 'initials': 'Y', 'last_name': 'Ichihara', 'id': 681}, 'first_author': None, 'id': 1014}, {'author': {'first_name': 'Michael', 'initials': 'D', 'last_name': 'Williams', 'id': 682}, 'first_author': None, 'id': 1015}, {'author': {'first_name': 'Michael', 'initials': 'R', 'last_name': 'Boyd', 'id': 683}, 'first_author': None, 'id': 1016}], 'id': 333}]

>  <classifications>  (386) 
[{'classification': 'Alkaloid', 'id': 738}, {'classification': 'Cephalostatin', 'id': 759}, {'classification': 'Steroid', 'id': 835}, {'classification': 'Steroids and steroid derivatives (Classyfire)', 'id': 942}]

>  <molecular_mass>  (386) 
941.15

$$$$
SANC00489_minRM1.pdb
     RDKit          3D

143156  0  0  1  0  0  0  0  0999 V2000
   12.0900   -3.4170    2.0240 C   0  0  0  0  0  0  0  0  0  0  0  0
   11.8050    0.4830   -1.2200 C   0  0  0  0  0  0  0  0  0  0  0  0
   -9.5010   -1.9080    2.0300 C   0  0  0  0  0  0  0  0  0  0  0  0
    9.1110   -3.7430    0.1750 C   0  0  0  0  0  0  0  0  0  0  0  0
   11.4290   -3.6050   -0.7710 C   0  0  0  0  0  0  0  0  0  0  0  0
  -12.6860   -1.5050   -2.6410 C   0  0  0  0  0  0  0  0  0  0  0  0
    3.7490    0.9130    1.8050 C   0  0  0  0  0  0  0  0  0  0  0  0
   -3.3730    2.0860    1.9080 C   0  0  0  0  0  0  0  0  0  0  0  0
   -7.6190    1.3550    2.8190 C   0  0  0  0  0  0  0  0  0  0  0  0
    7.6120    3.5000   -0.5020 O   0  0  0  0  0  0  0  0  0  0  0  0
  -14.5040   -1.2240   -0.5250 O   0  0  0  0  0  0  0  0  0  0  0  0
   -7.1750   -1.0170    0.0250 O   0  0  0  0  0  0  0  0  0  0  0  0
   -9.1580   -3.2970   -0.2670 O   0  0  0  0  0  0  0  0  0  0  0  0
   10.9950   -0.3590    2.6070 O   0  0  0  0  0  0  0  0  0  0  0  0
    5.1820   -0.1390   -2.2110 O   0  0  0  0  0  0  0  0  0  0  0  0
  -10.0100    1.4320    1.9960 O   0  0  0  0  0  0  0  0  0  0  0  0
    5.8100    2.1110    0.0900 C   0  0  0  0  0  0  0  0  0  0  0  0
   -8.2610    1.7390   -0.6940 C   0  0  0  0  0  0  0  0  0  0  0  0
  -13.5950   -2.2660   -0.4020 C   0  0  0  0  0  0  0  0  0  0  0  0
   -4.2360    3.6150   -0.6580 C   0  0  0  0  0  0  0  0  0  0  0  0
    4.3830   -1.7660    0.3200 C   0  0  0  0  0  0  0  0  0  0  0  0
   -5.6610    3.0990   -0.8060 C   0  0  0  0  0  0  0  0  0  0  0  0
    5.7670   -1.4640   -0.2400 C   0  0  0  0  0  0  0  0  0  0  0  0
    8.2990    0.6290    1.0550 C   0  0  0  0  0  0  0  0  0  0  0  0
    2.0030   -1.0580    0.5840 C   0  0  0  0  0  0  0  0  0  0  0  0
   -1.8310    3.0280   -0.4050 C   0  0  0  0  0  0  0  0  0  0  0  0
    2.8230    1.6710   -0.3970 C   0  0  0  0  0  0  0  0  0  0  0  0
   -2.6430    0.2520    0.3950 C   0  0  0  0  0  0  0  0  0  0  0  0
   -5.4320   -0.0560    1.3940 C   0  0  0  0  0  0  0  0  0  0  0  0
    9.2660    1.0000   -2.5430 C   0  0  0  0  0  0  0  0  0  0  0  0
  -11.3560   -3.1420   -1.2400 C   0  0  0  0  0  0  0  0  0  0  0  0
    0.4750    2.2750   -0.3590 N   0  0  0  0  0  0  0  0  0  0  0  0
   -0.2930   -0.3100    0.4830 N   0  0  0  0  0  0  0  0  0  0  0  0
    8.9550   -0.6040    1.0330 O   0  0  0  0  0  0  0  0  0  0  0  0
   -9.6570   -0.1470   -1.1260 O   0  0  0  0  0  0  0  0  0  0  0  0
    8.0660   -0.9430   -1.7340 O   0  0  0  0  0  0  0  0  0  0  0  0
   10.1040   -1.6840   -0.5190 O   0  0  0  0  0  0  0  0  0  0  0  0
  -11.6710   -0.8890   -0.5770 O   0  0  0  0  0  0  0  0  0  0  0  0
    7.2070    2.3720   -0.2980 C   0  0  0  0  0  0  0  0  0  0  0  0
   -7.3830    1.6580    0.3040 C   0  0  0  0  0  0  0  0  0  0  0  0
    5.1910    0.9640   -0.1880 C   0  0  0  0  0  0  0  0  0  0  0  0
    1.0070    0.0190    0.2990 C   0  0  0  0  0  0  0  0  0  0  0  0
   -0.8270    1.9460   -0.1730 C   0  0  0  0  0  0  0  0  0  0  0  0
    1.3950    1.3070   -0.1280 C   0  0  0  0  0  0  0  0  0  0  0  0
   -1.2110    0.6550    0.2390 C   0  0  0  0  0  0  0  0  0  0  0  0
   -6.9160   -0.4770    1.2860 C   0  0  1  0  0  0  0  0  0  0  0  0
   -9.9740   -2.4920   -1.0550 C   0  0  1  0  0  0  0  0  0  0  0  0
   10.9110   -2.5920    1.5500 C   0  0  1  0  0  0  0  0  0  0  0  0
   10.6000    0.6870   -0.3140 C   0  0  1  0  0  0  0  0  0  0  0  0
  -10.0670   -0.8230    1.1480 C   0  0  1  0  0  0  0  0  0  0  0  0
   -9.5310    1.0230   -0.3570 C   0  0  1  0  0  0  0  0  0  0  0  0
    3.3400   -0.7290   -0.0760 C   0  0  1  0  0  0  0  0  0  0  0  0
   -3.2390    2.4580   -0.5900 C   0  0  1  0  0  0  0  0  0  0  0  0
   11.2460   -1.0910    1.4490 C   0  0  1  0  0  0  0  0  0  0  0  0
    8.0060    0.1670   -2.6140 C   0  0  1  0  0  0  0  0  0  0  0  0
   -5.9950    2.1800    0.3670 C   0  0  1  0  0  0  0  0  0  0  0  0
    9.4510    1.3920   -1.0600 C   0  0  2  0  0  0  0  0  0  0  0  0
   -5.0370    0.9790    0.3420 C   0  0  1  0  0  0  0  0  0  0  0  0
   10.3970   -2.9180    0.1220 C   0  0  1  0  0  0  0  0  0  0  0  0
  -12.3240   -1.9490   -1.2280 C   0  0  1  0  0  0  0  0  0  0  0  0
    3.7880    0.6940    0.2920 C   0  0  1  0  0  0  0  0  0  0  0  0
   -3.5800    1.4630    0.5310 C   0  0  2  0  0  0  0  0  0  0  0  0
    5.8640   -0.1210   -0.9900 C   0  0  2  0  0  0  0  0  0  0  0  0
   -7.8330    0.7570    1.4300 C   0  0  1  0  0  0  0  0  0  0  0  0
   -9.3570    0.5550    1.1310 C   0  0  1  0  0  0  0  0  0  0  0  0
    8.0880    1.1400   -0.3710 C   0  0  1  0  0  0  0  0  0  0  0  0
  -10.2940   -1.1360   -0.3600 C   0  0  1  0  0  0  0  0  0  0  0  0
   10.2010   -0.6200    0.3830 C   0  0  1  0  0  0  0  0  0  0  0  0
    7.3340    0.1730   -1.2650 C   0  0  1  0  0  0  0  0  0  0  0  0
   12.3780   -3.1520    3.0550 H   0  0  0  0  0  0  0  0  0  0  0  0
   11.8630   -4.4960    2.0330 H   0  0  0  0  0  0  0  0  0  0  0  0
   12.9980   -3.2830    1.4130 H   0  0  0  0  0  0  0  0  0  0  0  0
   12.1420    1.4370   -1.6560 H   0  0  0  0  0  0  0  0  0  0  0  0
   12.6710    0.0620   -0.6800 H   0  0  0  0  0  0  0  0  0  0  0  0
   11.5890   -0.2000   -2.0620 H   0  0  0  0  0  0  0  0  0  0  0  0
   -9.4730   -1.5770    3.0880 H   0  0  0  0  0  0  0  0  0  0  0  0
  -10.1330   -2.8140    1.9960 H   0  0  0  0  0  0  0  0  0  0  0  0
   -8.4850   -2.2380    1.7840 H   0  0  0  0  0  0  0  0  0  0  0  0
    9.2790   -4.7200    0.6430 H   0  0  0  0  0  0  0  0  0  0  0  0
    8.3150   -3.2370    0.7380 H   0  0  0  0  0  0  0  0  0  0  0  0
    8.7010   -3.9200   -0.8290 H   0  0  0  0  0  0  0  0  0  0  0  0
   11.0430   -3.7520   -1.7910 H   0  0  0  0  0  0  0  0  0  0  0  0
   12.3520   -3.0180   -0.8720 H   0  0  0  0  0  0  0  0  0  0  0  0
   11.7010   -4.6010   -0.3950 H   0  0  0  0  0  0  0  0  0  0  0  0
  -13.2220   -0.5460   -2.6490 H   0  0  0  0  0  0  0  0  0  0  0  0
  -11.7980   -1.3780   -3.2690 H   0  0  0  0  0  0  0  0  0  0  0  0
  -13.3370   -2.2360   -3.1310 H   0  0  0  0  0  0  0  0  0  0  0  0
    2.7370    0.8120    2.2250 H   0  0  0  0  0  0  0  0  0  0  0  0
    4.4000    0.2110    2.3450 H   0  0  0  0  0  0  0  0  0  0  0  0
    4.0720    1.9240    2.0990 H   0  0  0  0  0  0  0  0  0  0  0  0
   -2.3140    2.0870    2.2190 H   0  0  0  0  0  0  0  0  0  0  0  0
   -3.7070    3.1330    1.9720 H   0  0  0  0  0  0  0  0  0  0  0  0
   -3.9220    1.5410    2.6980 H   0  0  0  0  0  0  0  0  0  0  0  0
   -7.9500    2.4050    2.8790 H   0  0  0  0  0  0  0  0  0  0  0  0
   -8.1630    0.7940    3.5910 H   0  0  0  0  0  0  0  0  0  0  0  0
   -6.5630    1.3580    3.1350 H   0  0  0  0  0  0  0  0  0  0  0  0
  -14.4630   -0.6900    0.2750 H   0  0  0  0  0  0  0  0  0  0  0  0
   -6.7160   -1.8640   -0.0250 H   0  0  0  0  0  0  0  0  0  0  0  0
   -8.6400   -3.8280   -0.8740 H   0  0  0  0  0  0  0  0  0  0  0  0
   11.4200   -0.8240    3.3340 H   0  0  0  0  0  0  0  0  0  0  0  0
    5.4240   -0.9370   -2.6850 H   0  0  0  0  0  0  0  0  0  0  0  0
  -10.9310    1.5010    1.7240 H   0  0  0  0  0  0  0  0  0  0  0  0
    5.3240    2.9350    0.6260 H   0  0  0  0  0  0  0  0  0  0  0  0
   -8.1580    2.2440   -1.6480 H   0  0  0  0  0  0  0  0  0  0  0  0
  -13.3260   -2.5060    0.6590 H   0  0  0  0  0  0  0  0  0  0  0  0
  -14.1000   -3.1700   -0.8110 H   0  0  0  0  0  0  0  0  0  0  0  0
   -3.9830    4.2850   -1.5080 H   0  0  0  0  0  0  0  0  0  0  0  0
   -4.1550    4.2740    0.2330 H   0  0  0  0  0  0  0  0  0  0  0  0
    4.0490   -2.7710   -0.0170 H   0  0  0  0  0  0  0  0  0  0  0  0
    4.4330   -1.8660    1.4240 H   0  0  0  0  0  0  0  0  0  0  0  0
   -6.3790    3.9440   -0.8550 H   0  0  0  0  0  0  0  0  0  0  0  0
   -5.7820    2.5730   -1.7780 H   0  0  0  0  0  0  0  0  0  0  0  0
    6.5210   -1.4750    0.5780 H   0  0  0  0  0  0  0  0  0  0  0  0
    6.1020   -2.2950   -0.9010 H   0  0  0  0  0  0  0  0  0  0  0  0
    7.3440    0.4170    1.5850 H   0  0  0  0  0  0  0  0  0  0  0  0
    8.8380    1.3780    1.6780 H   0  0  0  0  0  0  0  0  0  0  0  0
    2.1000   -1.1910    1.6850 H   0  0  0  0  0  0  0  0  0  0  0  0
    1.6300   -2.0490    0.2380 H   0  0  0  0  0  0  0  0  0  0  0  0
   -1.7850    3.7410    0.4490 H   0  0  0  0  0  0  0  0  0  0  0  0
   -1.5480    3.6430   -1.2880 H   0  0  0  0  0  0  0  0  0  0  0  0
    2.9960    1.6770   -1.4970 H   0  0  0  0  0  0  0  0  0  0  0  0
    3.0270    2.7190   -0.0810 H   0  0  0  0  0  0  0  0  0  0  0  0
   -2.9230   -0.3770   -0.4780 H   0  0  0  0  0  0  0  0  0  0  0  0
   -2.7510   -0.4200    1.2770 H   0  0  0  0  0  0  0  0  0  0  0  0
   -5.2300    0.3370    2.4190 H   0  0  0  0  0  0  0  0  0  0  0  0
   -4.7930   -0.9620    1.3150 H   0  0  0  0  0  0  0  0  0  0  0  0
   10.1250    0.4460   -2.9680 H   0  0  0  0  0  0  0  0  0  0  0  0
    9.1520    1.9050   -3.1720 H   0  0  0  0  0  0  0  0  0  0  0  0
  -11.4300   -3.7240   -2.1670 H   0  0  0  0  0  0  0  0  0  0  0  0
  -11.5790   -3.8790   -0.4420 H   0  0  0  0  0  0  0  0  0  0  0  0
   -7.1270   -1.2200    2.1060 H   0  0  0  0  0  0  0  0  0  0  0  0
   -9.5190   -2.3040   -2.0600 H   0  0  0  0  0  0  0  0  0  0  0  0
   10.0720   -2.7320    2.2840 H   0  0  0  0  0  0  0  0  0  0  0  0
   10.9160    1.3770    0.5200 H   0  0  0  0  0  0  0  0  0  0  0  0
  -11.0950   -0.6590    1.5930 H   0  0  0  0  0  0  0  0  0  0  0  0
  -10.4270    1.6720   -0.5270 H   0  0  0  0  0  0  0  0  0  0  0  0
    3.1720   -0.7880   -1.1840 H   0  0  0  0  0  0  0  0  0  0  0  0
   -3.2720    1.9090   -1.5690 H   0  0  0  0  0  0  0  0  0  0  0  0
   12.2960   -0.9220    1.0920 H   0  0  0  0  0  0  0  0  0  0  0  0
    7.5140    0.0390   -3.5890 H   0  0  0  0  0  0  0  0  0  0  0  0
   -5.8880    2.7610    1.3200 H   0  0  0  0  0  0  0  0  0  0  0  0
    9.7110    2.4840   -1.0270 H   0  0  0  0  0  0  0  0  0  0  0  0
   -5.1270    0.4870   -0.6640 H   0  0  0  0  0  0  0  0  0  0  0  0
  1 72  1  0
  1 48  1  0
  1 71  1  0
  1 70  1  0
  2 75  1  0
  2 73  1  0
  2 74  1  0
  2 49  1  0
  3 50  1  0
  3 78  1  0
  3 77  1  0
  3 76  1  0
  4 81  1  0
 59  4  1  1
  4 79  1  0
  4 80  1  0
  5 82  1  0
  5 83  1  0
  5 84  1  0
  5 59  1  0
  6 86  1  0
  6 87  1  0
  6 85  1  0
  7 90  1  0
  7 88  1  0
  7 89  1  0
  8 92  1  0
  8 91  1  0
  8 93  1  0
  9 94  1  0
  9 96  1  0
  9 95  1  0
 10 39  2  0
 11 19  1  0
 11 97  1  0
 12 98  1  0
 12 46  1  0
 13 47  1  0
 13 99  1  0
 14 54  1  0
 14100  1  0
 15101  1  0
 16102  1  0
 17 39  1  0
 17 41  2  0
 17103  1  0
 18104  1  0
 18 51  1  0
 18 40  2  0
 60 19  1  1
 19106  1  0
 19105  1  0
 20107  1  0
 20 22  1  0
 20 53  1  0
 20108  1  0
 21 23  1  0
 21 52  1  0
 21109  1  0
 21110  1  0
 22112  1  0
 22111  1  0
 22 56  1  0
 23 63  1  0
 23114  1  0
 23113  1  0
 24 66  1  0
 24 34  1  0
 24115  1  0
 24116  1  0
 25 52  1  0
 25118  1  0
 25 42  1  0
 25117  1  0
 26120  1  0
 26 53  1  0
 26 43  1  0
 26119  1  0
 27121  1  0
 27 44  1  0
 27122  1  0
 27 61  1  0
 28123  1  0
 28 45  1  0
 28 62  1  0
 28124  1  0
 29 58  1  0
 29 46  1  0
 29126  1  0
 29125  1  0
 30128  1  0
 30127  1  0
 30 55  1  0
 30 57  1  0
 31129  1  0
 31 60  1  0
 31 47  1  0
 31130  1  0
 32 43  2  0
 32 44  1  0
 33 45  2  0
 33 42  1  0
 35 51  1  0
 36 55  1  0
 37 59  1  0
 68 37  1  6
 38 60  1  0
 67 38  1  1
 40 56  1  0
 40 64  1  0
 41 63  1  0
 41 61  1  0
 42 44  2  0
 43 45  1  0
 46 64  1  0
 46131  1  1
 47132  1  6
 47 67  1  0
 48 59  1  0
 48 54  1  0
 48133  1  1
 49 57  1  0
 49 68  1  0
 49134  1  1
 50 67  1  0
 50 65  1  0
 50135  1  1
 51136  1  1
 51 65  1  0
 52137  1  6
 52 61  1  0
 53138  1  6
 53 62  1  0
 54 68  1  0
 54139  1  6
 55140  1  6
 55 69  1  0
 56 58  1  0
 56141  1  1
 57142  1  6
 57 66  1  0
 58143  1  6
 58 62  1  0
 60  6  1  0
 61  7  1  1
 62  8  1  1
 63 15  1  6
 63 69  1  0
 64  9  1  1
 64 65  1  0
 65 16  1  1
 66 39  1  1
 66 69  1  0
 67 35  1  0
 68 34  1  0
 69 36  1  1
M  END
>  <id>  (387) 
489

>  <scaffolds>  (387) 
['C1=CCCCC1', 'C1CCOCC1', 'C1CCC(C2CCCC2)CC1', 'C1CCCCC1', 'C=C1CCCC2CCCCC12', 'O=C1C=CCCC1', 'O=C1C=C2C3Cc4nc5c(nc4CC3CCC2C23OC2CC2CC4(CCCO4)OCC123)CC1C(CCC2C3=CC4OC6(CCCO6)CC4C3CCC21)C5', 'C1=C2CCCCC2CCC1', 'C1CCC2CCCCC2C1']

>  <name>  (387) 
Cephalostatin 15

>  <formula>  (387) 
C55H74N2O12

>  <SMILES>  (387) 
O=C5C([H])=C3[C@@]2(C([H])([H])[H])C([H])([H])c1nc%14c(nc1C([H])([H])[C@]2([H])C([H])([H])C([H])([H])[C@]3(O[H])[C@@]47O[C@]4([H])C([H])([H])[C@]6([H])[C@]([H])(C([H])([H])[H])[C@@]8(OC([H])([H])[C@]567)OC(C([H])([H])[H])(C([H])([H])[H])[C@@]([H])(C([H])([H])[H])[C@]8([H])O[H])C([H])([H])[C@@]%13(C([H])([H])[H])[C@@]([H])(C([H])([H])C([H])([H])[C@@]%12([H])C%11=C([H])[C@@]%10([H])O[C@]9(O[C@](C([H])([H])[H])(C([H])([H])O[H])C([H])([H])[C@]9([H])O[H])[C@@]([H])(C([H])([H])[H])[C@@]%10(O[H])[C@@]%11(C([H])([H])[H])[C@@]([H])(O[H])C([H])([H])[C@]%12%13[H])C%14([H])[H]

>  <ChEMBL_id>  (387) 


>  <ZINC_id>  (387) 


>  <PubChem_id>  (387) 


>  <DrugBank_id>  (387) 


>  <CAS_no>  (387) 
159602-65-0

>  <references>  (387) 
[{'journal': {'name': 'Canadian Journal of Chemistry', 'id': 30}, 'title': 'Antineoplastic agents 285. Isolation and structures of cephalostatins 14 and 15', 'year': 1994, 'start_page': 2260, 'volume': 74, 'issue': 11, 'doi': '10.1139/v94-288', 'isbn': '', 'despositor': {'code': 'TMM', 'first_name': 'Thommas', 'last_name': 'Musyoka', 'id': 22}, 'refauthors_set': [{'author': {'first_name': 'George', 'initials': 'GR', 'last_name': 'Pettit', 'id': 478}, 'first_author': True, 'id': 1012}, {'author': {'first_name': '', 'initials': 'J', 'last_name': 'Xu', 'id': 680}, 'first_author': None, 'id': 1013}, {'author': {'first_name': '', 'initials': 'Y', 'last_name': 'Ichihara', 'id': 681}, 'first_author': None, 'id': 1014}, {'author': {'first_name': 'Michael', 'initials': 'D', 'last_name': 'Williams', 'id': 682}, 'first_author': None, 'id': 1015}, {'author': {'first_name': 'Michael', 'initials': 'R', 'last_name': 'Boyd', 'id': 683}, 'first_author': None, 'id': 1016}], 'id': 333}]

>  <classifications>  (387) 
[{'classification': 'Alkaloid', 'id': 738}, {'classification': 'Cephalostatin', 'id': 759}, {'classification': 'Steroid', 'id': 835}, {'classification': 'Steroids and steroid derivatives (Classyfire)', 'id': 942}]

>  <molecular_mass>  (387) 
955.18

$$$$
SANC00490_minRM1.pdb
     RDKit          3D

140152  0  0  1  0  0  0  0  0999 V2000
  -10.2630    0.4900    1.8570 C   0  0  0  0  0  0  0  0  0  0  0  0
   10.4370   -0.3420   -2.2860 C   0  0  0  0  0  0  0  0  0  0  0  0
   -8.1460   -4.3650   -0.6720 C   0  0  0  0  0  0  0  0  0  0  0  0
  -10.6460   -4.2250   -0.8360 C   0  0  0  0  0  0  0  0  0  0  0  0
    7.7030   -4.8490   -1.8680 C   0  0  0  0  0  0  0  0  0  0  0  0
    3.5340    2.9100    1.4200 C   0  0  0  0  0  0  0  0  0  0  0  0
   -3.2650    3.9240   -0.0790 C   0  0  0  0  0  0  0  0  0  0  0  0
    8.3810    2.7010    0.7680 C   0  0  0  0  0  0  0  0  0  0  0  0
   -7.8650    2.3190    1.6050 O   0  0  0  0  0  0  0  0  0  0  0  0
    6.8290    0.4520   -1.7390 O   0  0  0  0  0  0  0  0  0  0  0  0
  -11.3650   -2.3220    1.7170 O   0  0  0  0  0  0  0  0  0  0  0  0
    8.2110   -5.7800    0.2880 O   0  0  0  0  0  0  0  0  0  0  0  0
   -5.7050    3.5590   -0.7260 O   0  0  0  0  0  0  0  0  0  0  0  0
   10.3460    1.4160   -0.2500 O   0  0  0  0  0  0  0  0  0  0  0  0
   -7.9660    0.8200   -2.4450 C   0  0  0  0  0  0  0  0  0  0  0  0
    8.0990   -0.3920    1.7690 C   0  0  0  0  0  0  0  0  0  0  0  0
   -9.2980    0.4260   -1.8920 C   0  0  0  0  0  0  0  0  0  0  0  0
    3.9020    0.2420    2.9560 C   0  0  0  0  0  0  0  0  0  0  0  0
   -4.0180    2.7340   -2.9940 C   0  0  0  0  0  0  0  0  0  0  0  0
    5.3200   -0.1480    2.5650 C   0  0  0  0  0  0  0  0  0  0  0  0
   -5.3250    1.9450   -2.9790 C   0  0  0  0  0  0  0  0  0  0  0  0
    9.8430   -4.3570   -0.5820 C   0  0  0  0  0  0  0  0  0  0  0  0
   10.0980   -3.0170   -1.2600 C   0  0  0  0  0  0  0  0  0  0  0  0
    7.6770   -3.4290    0.2270 C   0  0  0  0  0  0  0  0  0  0  0  0
   -7.1750   -0.7510    0.2560 C   0  0  0  0  0  0  0  0  0  0  0  0
   -5.6480    1.8030    0.8850 C   0  0  0  0  0  0  0  0  0  0  0  0
    1.6050    0.7450    2.1430 C   0  0  0  0  0  0  0  0  0  0  0  0
   -1.6480    2.6810   -2.1090 C   0  0  0  0  0  0  0  0  0  0  0  0
    2.7790    1.5300   -0.5030 C   0  0  0  0  0  0  0  0  0  0  0  0
   -2.8430    1.5500    0.4200 C   0  0  0  0  0  0  0  0  0  0  0  0
    5.7280    2.1800   -0.4760 C   0  0  0  0  0  0  0  0  0  0  0  0
   -9.5200   -3.8440    1.4090 C   0  0  0  0  0  0  0  0  0  0  0  0
    0.5390    2.1040   -1.2230 N   0  0  0  0  0  0  0  0  0  0  0  0
   -0.5830    1.1740    1.1980 N   0  0  0  0  0  0  0  0  0  0  0  0
    7.9360   -2.2400   -0.4660 O   0  0  0  0  0  0  0  0  0  0  0  0
   -8.0150   -1.3710    1.1860 O   0  0  0  0  0  0  0  0  0  0  0  0
    9.8100   -1.6940    0.6900 O   0  0  0  0  0  0  0  0  0  0  0  0
   -9.3160   -2.3080   -0.4060 O   0  0  0  0  0  0  0  0  0  0  0  0
   -7.1470    1.6650    0.8770 C   0  0  0  0  0  0  0  0  0  0  0  0
   -7.0600    0.9860   -1.4780 C   0  0  0  0  0  0  0  0  0  0  0  0
    7.3140    0.5470    1.2390 C   0  0  0  0  0  0  0  0  0  0  0  0
    0.7570    1.1870    0.9950 C   0  0  0  0  0  0  0  0  0  0  0  0
   -0.7990    2.1170   -1.0110 C   0  0  0  0  0  0  0  0  0  0  0  0
    1.3150    1.6220   -0.2230 C   0  0  0  0  0  0  0  0  0  0  0  0
   -1.3620    1.6260    0.1870 C   0  0  0  0  0  0  0  0  0  0  0  0
    7.0620    1.6320   -1.0250 C   0  0  1  0  0  0  0  0  0  0  0  0
   -9.9830   -2.4500    1.8630 C   0  0  1  0  0  0  0  0  0  0  0  0
  -10.0180   -0.1890    0.5090 C   0  0  1  0  0  0  0  0  0  0  0  0
    9.2820   -0.5110   -1.3100 C   0  0  1  0  0  0  0  0  0  0  0  0
    9.4560   -0.4100    1.1300 C   0  0  1  0  0  0  0  0  0  0  0  0
    3.0390    0.4350    1.7110 C   0  0  1  0  0  0  0  0  0  0  0  0
   -3.0770    2.1790   -1.9370 C   0  0  1  0  0  0  0  0  0  0  0  0
    5.9380    0.9230    1.6660 C   0  0  1  0  0  0  0  0  0  0  0  0
   -5.6200    1.3230   -1.6050 C   0  0  2  0  0  0  0  0  0  0  0  0
   -9.1700    0.7170   -0.3830 C   0  0  1  0  0  0  0  0  0  0  0  0
    5.0630    1.1360    0.4240 C   0  0  1  0  0  0  0  0  0  0  0  0
   -9.4020   -3.6940   -0.1220 C   0  0  1  0  0  0  0  0  0  0  0  0
    8.3340   -4.6280   -0.4930 C   0  0  1  0  0  0  0  0  0  0  0  0
    3.6140    1.5240    0.7900 C   0  0  2  0  0  0  0  0  0  0  0  0
   -3.6000    2.5000   -0.5260 C   0  0  2  0  0  0  0  0  0  0  0  0
    8.0070    1.3390    0.1570 C   0  0  1  0  0  0  0  0  0  0  0  0
   -5.1560    2.2960   -0.4910 C   0  0  1  0  0  0  0  0  0  0  0  0
    9.2910   -1.8960   -0.5990 C   0  0  1  0  0  0  0  0  0  0  0  0
   -7.6500    0.6600   -0.1280 C   0  0  1  0  0  0  0  0  0  0  0  0
    9.3030    0.5060   -0.1370 C   0  0  1  0  0  0  0  0  0  0  0  0
   -9.3430   -1.5420    0.7650 C   0  0  1  0  0  0  0  0  0  0  0  0
  -10.5370    1.5500    1.7460 H   0  0  0  0  0  0  0  0  0  0  0  0
  -11.0900    0.0320    2.4190 H   0  0  0  0  0  0  0  0  0  0  0  0
   -9.3800    0.4630    2.5110 H   0  0  0  0  0  0  0  0  0  0  0  0
   10.3350   -0.9980   -3.1640 H   0  0  0  0  0  0  0  0  0  0  0  0
   10.4830    0.6830   -2.6870 H   0  0  0  0  0  0  0  0  0  0  0  0
   11.4250   -0.5580   -1.8510 H   0  0  0  0  0  0  0  0  0  0  0  0
   -8.0600   -4.2360   -1.7620 H   0  0  0  0  0  0  0  0  0  0  0  0
   -7.2210   -3.9510   -0.2370 H   0  0  0  0  0  0  0  0  0  0  0  0
   -8.1480   -5.4440   -0.4680 H   0  0  0  0  0  0  0  0  0  0  0  0
  -10.7470   -5.3130   -0.7230 H   0  0  0  0  0  0  0  0  0  0  0  0
  -11.5680   -3.7700   -0.4510 H   0  0  0  0  0  0  0  0  0  0  0  0
  -10.6160   -4.0120   -1.9120 H   0  0  0  0  0  0  0  0  0  0  0  0
    6.6430   -5.1290   -1.8000 H   0  0  0  0  0  0  0  0  0  0  0  0
    7.7310   -3.9400   -2.4870 H   0  0  0  0  0  0  0  0  0  0  0  0
    8.2110   -5.6460   -2.4300 H   0  0  0  0  0  0  0  0  0  0  0  0
    2.5080    3.1950    1.6940 H   0  0  0  0  0  0  0  0  0  0  0  0
    4.1390    3.0100    2.3310 H   0  0  0  0  0  0  0  0  0  0  0  0
    3.8740    3.7060    0.7390 H   0  0  0  0  0  0  0  0  0  0  0  0
   -2.2020    4.0660    0.1630 H   0  0  0  0  0  0  0  0  0  0  0  0
   -3.5120    4.6870   -0.8320 H   0  0  0  0  0  0  0  0  0  0  0  0
   -3.8100    4.2050    0.8360 H   0  0  0  0  0  0  0  0  0  0  0  0
    9.0270    2.5910    1.6520 H   0  0  0  0  0  0  0  0  0  0  0  0
    8.9140    3.3570    0.0630 H   0  0  0  0  0  0  0  0  0  0  0  0
    7.4960    3.2700    1.0940 H   0  0  0  0  0  0  0  0  0  0  0  0
    6.1450    0.6390   -2.3980 H   0  0  0  0  0  0  0  0  0  0  0  0
  -11.7700   -2.8510    2.4110 H   0  0  0  0  0  0  0  0  0  0  0  0
    7.2740   -5.9770    0.3810 H   0  0  0  0  0  0  0  0  0  0  0  0
   -6.6520    3.4680   -0.8570 H   0  0  0  0  0  0  0  0  0  0  0  0
   11.1760    0.9320   -0.1840 H   0  0  0  0  0  0  0  0  0  0  0  0
   -7.8280    0.9230   -3.5200 H   0  0  0  0  0  0  0  0  0  0  0  0
    7.8730   -1.1020    2.5590 H   0  0  0  0  0  0  0  0  0  0  0  0
  -10.1290    0.9900   -2.3570 H   0  0  0  0  0  0  0  0  0  0  0  0
   -9.5150   -0.6330   -2.1240 H   0  0  0  0  0  0  0  0  0  0  0  0
    3.4610   -0.5410    3.6100 H   0  0  0  0  0  0  0  0  0  0  0  0
    3.9090    1.1510    3.5950 H   0  0  0  0  0  0  0  0  0  0  0  0
   -3.5570    2.6960   -4.0040 H   0  0  0  0  0  0  0  0  0  0  0  0
   -4.2060    3.8150   -2.8310 H   0  0  0  0  0  0  0  0  0  0  0  0
    5.9300   -0.2850    3.4850 H   0  0  0  0  0  0  0  0  0  0  0  0
    5.3330   -1.1390    2.0640 H   0  0  0  0  0  0  0  0  0  0  0  0
   -6.1480    2.6180   -3.2930 H   0  0  0  0  0  0  0  0  0  0  0  0
   -5.3040    1.1450   -3.7450 H   0  0  0  0  0  0  0  0  0  0  0  0
   10.3570   -5.1770   -1.1280 H   0  0  0  0  0  0  0  0  0  0  0  0
   10.2950   -4.3710    0.4340 H   0  0  0  0  0  0  0  0  0  0  0  0
   11.1840   -2.7870   -1.2260 H   0  0  0  0  0  0  0  0  0  0  0  0
    9.8460   -3.0710   -2.3390 H   0  0  0  0  0  0  0  0  0  0  0  0
    7.9960   -3.3810    1.2930 H   0  0  0  0  0  0  0  0  0  0  0  0
    6.5670   -3.4850    0.2270 H   0  0  0  0  0  0  0  0  0  0  0  0
   -6.1880   -0.7350    0.7740 H   0  0  0  0  0  0  0  0  0  0  0  0
   -7.0330   -1.3770   -0.6560 H   0  0  0  0  0  0  0  0  0  0  0  0
   -5.3170    2.4970    1.6870 H   0  0  0  0  0  0  0  0  0  0  0  0
   -5.2310    0.8080    1.1550 H   0  0  0  0  0  0  0  0  0  0  0  0
    1.5720    1.5250    2.9380 H   0  0  0  0  0  0  0  0  0  0  0  0
    1.1580   -0.1490    2.6340 H   0  0  0  0  0  0  0  0  0  0  0  0
   -1.5830    3.7890   -2.1180 H   0  0  0  0  0  0  0  0  0  0  0  0
   -1.2510    2.3860   -3.1050 H   0  0  0  0  0  0  0  0  0  0  0  0
    2.9470    0.6000   -1.0950 H   0  0  0  0  0  0  0  0  0  0  0  0
    3.1140    2.3460   -1.1830 H   0  0  0  0  0  0  0  0  0  0  0  0
   -3.1620    0.4960    0.2880 H   0  0  0  0  0  0  0  0  0  0  0  0
   -3.0590    1.7900    1.4830 H   0  0  0  0  0  0  0  0  0  0  0  0
    5.9190    3.1310    0.0690 H   0  0  0  0  0  0  0  0  0  0  0  0
    5.0600    2.4750   -1.3160 H   0  0  0  0  0  0  0  0  0  0  0  0
   -8.5490   -4.1000    1.8820 H   0  0  0  0  0  0  0  0  0  0  0  0
  -10.2060   -4.6560    1.7040 H   0  0  0  0  0  0  0  0  0  0  0  0
    7.5440    2.3910   -1.7040 H   0  0  0  0  0  0  0  0  0  0  0  0
   -9.6400   -2.1860    2.8960 H   0  0  0  0  0  0  0  0  0  0  0  0
  -11.0010   -0.3690    0.0030 H   0  0  0  0  0  0  0  0  0  0  0  0
    8.3340   -0.4020   -1.9090 H   0  0  0  0  0  0  0  0  0  0  0  0
   10.2560   -0.1000    1.8430 H   0  0  0  0  0  0  0  0  0  0  0  0
    3.0240   -0.5320    1.1400 H   0  0  0  0  0  0  0  0  0  0  0  0
   -3.0330    1.0640   -2.0760 H   0  0  0  0  0  0  0  0  0  0  0  0
    6.0210    1.8760    2.2530 H   0  0  0  0  0  0  0  0  0  0  0  0
   -5.0610    0.3570   -1.4870 H   0  0  0  0  0  0  0  0  0  0  0  0
   -9.5160    1.7740   -0.2300 H   0  0  0  0  0  0  0  0  0  0  0  0
    5.0180    0.1530   -0.1220 H   0  0  0  0  0  0  0  0  0  0  0  0
  1 48  1  0
  1 67  1  0
  1 68  1  0
  1 69  1  0
  2 70  1  0
  2 71  1  0
  2 72  1  0
  2 49  1  0
  3 73  1  0
  3 75  1  0
  3 74  1  0
 57  3  1  6
  4 78  1  0
  4 76  1  0
  4 77  1  0
  4 57  1  0
  5 80  1  0
  5 81  1  0
  5 79  1  0
  5 58  1  0
  6 84  1  0
  6 82  1  0
  6 83  1  0
  7 86  1  0
  7 85  1  0
  7 87  1  0
  8 89  1  0
  8 90  1  0
  8 88  1  0
  9 39  2  0
 10 91  1  0
 10 46  1  0
 11 47  1  0
 11 92  1  0
 12 93  1  0
 13 94  1  0
 14 95  1  0
 15 96  1  0
 15 17  1  0
 15 40  2  0
 16 50  1  0
 16 41  2  0
 16 97  1  0
 17 98  1  0
 17 99  1  0
 17 55  1  0
 18 51  1  0
 18 20  1  0
 18101  1  0
 18100  1  0
 19102  1  0
 19 21  1  0
 19103  1  0
 19 52  1  0
 20 53  1  0
 20105  1  0
 20104  1  0
 21107  1  0
 21106  1  0
 21 54  1  0
 22 23  1  0
 22108  1  0
 22 58  1  0
 22109  1  0
 23111  1  0
 23110  1  0
 23 63  1  0
 24 58  1  0
 24 35  1  0
 24113  1  0
 24112  1  0
 25115  1  0
 25 64  1  0
 25114  1  0
 25 36  1  0
 26 62  1  0
 26 39  1  0
 26117  1  0
 26116  1  0
 27 42  1  0
 27 51  1  0
 27119  1  0
 27118  1  0
 28121  1  0
 28120  1  0
 28 52  1  0
 28 43  1  0
 29123  1  0
 29122  1  0
 29 44  1  0
 29 59  1  0
 30 60  1  0
 30 45  1  0
 30124  1  0
 30125  1  0
 31127  1  0
 31 46  1  0
 31126  1  0
 31 56  1  0
 32 57  1  0
 32129  1  0
 32 47  1  0
 32128  1  0
 33 43  2  0
 33 44  1  0
 34 45  2  0
 34 42  1  0
 63 37  1  1
 37 50  1  0
 38 57  1  0
 66 38  1  6
 40 54  1  0
 40 64  1  0
 41 61  1  0
 41 53  1  0
 42 44  2  0
 43 45  1  0
 46130  1  6
 46 61  1  0
 47 66  1  0
 47131  1  1
 48 55  1  0
 48132  1  6
 48 66  1  0
 49133  1  6
 49 63  1  0
 49 65  1  0
 50 65  1  0
 50134  1  1
 51 59  1  0
 51135  1  6
 52136  1  1
 52 60  1  0
 53 56  1  0
 53137  1  1
 54138  1  6
 54 62  1  0
 55139  1  6
 55 64  1  0
 56140  1  6
 56 59  1  0
 58 12  1  1
 59  6  1  1
 60  7  1  1
 60 62  1  0
 61  8  1  1
 61 65  1  0
 62 13  1  6
 63 35  1  0
 64 39  1  1
 65 14  1  6
 66 36  1  0
M  END
>  <id>  (388) 
490

>  <scaffolds>  (388) 
['C1CCOCC1', 'C1CCCCC1', 'C=C1CCCC2CCCCC12', 'O=C1CC2C(CCC3Cc4nc5c(nc4CC32)CC2CCC3C4=CC6OC7(CCCCO7)CC6C4CCC3C2C5)C2=CCC3CC4(CCCO4)OCC123', 'C1CCC2CCCCC2C1']

>  <name>  (388) 
Cephalostatin 16

>  <formula>  (388) 
C54H74N2O10

>  <SMILES>  (388) 
O=C1C([H])([H])[C@]7(O[H])[C@@]([H])(C2=C([H])C([H])([H])[C@@]3([H])[C@]([H])(C([H])([H])[H])[C@]4(OC([H])([H])[C@@]123)OC(C([H])([H])[H])(C([H])([H])[H])C([H])([H])[C@]4([H])O[H])C([H])([H])C([H])([H])[C@@]6([H])C([H])([H])c5nc%13c(nc5C([H])([H])[C@]67C([H])([H])[H])C([H])([H])[C@]%12([H])C([H])([H])C([H])([H])[C@@]%11([H])C%10=C([H])[C@@]9([H])O[C@@]8(OC([H])([H])[C@@](O[H])(C([H])([H])[H])C([H])([H])C8([H])[H])[C@]([H])(C([H])([H])[H])[C@@]9(O[H])[C@@]%10(C([H])([H])[H])[C@@]([H])(O[H])C([H])([H])[C@]%11([H])[C@@]%12(C([H])([H])[H])C%13([H])[H]

>  <ChEMBL_id>  (388) 


>  <ZINC_id>  (388) 


>  <PubChem_id>  (388) 


>  <DrugBank_id>  (388) 


>  <CAS_no>  (388) 
170591-43-2

>  <references>  (388) 
[{'journal': {'name': 'Bioorganic & Medicinal Chemistry Letters', 'id': 28}, 'title': 'Antineoplastic agents. Part 292. Isolation and structure of the exceptional pterobranchia human cancer inhibitors cephalostatins 16 and 17', 'year': 1995, 'start_page': 2027, 'volume': 5, 'issue': 17, 'doi': '10.1016/0960-894X(95)00346-U', 'isbn': '', 'despositor': {'code': 'TMM', 'first_name': 'Thommas', 'last_name': 'Musyoka', 'id': 22}, 'refauthors_set': [{'author': {'first_name': 'George', 'initials': 'GR', 'last_name': 'Pettit', 'id': 478}, 'first_author': True, 'id': 1017}, {'author': {'first_name': '', 'initials': 'J', 'last_name': 'Xu', 'id': 680}, 'first_author': None, 'id': 1018}, {'author': {'first_name': '', 'initials': 'MS', 'last_name': 'Jean', 'id': 499}, 'first_author': None, 'id': 1019}, {'author': {'first_name': 'Michael', 'initials': 'R', 'last_name': 'Boyd', 'id': 683}, 'first_author': None, 'id': 1020}], 'id': 334}]

>  <classifications>  (388) 
[{'classification': 'Alkaloid', 'id': 738}, {'classification': 'Cephalostatin', 'id': 759}, {'classification': 'Steroid', 'id': 835}, {'classification': 'Steroids and steroid derivatives (Classyfire)', 'id': 942}]

>  <molecular_mass>  (388) 
911.17

$$$$
SANC00491_minRM1.pdb
     RDKit          3D

140152  0  0  1  0  0  0  0  0999 V2000
  -10.6000    0.1860    1.9330 C   0  0  0  0  0  0  0  0  0  0  0  0
    9.5140    1.1040   -2.0230 C   0  0  0  0  0  0  0  0  0  0  0  0
   -8.6860   -4.5330   -0.9430 C   0  0  0  0  0  0  0  0  0  0  0  0
  -11.1830   -4.3150   -1.1450 C   0  0  0  0  0  0  0  0  0  0  0  0
   11.9550   -3.4080    0.7650 C   0  0  0  0  0  0  0  0  0  0  0  0
   13.2250   -2.4420   -1.1740 C   0  0  0  0  0  0  0  0  0  0  0  0
    3.1730    2.5030    1.3300 C   0  0  0  0  0  0  0  0  0  0  0  0
   -3.4610    3.4230   -0.1720 C   0  0  0  0  0  0  0  0  0  0  0  0
    7.6040    2.8330    0.9980 C   0  0  0  0  0  0  0  0  0  0  0  0
   -8.1120    1.9260    1.7190 O   0  0  0  0  0  0  0  0  0  0  0  0
    7.0030   -0.1140   -1.1380 O   0  0  0  0  0  0  0  0  0  0  0  0
  -11.8590   -2.5560    1.5850 O   0  0  0  0  0  0  0  0  0  0  0  0
   10.6340   -1.2420   -2.9680 O   0  0  0  0  0  0  0  0  0  0  0  0
   -5.9300    3.1710   -0.7320 O   0  0  0  0  0  0  0  0  0  0  0  0
    9.8610    1.7810    1.3630 O   0  0  0  0  0  0  0  0  0  0  0  0
   -8.3840    0.6620   -2.4050 C   0  0  0  0  0  0  0  0  0  0  0  0
    7.7280   -0.6210    1.8800 C   0  0  0  0  0  0  0  0  0  0  0  0
   -9.7310    0.3460   -1.8370 C   0  0  0  0  0  0  0  0  0  0  0  0
    3.5530    0.0500    3.1710 C   0  0  0  0  0  0  0  0  0  0  0  0
   -4.2930    2.1970   -3.0300 C   0  0  0  0  0  0  0  0  0  0  0  0
    5.0000   -0.3010    2.8580 C   0  0  0  0  0  0  0  0  0  0  0  0
   -5.6620    1.5210   -2.9840 C   0  0  0  0  0  0  0  0  0  0  0  0
   -7.6020   -1.0870    0.2090 C   0  0  0  0  0  0  0  0  0  0  0  0
   -5.9390    1.4180    0.8860 C   0  0  0  0  0  0  0  0  0  0  0  0
    1.2730    0.4440    2.2640 C   0  0  0  0  0  0  0  0  0  0  0  0
   -1.9290    1.9940   -2.1700 C   0  0  0  0  0  0  0  0  0  0  0  0
    2.4720    0.9050   -0.4400 C   0  0  0  0  0  0  0  0  0  0  0  0
   -3.1590    1.0470    0.4110 C   0  0  0  0  0  0  0  0  0  0  0  0
    5.3870    1.5680   -0.4850 C   0  0  0  0  0  0  0  0  0  0  0  0
  -10.0950   -4.1400    1.1420 C   0  0  0  0  0  0  0  0  0  0  0  0
   10.8000   -3.1370   -1.4860 C   0  0  0  0  0  0  0  0  0  0  0  0
    0.2400    1.4250   -1.2400 N   0  0  0  0  0  0  0  0  0  0  0  0
   -0.9080    0.7280    1.2480 N   0  0  0  0  0  0  0  0  0  0  0  0
   -8.4670   -1.7280    1.1010 O   0  0  0  0  0  0  0  0  0  0  0  0
    9.2810   -1.5070    0.3130 O   0  0  0  0  0  0  0  0  0  0  0  0
   -9.8190   -2.4750   -0.5490 O   0  0  0  0  0  0  0  0  0  0  0  0
   11.4470   -1.2720   -0.1510 O   0  0  0  0  0  0  0  0  0  0  0  0
   -7.4410    1.3040    0.9210 C   0  0  0  0  0  0  0  0  0  0  0  0
   -7.4420    0.7050   -1.4580 C   0  0  0  0  0  0  0  0  0  0  0  0
    6.9920    0.4350    1.5360 C   0  0  0  0  0  0  0  0  0  0  0  0
    0.4340    0.7260    1.0610 C   0  0  0  0  0  0  0  0  0  0  0  0
   -1.0980    1.4790   -1.0370 C   0  0  0  0  0  0  0  0  0  0  0  0
    1.0040    1.0310   -0.1920 C   0  0  0  0  0  0  0  0  0  0  0  0
   -1.6750    1.0900    0.1930 C   0  0  0  0  0  0  0  0  0  0  0  0
    6.8720    1.2190   -0.7380 C   0  0  1  0  0  0  0  0  0  0  0  0
  -10.4840   -2.7620    1.7080 C   0  0  1  0  0  0  0  0  0  0  0  0
    9.9970   -1.8900   -1.9090 C   0  0  1  0  0  0  0  0  0  0  0  0
  -10.4160   -0.4050    0.5350 C   0  0  1  0  0  0  0  0  0  0  0  0
   10.0020    0.5480   -0.7040 C   0  0  1  0  0  0  0  0  0  0  0  0
    9.1060   -0.5300    1.3080 C   0  0  1  0  0  0  0  0  0  0  0  0
    2.7110    0.0800    1.8940 C   0  0  1  0  0  0  0  0  0  0  0  0
   -3.3890    1.6000   -1.9630 C   0  0  1  0  0  0  0  0  0  0  0  0
    5.5740    0.7160    1.8720 C   0  0  1  0  0  0  0  0  0  0  0  0
   -5.9830    0.9330   -1.6030 C   0  0  2  0  0  0  0  0  0  0  0  0
   -9.5400    0.5180   -0.3140 C   0  0  1  0  0  0  0  0  0  0  0  0
    4.7540    0.6670    0.5740 C   0  0  1  0  0  0  0  0  0  0  0  0
   -9.9410   -3.8770   -0.3680 C   0  0  1  0  0  0  0  0  0  0  0  0
   11.8570   -2.5760   -0.5100 C   0  0  1  0  0  0  0  0  0  0  0  0
    3.2850    1.0580    0.8560 C   0  0  2  0  0  0  0  0  0  0  0  0
   -3.8790    2.0010   -0.5580 C   0  0  2  0  0  0  0  0  0  0  0  0
    7.6860    1.3670    0.5680 C   0  0  1  0  0  0  0  0  0  0  0  0
   -5.4460    1.8800   -0.4990 C   0  0  1  0  0  0  0  0  0  0  0  0
   -8.0170    0.3600   -0.1060 C   0  0  1  0  0  0  0  0  0  0  0  0
    9.1710    0.8580    0.5760 C   0  0  1  0  0  0  0  0  0  0  0  0
   -9.8040   -1.8030    0.6800 C   0  0  1  0  0  0  0  0  0  0  0  0
   10.1640   -0.9910   -0.6570 C   0  0  1  0  0  0  0  0  0  0  0  0
  -10.8490    1.2560    1.9040 H   0  0  0  0  0  0  0  0  0  0  0  0
  -11.4210   -0.2880    2.4900 H   0  0  0  0  0  0  0  0  0  0  0  0
   -9.6990    0.0920    2.5550 H   0  0  0  0  0  0  0  0  0  0  0  0
    9.0090    2.0760   -1.8950 H   0  0  0  0  0  0  0  0  0  0  0  0
   10.3540    1.2880   -2.7130 H   0  0  0  0  0  0  0  0  0  0  0  0
    8.8320    0.4480   -2.5760 H   0  0  0  0  0  0  0  0  0  0  0  0
   -8.5620   -4.3090   -2.0120 H   0  0  0  0  0  0  0  0  0  0  0  0
   -7.7700   -4.1860   -0.4440 H   0  0  0  0  0  0  0  0  0  0  0  0
   -8.7230   -5.6260   -0.8390 H   0  0  0  0  0  0  0  0  0  0  0  0
  -11.3160   -5.4060   -1.1130 H   0  0  0  0  0  0  0  0  0  0  0  0
  -12.0990   -3.8580   -0.7430 H   0  0  0  0  0  0  0  0  0  0  0  0
  -11.1250   -4.0260   -2.2040 H   0  0  0  0  0  0  0  0  0  0  0  0
   12.6990   -2.9980    1.4650 H   0  0  0  0  0  0  0  0  0  0  0  0
   10.9980   -3.4400    1.3110 H   0  0  0  0  0  0  0  0  0  0  0  0
   12.2460   -4.4470    0.5480 H   0  0  0  0  0  0  0  0  0  0  0  0
   13.6440   -3.4210   -1.4380 H   0  0  0  0  0  0  0  0  0  0  0  0
   13.1770   -1.8440   -2.0960 H   0  0  0  0  0  0  0  0  0  0  0  0
   13.9510   -1.9460   -0.5150 H   0  0  0  0  0  0  0  0  0  0  0  0
    2.1610    2.9150    1.2060 H   0  0  0  0  0  0  0  0  0  0  0  0
    3.4210    2.6370    2.3920 H   0  0  0  0  0  0  0  0  0  0  0  0
    3.8440    3.1760    0.7690 H   0  0  0  0  0  0  0  0  0  0  0  0
   -2.3860    3.5240    0.0370 H   0  0  0  0  0  0  0  0  0  0  0  0
   -3.6870    4.1680   -0.9490 H   0  0  0  0  0  0  0  0  0  0  0  0
   -3.9670    3.7630    0.7440 H   0  0  0  0  0  0  0  0  0  0  0  0
    7.8530    2.9740    2.0600 H   0  0  0  0  0  0  0  0  0  0  0  0
    8.2850    3.4700    0.4140 H   0  0  0  0  0  0  0  0  0  0  0  0
    6.6000    3.2680    0.8670 H   0  0  0  0  0  0  0  0  0  0  0  0
    6.4370   -0.2400   -1.9070 H   0  0  0  0  0  0  0  0  0  0  0  0
  -12.2850   -3.0830    2.2670 H   0  0  0  0  0  0  0  0  0  0  0  0
   10.5470   -1.8110   -3.7390 H   0  0  0  0  0  0  0  0  0  0  0  0
   -6.8870    3.1260   -0.8360 H   0  0  0  0  0  0  0  0  0  0  0  0
   10.7420    1.4350    1.5430 H   0  0  0  0  0  0  0  0  0  0  0  0
   -8.2660    0.8130   -3.4750 H   0  0  0  0  0  0  0  0  0  0  0  0
    7.4500   -1.4720    2.4940 H   0  0  0  0  0  0  0  0  0  0  0  0
  -10.5210    1.0160   -2.2340 H   0  0  0  0  0  0  0  0  0  0  0  0
  -10.0510   -0.6710   -2.1370 H   0  0  0  0  0  0  0  0  0  0  0  0
    3.1290   -0.6860    3.8890 H   0  0  0  0  0  0  0  0  0  0  0  0
    3.5010    1.0180    3.7150 H   0  0  0  0  0  0  0  0  0  0  0  0
   -3.8460    2.0880   -4.0400 H   0  0  0  0  0  0  0  0  0  0  0  0
   -4.3890    3.2940   -2.8980 H   0  0  0  0  0  0  0  0  0  0  0  0
    5.6020   -0.3210    3.7900 H   0  0  0  0  0  0  0  0  0  0  0  0
    5.0670   -1.3350    2.4570 H   0  0  0  0  0  0  0  0  0  0  0  0
   -6.4320    2.2600   -3.2880 H   0  0  0  0  0  0  0  0  0  0  0  0
   -5.7270    0.7180   -3.7460 H   0  0  0  0  0  0  0  0  0  0  0  0
   -6.6200   -1.1440    0.7300 H   0  0  0  0  0  0  0  0  0  0  0  0
   -7.4820   -1.6710   -0.7340 H   0  0  0  0  0  0  0  0  0  0  0  0
   -5.5820    2.1190    1.6720 H   0  0  0  0  0  0  0  0  0  0  0  0
   -5.5360    0.4210    1.1650 H   0  0  0  0  0  0  0  0  0  0  0  0
    1.2360    1.3360    2.9300 H   0  0  0  0  0  0  0  0  0  0  0  0
    0.8200   -0.3680    2.8770 H   0  0  0  0  0  0  0  0  0  0  0  0
   -1.8020    3.0940   -2.2650 H   0  0  0  0  0  0  0  0  0  0  0  0
   -1.5570    1.6000   -3.1420 H   0  0  0  0  0  0  0  0  0  0  0  0
    2.6570   -0.0840   -0.9180 H   0  0  0  0  0  0  0  0  0  0  0  0
    2.8040    1.6480   -1.2000 H   0  0  0  0  0  0  0  0  0  0  0  0
   -3.4960   -0.0040    0.2780 H   0  0  0  0  0  0  0  0  0  0  0  0
   -3.3830    1.2960    1.4710 H   0  0  0  0  0  0  0  0  0  0  0  0
    5.2990    2.6400   -0.1870 H   0  0  0  0  0  0  0  0  0  0  0  0
    4.8290    1.5040   -1.4440 H   0  0  0  0  0  0  0  0  0  0  0  0
   -9.1530   -4.4990    1.6010 H   0  0  0  0  0  0  0  0  0  0  0  0
  -10.8370   -4.9310    1.3630 H   0  0  0  0  0  0  0  0  0  0  0  0
   10.1380   -3.8790   -0.9980 H   0  0  0  0  0  0  0  0  0  0  0  0
   11.2520   -3.6790   -2.3370 H   0  0  0  0  0  0  0  0  0  0  0  0
    7.2670    1.9330   -1.5170 H   0  0  0  0  0  0  0  0  0  0  0  0
  -10.1220   -2.5950    2.7540 H   0  0  0  0  0  0  0  0  0  0  0  0
    8.9210   -2.1060   -2.1300 H   0  0  0  0  0  0  0  0  0  0  0  0
  -11.4170   -0.4990    0.0410 H   0  0  0  0  0  0  0  0  0  0  0  0
   11.0260    1.0050   -0.5780 H   0  0  0  0  0  0  0  0  0  0  0  0
    9.8870   -0.6630    2.1000 H   0  0  0  0  0  0  0  0  0  0  0  0
    2.7100   -0.9490    1.4470 H   0  0  0  0  0  0  0  0  0  0  0  0
   -3.4270    0.4810   -2.0670 H   0  0  0  0  0  0  0  0  0  0  0  0
    5.5280    1.7340    2.3390 H   0  0  0  0  0  0  0  0  0  0  0  0
   -5.4910   -0.0680   -1.4820 H   0  0  0  0  0  0  0  0  0  0  0  0
   -9.8240    1.5780   -0.0750 H   0  0  0  0  0  0  0  0  0  0  0  0
    4.7760   -0.3870    0.1880 H   0  0  0  0  0  0  0  0  0  0  0  0
  1 48  1  0
  1 67  1  0
  1 68  1  0
  1 69  1  0
  2 71  1  0
  2 72  1  0
  2 70  1  0
  2 49  1  0
  3 73  1  0
  3 75  1  0
  3 74  1  0
 57  3  1  6
  4 78  1  0
  4 76  1  0
  4 77  1  0
  4 57  1  0
 58  5  1  1
  5 81  1  0
  5 80  1  0
  5 79  1  0
  6 83  1  0
  6 82  1  0
  6 84  1  0
  6 58  1  0
  7 87  1  0
  7 85  1  0
  7 86  1  0
  8 89  1  0
  8 88  1  0
  8 90  1  0
  9 92  1  0
  9 93  1  0
  9 91  1  0
 10 38  2  0
 11 94  1  0
 11 45  1  0
 12 46  1  0
 12 95  1  0
 13 96  1  0
 13 47  1  0
 14 97  1  0
 15 98  1  0
 16 99  1  0
 16 18  1  0
 16 39  2  0
 17 50  1  0
 17 40  2  0
 17100  1  0
 18101  1  0
 18102  1  0
 18 55  1  0
 19 51  1  0
 19 21  1  0
 19104  1  0
 19103  1  0
 20105  1  0
 20 22  1  0
 20106  1  0
 20 52  1  0
 21 53  1  0
 21108  1  0
 21107  1  0
 22110  1  0
 22109  1  0
 22 54  1  0
 23112  1  0
 23 63  1  0
 23111  1  0
 23 34  1  0
 24 62  1  0
 24 38  1  0
 24114  1  0
 24113  1  0
 25 41  1  0
 25 51  1  0
 25116  1  0
 25115  1  0
 26118  1  0
 26117  1  0
 26 52  1  0
 26 42  1  0
 27120  1  0
 27119  1  0
 27 43  1  0
 27 59  1  0
 28 60  1  0
 28 44  1  0
 28121  1  0
 28122  1  0
 29124  1  0
 29 45  1  0
 29123  1  0
 29 56  1  0
 30 57  1  0
 30126  1  0
 30125  1  0
 30 46  1  0
 31128  1  0
 31 47  1  0
 31127  1  0
 31 58  1  0
 32 42  2  0
 32 43  1  0
 33 44  2  0
 33 41  1  0
 35 50  1  0
 36 57  1  0
 65 36  1  6
 66 37  1  1
 37 58  1  0
 39 54  1  0
 39 63  1  0
 40 61  1  0
 40 53  1  0
 41 43  2  0
 42 44  1  0
 45129  1  6
 45 61  1  0
 46 65  1  0
 46130  1  1
 47131  1  6
 47 66  1  0
 48 55  1  0
 48132  1  6
 48 65  1  0
 49 66  1  0
 49133  1  1
 49 64  1  0
 50 64  1  0
 50134  1  1
 51 59  1  0
 51135  1  6
 52136  1  1
 52 60  1  0
 53 56  1  0
 53137  1  1
 54138  1  6
 54 62  1  0
 55 63  1  0
 55139  1  1
 56140  1  6
 56 59  1  0
 59  7  1  1
 60  8  1  1
 60 62  1  0
 61  9  1  1
 61 64  1  0
 62 14  1  6
 63 38  1  1
 64 15  1  1
 65 34  1  0
 66 35  1  0
M  END
>  <id>  (389) 
491

>  <scaffolds>  (389) 
['O=C1CC2C(CCC3Cc4nc5c(nc4CC32)CC2CCC3C4=CC6OC7(CCCO7)CC6C4CCC3C2C5)C2=CCC3CC4(CCCO4)OCC123', 'C1CCOCC1', 'C1CCCCC1', 'C=C1CCCC2CCCCC12', 'O=C1CC2C(CCC3Cc4nc5c(nc4CC32)CC2CCC3C4=CC6OC7(CCCO7)CC6C4CCC3C2C5)C2=CCC3CCOCC123', 'C1CCC2CCCCC2C1']

>  <name>  (389) 
Cephalostatin 17

>  <formula>  (389) 
C54H74N2O10

>  <SMILES>  (389) 
O=C1C([H])([H])[C@]7(O[H])[C@@]([H])(C2=C([H])C([H])([H])[C@@]3([H])[C@]([H])(C([H])([H])[H])[C@]4(OC([H])([H])[C@@]123)OC(C([H])([H])[H])(C([H])([H])[H])C([H])([H])[C@]4([H])O[H])C([H])([H])C([H])([H])[C@@]6([H])C([H])([H])c5nc%13c(nc5C([H])([H])[C@]67C([H])([H])[H])C([H])([H])[C@]%12([H])C([H])([H])C([H])([H])[C@@]%11([H])C%10=C([H])[C@@]9([H])O[C@]8(OC(C([H])([H])[H])(C([H])([H])[H])C([H])([H])[C@]8([H])O[H])[C@@]([H])(C([H])([H])[H])[C@@]9(O[H])[C@@]%10(C([H])([H])[H])[C@@]([H])(O[H])C([H])([H])[C@]%11([H])[C@@]%12(C([H])([H])[H])C%13([H])[H]

>  <ChEMBL_id>  (389) 


>  <ZINC_id>  (389) 


>  <PubChem_id>  (389) 


>  <DrugBank_id>  (389) 


>  <CAS_no>  (389) 
170591-44-3

>  <references>  (389) 
[{'journal': {'name': 'Journal of Natural Products', 'id': 5}, 'title': 'Review of Cytotoxic Cephalostatins and Ritterazines: Isolation and Synthesis', 'year': 2008, 'start_page': 487, 'volume': 71, 'issue': 3, 'doi': '10.1021/np070536z', 'isbn': '', 'despositor': {'code': 'TMM', 'first_name': 'Thommas', 'last_name': 'Musyoka', 'id': 22}, 'refauthors_set': [{'author': {'first_name': '', 'initials': 'BR', 'last_name': 'Moser', 'id': 701}, 'first_author': True, 'id': 983}, {'author': {'first_name': 'Amira', 'initials': 'A', 'last_name': 'Rudi', 'id': 534}, 'first_author': False, 'id': 1097}], 'id': 328}, {'journal': {'name': 'Bioorganic & Medicinal Chemistry Letters', 'id': 28}, 'title': 'Antineoplastic agents. Part 292. Isolation and structure of the exceptional pterobranchia human cancer inhibitors cephalostatins 16 and 17', 'year': 1995, 'start_page': 2027, 'volume': 5, 'issue': 17, 'doi': '10.1016/0960-894X(95)00346-U', 'isbn': '', 'despositor': {'code': 'TMM', 'first_name': 'Thommas', 'last_name': 'Musyoka', 'id': 22}, 'refauthors_set': [{'author': {'first_name': 'George', 'initials': 'GR', 'last_name': 'Pettit', 'id': 478}, 'first_author': True, 'id': 1017}, {'author': {'first_name': '', 'initials': 'J', 'last_name': 'Xu', 'id': 680}, 'first_author': None, 'id': 1018}, {'author': {'first_name': '', 'initials': 'MS', 'last_name': 'Jean', 'id': 499}, 'first_author': None, 'id': 1019}, {'author': {'first_name': 'Michael', 'initials': 'R', 'last_name': 'Boyd', 'id': 683}, 'first_author': None, 'id': 1020}], 'id': 334}]

>  <classifications>  (389) 
[{'classification': 'Alkaloid', 'id': 738}, {'classification': 'Cephalostatin', 'id': 759}, {'classification': 'Steroid', 'id': 835}, {'classification': 'Steroids and steroid derivatives (Classyfire)', 'id': 942}]

>  <molecular_mass>  (389) 
911.17

$$$$
SANC00492_minRM1.pdb
     RDKit          3D

 40 41  0  0  0  0  0  0  0  0999 V2000
   -5.5680    0.5840    1.3480 C   0  0  0  0  0  0  0  0  0  0  0  0
   -4.9470    0.9230    0.0430 C   0  0  0  0  0  0  0  0  0  0  0  0
   -3.6280    0.9590   -0.1590 C   0  0  0  0  0  0  0  0  0  0  0  0
   -2.6020    0.6760    0.8860 C   0  0  0  0  0  0  0  0  0  0  0  0
   -1.5090   -0.1510    0.2900 C   0  0  0  0  0  0  0  0  0  0  0  0
   -1.6720   -1.5340    0.1370 C   0  0  0  0  0  0  0  0  0  0  0  0
   -0.6490   -2.3590   -0.3430 C   0  0  0  0  0  0  0  0  0  0  0  0
    0.5490   -1.7620   -0.7160 C   0  0  0  0  0  0  0  0  0  0  0  0
    0.7420   -0.3830   -0.6310 C   0  0  0  0  0  0  0  0  0  0  0  0
   -0.2970    0.4040   -0.1360 C   0  0  0  0  0  0  0  0  0  0  0  0
   -0.0260    1.7290   -0.0440 O   0  0  0  0  0  0  0  0  0  0  0  0
    1.9920    0.2380   -1.1280 C   0  0  0  0  0  0  0  0  0  0  0  0
    2.0510    0.6030   -2.2900 O   0  0  0  0  0  0  0  0  0  0  0  0
    3.1290    0.3620   -0.2020 C   0  0  0  0  0  0  0  0  0  0  0  0
    3.0890   -0.2280    1.0590 C   0  0  0  0  0  0  0  0  0  0  0  0
    4.1820   -0.1160    1.9100 C   0  0  0  0  0  0  0  0  0  0  0  0
    5.3120    0.5840    1.5070 C   0  0  0  0  0  0  0  0  0  0  0  0
    5.3520    1.1760    0.2500 C   0  0  0  0  0  0  0  0  0  0  0  0
    4.2620    1.0680   -0.6040 C   0  0  0  0  0  0  0  0  0  0  0  0
    1.5540   -2.5890   -1.1180 O   0  0  0  0  0  0  0  0  0  0  0  0
   -2.8090   -2.1990    0.4520 O   0  0  0  0  0  0  0  0  0  0  0  0
   -5.8990    1.2350   -1.0570 C   0  0  0  0  0  0  0  0  0  0  0  0
   -5.1900    1.2150    2.1650 H   0  0  0  0  0  0  0  0  0  0  0  0
   -6.6610    0.7020    1.3490 H   0  0  0  0  0  0  0  0  0  0  0  0
   -5.3810   -0.4630    1.6350 H   0  0  0  0  0  0  0  0  0  0  0  0
   -3.2200    1.2340   -1.1350 H   0  0  0  0  0  0  0  0  0  0  0  0
   -2.2230    1.6340    1.3070 H   0  0  0  0  0  0  0  0  0  0  0  0
   -3.0100    0.1660    1.7880 H   0  0  0  0  0  0  0  0  0  0  0  0
   -0.7870   -3.4410   -0.4240 H   0  0  0  0  0  0  0  0  0  0  0  0
   -0.8260    2.2190   -0.3080 H   0  0  0  0  0  0  0  0  0  0  0  0
    2.2010   -0.7790    1.3860 H   0  0  0  0  0  0  0  0  0  0  0  0
    4.1550   -0.5890    2.8970 H   0  0  0  0  0  0  0  0  0  0  0  0
    6.1720    0.6690    2.1800 H   0  0  0  0  0  0  0  0  0  0  0  0
    6.2430    1.7250   -0.0680 H   0  0  0  0  0  0  0  0  0  0  0  0
    4.2960    1.5470   -1.5890 H   0  0  0  0  0  0  0  0  0  0  0  0
    1.6870   -2.3930   -2.0750 H   0  0  0  0  0  0  0  0  0  0  0  0
   -3.5440   -1.5750    0.5140 H   0  0  0  0  0  0  0  0  0  0  0  0
   -6.4600    2.1570   -0.8420 H   0  0  0  0  0  0  0  0  0  0  0  0
   -5.4150    1.3900   -2.0350 H   0  0  0  0  0  0  0  0  0  0  0  0
   -6.6430    0.4410   -1.1910 H   0  0  0  0  0  0  0  0  0  0  0  0
  1  2  1  0
  1 24  1  0
  1 25  1  0
  1 23  1  0
  2 22  1  0
  2  3  2  0
  3 26  1  0
  3  4  1  0
  4  5  1  0
  4 27  1  0
  4 28  1  0
  5 10  2  0
  5  6  1  0
  6  7  2  0
  6 21  1  0
  7  8  1  0
  7 29  1  0
  8 20  1  0
  8  9  2  0
  9 12  1  0
  9 10  1  0
 10 11  1  0
 11 30  1  0
 12 13  2  0
 12 14  1  0
 14 19  2  0
 14 15  1  0
 15 31  1  0
 15 16  2  0
 16 17  1  0
 16 32  1  0
 17 18  2  0
 17 33  1  0
 18 19  1  0
 18 34  1  0
 19 35  1  0
 20 36  1  0
 21 37  1  0
 22 39  1  0
 22 40  1  0
 22 38  1  0
M  END
>  <id>  (390) 
492

>  <scaffolds>  (390) 
['c1ccccc1', 'O=C(c1ccccc1)c1ccccc1', 'c1ccc(Cc2ccccc2)cc1']

>  <name>  (390) 
Methanone, phenyl[2,4,6-trihydroxy-3-(3-methyl-2-buten-1-yl)phenyl]

>  <formula>  (390) 
C18H18O4

>  <SMILES>  (390) 
CC(=CCc1c(cc(c(c1O)C(=O)c2ccccc2)O)O)C

>  <ChEMBL_id>  (390) 


>  <ZINC_id>  (390) 


>  <PubChem_id>  (390) 


>  <DrugBank_id>  (390) 


>  <CAS_no>  (390) 
93796-20-4

>  <references>  (390) 
[{'journal': {'name': 'Phytochemistry', 'id': 10}, 'title': 'Twenty-one acylphloroglucinol derivatives and further constituents from south african Helichrysum species', 'year': 1989, 'start_page': 1119, 'volume': 28, 'issue': 4, 'doi': '10.1016/0031-9422(89)80195-5', 'isbn': '', 'despositor': {'code': 'TMM', 'first_name': 'Thommas', 'last_name': 'Musyoka', 'id': 22}, 'refauthors_set': [{'author': {'first_name': '', 'initials': 'J', 'last_name': 'Jakupovic', 'id': 703}, 'first_author': True, 'id': 1021}, {'author': {'first_name': '', 'initials': 'C', 'last_name': 'Zdero', 'id': 704}, 'first_author': None, 'id': 1022}, {'author': {'first_name': '', 'initials': 'M', 'last_name': 'Grenz', 'id': 705}, 'first_author': None, 'id': 1023}, {'author': {'first_name': '', 'initials': 'F', 'last_name': 'Tsichritzis', 'id': 706}, 'first_author': None, 'id': 1024}, {'author': {'first_name': '', 'initials': 'L', 'last_name': 'Lehmann', 'id': 707}, 'first_author': None, 'id': 1025}, {'author': {'first_name': '', 'initials': 'SM', 'last_name': 'Hashemi-Nejad', 'id': 708}, 'first_author': None, 'id': 1026}, {'author': {'first_name': '', 'initials': 'F', 'last_name': 'Bohlmann', 'id': 709}, 'first_author': None, 'id': 1027}], 'id': 335}]

>  <classifications>  (390) 
[{'classification': 'Acylphloroglucinol', 'id': 737}, {'classification': 'Benzene and substituted derivatives (Classyfire)', 'id': 961}]

>  <molecular_mass>  (390) 
298.33

$$$$
SANC00493_minRM1.pdb
     RDKit          3D

137145  0  0  1  0  0  0  0  0999 V2000
   -3.0230   -1.8590    1.3770 H   0  0  0  0  0  0  0  0  0  0  0  0
   -3.2490   -2.4500    0.4450 C   0  0  2  0  0  0  0  0  0  0  0  0
   -2.3160   -2.2670   -0.5730 O   0  0  0  0  0  0  0  0  0  0  0  0
   -0.9540   -2.4240   -0.2210 C   0  0  1  0  0  0  0  0  0  0  0  0
   -0.7830   -3.3390    0.4050 H   0  0  0  0  0  0  0  0  0  0  0  0
   -0.2370   -2.5500   -1.5690 C   0  0  0  0  0  0  0  0  0  0  0  0
    1.2610   -2.6700   -1.3360 C   0  0  0  0  0  0  0  0  0  0  0  0
    1.8520   -1.5040   -0.5300 C   0  0  1  0  0  0  0  0  0  0  0  0
    1.8430   -0.2260   -1.3710 C   0  0  0  0  0  0  0  0  0  0  0  0
    1.0280   -1.2370    0.6960 C   0  0  0  0  0  0  0  0  0  0  0  0
    1.5610   -0.9790    1.8910 C   0  0  0  0  0  0  0  0  0  0  0  0
    3.0230   -0.9360    2.1600 C   0  0  0  0  0  0  0  0  0  0  0  0
    3.8350   -0.8490    0.8700 C   0  0  2  0  0  0  0  0  0  0  0  0
    3.3000   -1.8860   -0.1270 C   0  0  2  0  0  0  0  0  0  0  0  0
    3.2680   -2.8750    0.4030 H   0  0  0  0  0  0  0  0  0  0  0  0
    4.1950   -2.0500   -1.3630 C   0  0  0  0  0  0  0  0  0  0  0  0
    5.6960   -2.1160   -1.0740 C   0  0  0  0  0  0  0  0  0  0  0  0
    6.1190   -0.9900   -0.1460 C   0  0  1  0  0  0  0  0  0  0  0  0
    5.9720    0.4400   -0.7470 C   0  0  2  0  0  0  0  0  0  0  0  0
    5.1870    1.0670   -0.2340 H   0  0  0  0  0  0  0  0  0  0  0  0
    5.7760    0.3500   -2.1380 O   0  0  0  0  0  0  0  0  0  0  0  0
    5.4070    1.5590   -2.7520 C   0  0  0  0  0  0  0  0  0  0  0  0
    7.1930    1.1180   -0.5950 O   0  0  0  0  0  0  0  0  0  0  0  0
    8.2330    0.1860   -0.4270 C   0  0  1  0  0  0  0  0  0  0  0  0
    8.7620   -0.2480   -1.7940 C   0  0  0  0  0  0  0  0  0  0  0  0
    9.3710    0.8390    0.3650 C   0  0  1  0  0  0  0  0  0  0  0  0
   10.1680    0.0610    0.4860 H   0  0  0  0  0  0  0  0  0  0  0  0
    9.8700    2.0630   -0.3230 C   0  0  0  0  0  0  0  0  0  0  0  0
   11.1440    2.2770   -0.6600 C   0  0  0  0  0  0  0  0  0  0  0  0
   12.2450    1.3130   -0.3920 C   0  0  0  0  0  0  0  0  0  0  0  0
   11.5510    3.5260   -1.3610 C   0  0  0  0  0  0  0  0  0  0  0  0
    8.8980    1.2020    1.7810 C   0  0  1  0  0  0  0  0  0  0  0  0
    7.8680    2.1260    1.6960 O   0  0  0  0  0  0  0  0  0  0  0  0
    8.4390    0.0760    2.4720 O   0  0  0  0  0  0  0  0  0  0  0  0
    7.5050   -0.7630    1.8670 C   0  0  1  0  0  0  0  0  0  0  0  0
    7.7260   -1.7300    2.3960 H   0  0  0  0  0  0  0  0  0  0  0  0
    6.0490   -0.3390    2.1650 C   0  0  0  0  0  0  0  0  0  0  0  0
    5.2950   -1.1710    1.1390 C   0  0  1  0  0  0  0  0  0  0  0  0
    5.3590   -2.2430    1.4740 H   0  0  0  0  0  0  0  0  0  0  0  0
    7.5910   -0.9870    0.3360 C   0  0  1  0  0  0  0  0  0  0  0  0
    8.1180   -1.9400    0.1150 H   0  0  0  0  0  0  0  0  0  0  0  0
   -0.4530   -1.1750    0.5110 C   0  0  0  0  0  0  0  0  0  0  0  0
   -3.2310   -3.8390    0.6840 O   0  0  0  0  0  0  0  0  0  0  0  0
   -4.1430   -4.2370    1.6740 C   0  0  2  0  0  0  0  0  0  0  0  0
   -3.9640   -3.7080    2.6500 H   0  0  0  0  0  0  0  0  0  0  0  0
   -3.8920   -5.7530    1.8430 C   0  0  0  0  0  0  0  0  0  0  0  0
   -2.6690   -5.8890    2.5070 O   0  0  0  0  0  0  0  0  0  0  0  0
   -5.5800   -3.9600    1.1660 C   0  0  1  0  0  0  0  0  0  0  0  0
   -6.5040   -4.1700    2.1910 O   0  0  0  0  0  0  0  0  0  0  0  0
   -5.7270   -2.4480    0.8380 C   0  0  2  0  0  0  0  0  0  0  0  0
   -5.6390   -1.8340    1.7770 H   0  0  0  0  0  0  0  0  0  0  0  0
   -6.9380   -2.2440    0.1810 O   0  0  0  0  0  0  0  0  0  0  0  0
   -4.6250   -2.0470   -0.1710 C   0  0  1  0  0  0  0  0  0  0  0  0
   -4.7840   -2.5540   -1.1590 H   0  0  0  0  0  0  0  0  0  0  0  0
   -4.6740   -0.6440   -0.2330 O   0  0  0  0  0  0  0  0  0  0  0  0
   -4.2880   -0.0780   -1.4510 C   0  0  1  0  0  0  0  0  0  0  0  0
   -5.3810   -0.3300   -2.3040 O   0  0  0  0  0  0  0  0  0  0  0  0
   -5.1730    0.1720   -3.6030 C   0  0  1  0  0  0  0  0  0  0  0  0
   -6.4230   -0.2520   -4.4090 C   0  0  0  0  0  0  0  0  0  0  0  0
   -6.1960   -1.5170   -4.9390 O   0  0  0  0  0  0  0  0  0  0  0  0
   -5.0700    1.7150   -3.5620 C   0  0  1  0  0  0  0  0  0  0  0  0
   -4.8440    2.1190   -4.5840 H   0  0  0  0  0  0  0  0  0  0  0  0
   -6.2840    2.3000   -3.2380 O   0  0  0  0  0  0  0  0  0  0  0  0
   -3.9350    2.1140   -2.5840 C   0  0  1  0  0  0  0  0  0  0  0  0
   -3.7900    3.4840   -2.4510 O   0  0  0  0  0  0  0  0  0  0  0  0
   -4.1310    1.4480   -1.1960 C   0  0  1  0  0  0  0  0  0  0  0  0
   -3.2370    1.6340   -0.5450 H   0  0  0  0  0  0  0  0  0  0  0  0
   -5.3160    1.9880   -0.6790 O   0  0  0  0  0  0  0  0  0  0  0  0
   -5.3970    2.1210    0.7120 C   0  0  1  0  0  0  0  0  0  0  0  0
   -4.5120    3.1770    0.9960 O   0  0  0  0  0  0  0  0  0  0  0  0
   -4.4570    3.4760    2.3720 C   0  0  1  0  0  0  0  0  0  0  0  0
   -3.4370    4.6040    2.4910 C   0  0  0  0  0  0  0  0  0  0  0  0
   -5.8500    3.9480    2.8650 C   0  0  2  0  0  0  0  0  0  0  0  0
   -6.1200    4.9290    2.3930 H   0  0  0  0  0  0  0  0  0  0  0  0
   -5.7610    3.9940    4.2590 O   0  0  0  0  0  0  0  0  0  0  0  0
   -6.9310    2.8880    2.5180 C   0  0  1  0  0  0  0  0  0  0  0  0
   -8.1470    3.4420    2.9190 O   0  0  0  0  0  0  0  0  0  0  0  0
   -6.8560    2.5710    1.0040 C   0  0  1  0  0  0  0  0  0  0  0  0
   -7.2300    3.7470    0.3570 O   0  0  0  0  0  0  0  0  0  0  0  0
   -0.6140   -3.4340   -2.1260 H   0  0  0  0  0  0  0  0  0  0  0  0
   -0.4800   -1.6920   -2.2310 H   0  0  0  0  0  0  0  0  0  0  0  0
    1.4740   -3.6370   -0.8300 H   0  0  0  0  0  0  0  0  0  0  0  0
    1.7680   -2.7500   -2.3210 H   0  0  0  0  0  0  0  0  0  0  0  0
    0.8540    0.0100   -1.7860 H   0  0  0  0  0  0  0  0  0  0  0  0
    2.1460    0.6580   -0.7900 H   0  0  0  0  0  0  0  0  0  0  0  0
    2.5340   -0.2870   -2.2280 H   0  0  0  0  0  0  0  0  0  0  0  0
    0.9290   -0.7880    2.7680 H   0  0  0  0  0  0  0  0  0  0  0  0
    3.2660   -0.0800    2.8260 H   0  0  0  0  0  0  0  0  0  0  0  0
    3.2990   -1.8360    2.7550 H   0  0  0  0  0  0  0  0  0  0  0  0
    3.7460    0.1890    0.4540 H   0  0  0  0  0  0  0  0  0  0  0  0
    3.9120   -2.9850   -1.8990 H   0  0  0  0  0  0  0  0  0  0  0  0
    3.9790   -1.2510   -2.1060 H   0  0  0  0  0  0  0  0  0  0  0  0
    5.9620   -3.0980   -0.6250 H   0  0  0  0  0  0  0  0  0  0  0  0
    6.2650   -2.1040   -2.0260 H   0  0  0  0  0  0  0  0  0  0  0  0
    4.4260    1.9420   -2.4000 H   0  0  0  0  0  0  0  0  0  0  0  0
    6.1610    2.3600   -2.6220 H   0  0  0  0  0  0  0  0  0  0  0  0
    5.3400    1.3030   -3.8390 H   0  0  0  0  0  0  0  0  0  0  0  0
    9.1010    0.6180   -2.3830 H   0  0  0  0  0  0  0  0  0  0  0  0
    9.6160   -0.9340   -1.7080 H   0  0  0  0  0  0  0  0  0  0  0  0
    8.0070   -0.7590   -2.4060 H   0  0  0  0  0  0  0  0  0  0  0  0
    9.0960    2.8120   -0.5350 H   0  0  0  0  0  0  0  0  0  0  0  0
   12.0800    0.3490   -0.9090 H   0  0  0  0  0  0  0  0  0  0  0  0
   13.2400    1.6670   -0.7500 H   0  0  0  0  0  0  0  0  0  0  0  0
   12.3500    1.1020    0.6870 H   0  0  0  0  0  0  0  0  0  0  0  0
   10.7140    4.2070   -1.5800 H   0  0  0  0  0  0  0  0  0  0  0  0
   12.2740    4.1010   -0.7630 H   0  0  0  0  0  0  0  0  0  0  0  0
   12.0330    3.3040   -2.3250 H   0  0  0  0  0  0  0  0  0  0  0  0
    9.7610    1.5460    2.4210 H   0  0  0  0  0  0  0  0  0  0  0  0
    7.6670    2.4280    2.5920 H   0  0  0  0  0  0  0  0  0  0  0  0
    5.7570   -0.5580    3.2090 H   0  0  0  0  0  0  0  0  0  0  0  0
    5.8720    0.7460    2.0470 H   0  0  0  0  0  0  0  0  0  0  0  0
   -0.7200   -0.2520   -0.0480 H   0  0  0  0  0  0  0  0  0  0  0  0
   -0.9790   -1.0610    1.4830 H   0  0  0  0  0  0  0  0  0  0  0  0
   -4.6640   -6.2060    2.5020 H   0  0  0  0  0  0  0  0  0  0  0  0
   -3.9490   -6.2850    0.8670 H   0  0  0  0  0  0  0  0  0  0  0  0
   -2.0550   -6.3770    1.9090 H   0  0  0  0  0  0  0  0  0  0  0  0
   -5.7980   -4.5740    0.2520 H   0  0  0  0  0  0  0  0  0  0  0  0
   -6.6740   -5.1160    2.2500 H   0  0  0  0  0  0  0  0  0  0  0  0
   -7.6330   -2.2930    0.8460 H   0  0  0  0  0  0  0  0  0  0  0  0
   -3.3270   -0.5030   -1.8620 H   0  0  0  0  0  0  0  0  0  0  0  0
   -4.2460   -0.2580   -4.0710 H   0  0  0  0  0  0  0  0  0  0  0  0
   -7.3500   -0.1720   -3.7930 H   0  0  0  0  0  0  0  0  0  0  0  0
   -6.5760    0.4430   -5.2720 H   0  0  0  0  0  0  0  0  0  0  0  0
   -6.7430   -2.1510   -4.4590 H   0  0  0  0  0  0  0  0  0  0  0  0
   -6.5790    1.9640   -2.3990 H   0  0  0  0  0  0  0  0  0  0  0  0
   -2.9460    1.7860   -3.0030 H   0  0  0  0  0  0  0  0  0  0  0  0
   -4.6510    3.8880   -2.3610 H   0  0  0  0  0  0  0  0  0  0  0  0
   -5.1440    1.1780    1.2700 H   0  0  0  0  0  0  0  0  0  0  0  0
   -4.1160    2.5840    2.9660 H   0  0  0  0  0  0  0  0  0  0  0  0
   -3.7100    5.4840    1.8920 H   0  0  0  0  0  0  0  0  0  0  0  0
   -3.3350    4.9350    3.5340 H   0  0  0  0  0  0  0  0  0  0  0  0
   -2.4410    4.2900    2.1480 H   0  0  0  0  0  0  0  0  0  0  0  0
   -6.0990    4.8550    4.5350 H   0  0  0  0  0  0  0  0  0  0  0  0
   -6.7730    1.9470    3.1100 H   0  0  0  0  0  0  0  0  0  0  0  0
   -8.8010    3.3630    2.2170 H   0  0  0  0  0  0  0  0  0  0  0  0
   -7.5640    1.7440    0.7250 H   0  0  0  0  0  0  0  0  0  0  0  0
   -6.8030    3.7970   -0.5010 H   0  0  0  0  0  0  0  0  0  0  0  0
  2  1  1  1
  2  3  1  0
  2 53  1  0
  2 43  1  0
  3  4  1  0
  4  6  1  0
  4  5  1  1
  4 42  1  0
  6 81  1  0
  6 80  1  0
  6  7  1  0
  7 83  1  0
  7 82  1  0
  7  8  1  0
  8  9  1  6
  8 14  1  0
  8 10  1  0
  9 86  1  0
  9 84  1  0
  9 85  1  0
 10 42  1  0
 10 11  2  0
 11 12  1  0
 11 87  1  0
 12 13  1  0
 12 89  1  0
 12 88  1  0
 13 14  1  0
 13 90  1  6
 13 38  1  0
 14 16  1  0
 14 15  1  1
 16 92  1  0
 16 91  1  0
 16 17  1  0
 17 94  1  0
 17 93  1  0
 18 17  1  6
 18 19  1  0
 18 40  1  0
 18 38  1  0
 19 21  1  0
 19 23  1  0
 19 20  1  1
 21 22  1  0
 22 97  1  0
 22 96  1  0
 22 95  1  0
 23 24  1  0
 24 25  1  6
 24 40  1  0
 24 26  1  0
 25100  1  0
 25 98  1  0
 25 99  1  0
 26 28  1  0
 26 27  1  1
 26 32  1  0
 28 29  2  0
 28101  1  0
 29 31  1  0
 29 30  1  0
 30102  1  0
 30103  1  0
 30104  1  0
 31107  1  0
 31105  1  0
 31106  1  0
 32 33  1  0
 32108  1  1
 32 34  1  0
 33109  1  0
 34 35  1  0
 35 40  1  0
 35 37  1  0
 35 36  1  1
 37 38  1  0
 37111  1  0
 37110  1  0
 38 39  1  1
 40 41  1  1
 42112  1  0
 42113  1  0
 43 44  1  0
 44 48  1  0
 44 46  1  0
 44 45  1  1
 46115  1  0
 46114  1  0
 46 47  1  0
 47116  1  0
 48117  1  6
 48 50  1  0
 48 49  1  0
 49118  1  0
 50 53  1  0
 50 52  1  0
 50 51  1  1
 52119  1  0
 53 54  1  6
 53 55  1  0
 55 56  1  0
 56 57  1  0
 56120  1  6
 56 66  1  0
 57 58  1  0
 58 59  1  0
 58121  1  6
 58 61  1  0
 59123  1  0
 59 60  1  0
 59122  1  0
 60124  1  0
 61 62  1  6
 61 63  1  0
 61 64  1  0
 63125  1  0
 64126  1  6
 64 65  1  0
 64 66  1  0
 65127  1  0
 66 68  1  0
 66 67  1  1
 68 69  1  0
 69 70  1  0
 69 78  1  0
 69128  1  1
 70 71  1  0
 71 72  1  0
 71 73  1  0
 71129  1  1
 72130  1  0
 72132  1  0
 72131  1  0
 73 74  1  6
 73 76  1  0
 73 75  1  0
 75133  1  0
 76 78  1  0
 76 77  1  0
 76134  1  1
 77135  1  0
 78 79  1  0
 78136  1  1
 79137  1  0
M  END
>  <id>  (391) 
493

>  <scaffolds>  (391) 
['C1=C2CCCCC2C2CCC3CCCC3C2C1', 'C1=CCCCC1', 'C1=CCC2CCCCC2C1', 'C1CCOCC1', 'C1=C2CC(OC3CCCCO3)CCC2C2CCC3CCCC3C2C1', 'C1CCCCC1', 'C1=C2CC(OC3OCCCC3OC3CCCCO3)CCC2C2CCC3C4CCCOC4CC3C2C1', 'C1=C2CC(OC3OCCCC3OC3OCCCC3OC3CCCCO3)CCC2C2CCC34COC5CCOC(CC3C2C1)C54', 'C1=C2CC(OC3OCCCC3OC3OCCCC3OC3CCCCO3)CCC2C2CCC3C4CCCOC4CC3C2C1', 'C1=C2CCCCC2CCC1', 'C1CCC(OC2CCCOC2)OC1']

>  <name>  (391) 
Saundersioside A

>  <formula>  (391) 
C46H72O19

>  <SMILES>  (391) 
[H][C@@]7(O[C@H]6CC[C@@]1(C)C(=CCC2[C@]1([H])CCC35[C@H](OC)O[C@@]4(C)[C@@H](/C=C(C)/C)C(O)O[C@@]([H])(C[C@@]23[H])[C@]45[H])C6)O[C@H](CO)C(O)[C@H](O)[C@H]7OC8OC(CO)[C@@H](O)C(O)[C@H]8OC9OC(C)[C@H](O)C(O)C9O

>  <ChEMBL_id>  (391) 


>  <ZINC_id>  (391) 


>  <PubChem_id>  (391) 


>  <DrugBank_id>  (391) 


>  <CAS_no>  (391) 
151392-07-3

>  <references>  (391) 
[{'journal': {'name': 'Tetrahedron Letters', 'id': 3}, 'title': 'Structure of a novel 22-homo-23- norcholestane trisaccharide from Ornithogalum saundersiae', 'year': 1993, 'start_page': 6073, 'volume': 34, 'issue': 38, 'doi': '10.1016/S0040-4039(00)61731-8', 'isbn': '', 'despositor': {'code': 'NFA', 'first_name': 'Ngonidzashe', 'last_name': 'Faya', 'id': 21}, 'refauthors_set': [{'author': {'first_name': 'Minpei', 'initials': 'M', 'last_name': 'Kuroda', 'id': 644}, 'first_author': True, 'id': 1028}, {'author': {'first_name': 'Yoshihiro ', 'initials': 'Y', 'last_name': 'Mimaki', 'id': 643}, 'first_author': None, 'id': 1178}, {'author': {'first_name': 'Yutaka', 'initials': 'Y', 'last_name': 'Sashida', 'id': 645}, 'first_author': None, 'id': 1179}], 'id': 336}, {'journal': {'name': 'Tetrahedron', 'id': 4}, 'title': 'Novel cholestane glycosides from the bulbs of Ornithogalum saundersiae and their cytostatic activity on leukemia HL60 and MOLT4 cells', 'year': 1997, 'start_page': 11549, 'volume': 53, 'issue': 34, 'doi': '10.1016/S0040-4020(97)00750-3', 'isbn': '', 'despositor': {'code': 'NFA', 'first_name': 'Ngonidzashe', 'last_name': 'Faya', 'id': 21}, 'refauthors_set': [{'author': {'first_name': 'Minpei', 'initials': 'M', 'last_name': 'Kuroda', 'id': 644}, 'first_author': True, 'id': 1180}, {'author': {'first_name': 'Yoshihiro ', 'initials': 'Y', 'last_name': 'Mimaki', 'id': 643}, 'first_author': None, 'id': 1181}, {'author': {'first_name': 'Yutaka', 'initials': 'Y', 'last_name': 'Sashida', 'id': 645}, 'first_author': None, 'id': 1182}, {'author': {'first_name': 'Toshihiko', 'initials': 'T', 'last_name': 'Hirano', 'id': 641}, 'first_author': None, 'id': 1183}, {'author': {'first_name': 'Kitaro ', 'initials': 'K', 'last_name': 'Oka', 'id': 642}, 'first_author': None, 'id': 1184}, {'author': {'first_name': 'Akira', 'initials': 'A', 'last_name': 'Dobashi', 'id': 651}, 'first_author': None, 'id': 1185}], 'id': 337}]

>  <classifications>  (391) 
[{'classification': 'Cholestane', 'id': 761}, {'classification': 'Saccharide', 'id': 826}, {'classification': 'Trisaccaride', 'id': 841}, {'classification': 'Steroids and steroid derivatives (Classyfire)', 'id': 942}]

>  <molecular_mass>  (391) 
929.05

$$$$
SANC00494_minRM1.pdb
     RDKit          3D

136143  0  0  1  0  0  0  0  0999 V2000
    0.0180   -0.4010    1.0030 H   0  0  0  0  0  0  0  0  0  0  0  0
    0.8940   -0.1230    0.3560 C   0  0  1  0  0  0  0  0  0  0  0  0
    1.5590   -1.4120   -0.1320 C   0  0  0  0  0  0  0  0  0  0  0  0
    2.8330   -1.1370   -0.9170 C   0  0  0  0  0  0  0  0  0  0  0  0
    3.8110   -0.3120   -0.0860 C   0  0  2  0  0  0  0  0  0  0  0  0
    4.1250   -0.9270    0.8010 H   0  0  0  0  0  0  0  0  0  0  0  0
    3.1600    0.9940    0.4050 C   0  0  2  0  0  0  0  0  0  0  0  0
    2.8830    1.6160   -0.4850 H   0  0  0  0  0  0  0  0  0  0  0  0
    4.1640    1.8120    1.2260 C   0  0  0  0  0  0  0  0  0  0  0  0
    5.4400    2.1120    0.4370 C   0  0  0  0  0  0  0  0  0  0  0  0
    6.0710    0.8070   -0.0440 C   0  0  1  0  0  0  0  0  0  0  0  0
    6.4880   -0.0320    1.1670 C   0  0  0  0  0  0  0  0  0  0  0  0
    5.0320    0.0740   -0.9140 C   0  0  1  0  0  0  0  0  0  0  0  0
    4.6850    0.7510   -1.7420 H   0  0  0  0  0  0  0  0  0  0  0  0
    5.8640   -1.0310   -1.5560 C   0  0  0  0  0  0  0  0  0  0  0  0
    7.1710   -0.2850   -1.9380 C   0  0  2  0  0  0  0  0  0  0  0  0
    7.1290    0.0200   -3.0170 H   0  0  0  0  0  0  0  0  0  0  0  0
    8.2420   -1.1810   -1.9450 O   0  0  0  0  0  0  0  0  0  0  0  0
    9.1330   -1.1060   -0.8620 C   0  0  1  0  0  0  0  0  0  0  0  0
    8.6060   -1.3640    0.1050 H   0  0  0  0  0  0  0  0  0  0  0  0
   10.2210   -2.0910   -1.1820 C   0  0  0  0  0  0  0  0  0  0  0  0
   10.7770   -2.8830   -0.2690 C   0  0  0  0  0  0  0  0  0  0  0  0
   10.3770   -2.8800    1.1640 C   0  0  0  0  0  0  0  0  0  0  0  0
   11.8680   -3.8320   -0.6300 C   0  0  0  0  0  0  0  0  0  0  0  0
    9.7020    0.3380   -0.8230 C   0  0  2  0  0  0  0  0  0  0  0  0
   10.1120    0.6160   -1.8360 H   0  0  0  0  0  0  0  0  0  0  0  0
   10.6850    0.4540    0.1620 O   0  0  0  0  0  0  0  0  0  0  0  0
    8.5950    1.3240   -0.4070 C   0  0  1  0  0  0  0  0  0  0  0  0
    8.5160    1.2990    0.7110 H   0  0  0  0  0  0  0  0  0  0  0  0
    9.0380    2.7410   -0.7820 C   0  0  0  0  0  0  0  0  0  0  0  0
    7.2450    0.9840   -1.0450 C   0  0  2  0  0  0  0  0  0  0  0  0
    6.9690    1.8330   -1.7250 H   0  0  0  0  0  0  0  0  0  0  0  0
    1.8800    0.7000    1.2060 C   0  0  2  0  0  0  0  0  0  0  0  0
    2.2060   -0.0780    2.4870 C   0  0  0  0  0  0  0  0  0  0  0  0
    1.1890    2.0040    1.6290 C   0  0  0  0  0  0  0  0  0  0  0  0
    0.6770    2.8040    0.4420 C   0  0  0  0  0  0  0  0  0  0  0  0
   -0.3010    1.9820   -0.4000 C   0  0  2  0  0  0  0  0  0  0  0  0
   -0.5810    2.5700   -1.3180 H   0  0  0  0  0  0  0  0  0  0  0  0
   -1.4170    1.6890    0.4190 O   0  0  0  0  0  0  0  0  0  0  0  0
   -2.6490    2.1000   -0.0700 C   0  0  2  0  0  0  0  0  0  0  0  0
   -2.8420    1.7580   -1.1300 H   0  0  0  0  0  0  0  0  0  0  0  0
   -2.5870    3.5100    0.0160 O   0  0  0  0  0  0  0  0  0  0  0  0
   -3.7830    4.1410   -0.3620 C   0  0  2  0  0  0  0  0  0  0  0  0
   -4.1080    3.8460   -1.3950 H   0  0  0  0  0  0  0  0  0  0  0  0
   -3.4590    5.6520   -0.3410 C   0  0  0  0  0  0  0  0  0  0  0  0
   -2.4810    5.9420   -1.2860 O   0  0  0  0  0  0  0  0  0  0  0  0
   -4.8600    3.7720    0.6800 C   0  0  1  0  0  0  0  0  0  0  0  0
   -4.5370    4.0860    1.7100 H   0  0  0  0  0  0  0  0  0  0  0  0
   -6.0920    4.3130    0.3230 O   0  0  0  0  0  0  0  0  0  0  0  0
   -5.0730    2.2350    0.6500 C   0  0  2  0  0  0  0  0  0  0  0  0
   -5.4920    1.9190   -0.3460 H   0  0  0  0  0  0  0  0  0  0  0  0
   -5.9110    1.8720    1.6960 O   0  0  0  0  0  0  0  0  0  0  0  0
   -3.7180    1.5310    0.9150 C   0  0  1  0  0  0  0  0  0  0  0  0
   -3.3950    1.6750    1.9790 H   0  0  0  0  0  0  0  0  0  0  0  0
   -3.8180    0.1800    0.5340 O   0  0  0  0  0  0  0  0  0  0  0  0
   -4.3640   -0.6900    1.4790 C   0  0  2  0  0  0  0  0  0  0  0  0
   -5.3160   -0.3260    1.9570 H   0  0  0  0  0  0  0  0  0  0  0  0
   -3.3240   -0.8540    2.4190 O   0  0  0  0  0  0  0  0  0  0  0  0
   -3.6630   -1.7460    3.4490 C   0  0  2  0  0  0  0  0  0  0  0  0
   -4.5900   -1.4220    3.9940 H   0  0  0  0  0  0  0  0  0  0  0  0
   -2.4480   -1.7210    4.4040 C   0  0  0  0  0  0  0  0  0  0  0  0
   -2.4000   -0.4950    5.0700 O   0  0  0  0  0  0  0  0  0  0  0  0
   -3.8520   -3.1570    2.8430 C   0  0  1  0  0  0  0  0  0  0  0  0
   -2.8950   -3.5140    2.3740 H   0  0  0  0  0  0  0  0  0  0  0  0
   -4.3330   -4.0390    3.8100 O   0  0  0  0  0  0  0  0  0  0  0  0
   -4.9700   -3.1030    1.7710 C   0  0  2  0  0  0  0  0  0  0  0  0
   -5.9570   -2.8510    2.2470 H   0  0  0  0  0  0  0  0  0  0  0  0
   -5.0270   -4.3150    1.0850 O   0  0  0  0  0  0  0  0  0  0  0  0
   -4.5900   -2.0340    0.7150 C   0  0  1  0  0  0  0  0  0  0  0  0
   -3.6700   -2.3330    0.1460 H   0  0  0  0  0  0  0  0  0  0  0  0
   -5.7060   -1.8010   -0.1020 O   0  0  0  0  0  0  0  0  0  0  0  0
   -5.7740   -2.5700   -1.2740 C   0  0  2  0  0  0  0  0  0  0  0  0
   -5.4610   -3.6420   -1.1580 H   0  0  0  0  0  0  0  0  0  0  0  0
   -4.8440   -2.0760   -2.1800 O   0  0  0  0  0  0  0  0  0  0  0  0
   -5.0390   -0.7510   -2.6210 C   0  0  1  0  0  0  0  0  0  0  0  0
   -4.9540   -0.0260   -1.7690 H   0  0  0  0  0  0  0  0  0  0  0  0
   -3.9250   -0.5070   -3.6350 C   0  0  0  0  0  0  0  0  0  0  0  0
   -6.4200   -0.6360   -3.3050 C   0  0  2  0  0  0  0  0  0  0  0  0
   -6.4770   -1.3110   -4.1990 H   0  0  0  0  0  0  0  0  0  0  0  0
   -6.5820    0.7170   -3.6150 O   0  0  0  0  0  0  0  0  0  0  0  0
   -7.5170   -1.0150   -2.2810 C   0  0  1  0  0  0  0  0  0  0  0  0
   -7.5270   -0.2990   -1.4140 H   0  0  0  0  0  0  0  0  0  0  0  0
   -8.7120   -0.9460   -2.9970 O   0  0  0  0  0  0  0  0  0  0  0  0
   -7.2480   -2.4420   -1.7490 C   0  0  1  0  0  0  0  0  0  0  0  0
   -7.9340   -2.6780   -0.8910 H   0  0  0  0  0  0  0  0  0  0  0  0
   -7.4840   -3.2920   -2.8280 O   0  0  0  0  0  0  0  0  0  0  0  0
    0.3310    0.6550   -0.8320 C   0  0  0  0  0  0  0  0  0  0  0  0
    1.7740   -2.0850    0.7250 H   0  0  0  0  0  0  0  0  0  0  0  0
    0.8480   -2.0000   -0.7540 H   0  0  0  0  0  0  0  0  0  0  0  0
    3.3040   -2.0980   -1.2180 H   0  0  0  0  0  0  0  0  0  0  0  0
    2.6050   -0.6370   -1.8830 H   0  0  0  0  0  0  0  0  0  0  0  0
    3.6980    2.7680    1.5490 H   0  0  0  0  0  0  0  0  0  0  0  0
    4.4180    1.3070    2.1790 H   0  0  0  0  0  0  0  0  0  0  0  0
    5.2120    2.7850   -0.4160 H   0  0  0  0  0  0  0  0  0  0  0  0
    6.1530    2.6930    1.0570 H   0  0  0  0  0  0  0  0  0  0  0  0
    5.6290   -0.4560    1.7140 H   0  0  0  0  0  0  0  0  0  0  0  0
    7.1340   -0.8880    0.8970 H   0  0  0  0  0  0  0  0  0  0  0  0
    7.0520    0.5550    1.9090 H   0  0  0  0  0  0  0  0  0  0  0  0
    6.0400   -1.8880   -0.8780 H   0  0  0  0  0  0  0  0  0  0  0  0
    5.3820   -1.4840   -2.4430 H   0  0  0  0  0  0  0  0  0  0  0  0
   10.5210   -2.1410   -2.2300 H   0  0  0  0  0  0  0  0  0  0  0  0
    9.2950   -3.0510    1.3010 H   0  0  0  0  0  0  0  0  0  0  0  0
   10.8800   -3.6520    1.7570 H   0  0  0  0  0  0  0  0  0  0  0  0
   10.6010   -1.9220    1.6350 H   0  0  0  0  0  0  0  0  0  0  0  0
   12.1820   -3.7670   -1.6820 H   0  0  0  0  0  0  0  0  0  0  0  0
   12.7740   -3.6330   -0.0260 H   0  0  0  0  0  0  0  0  0  0  0  0
   11.5690   -4.8790   -0.4410 H   0  0  0  0  0  0  0  0  0  0  0  0
   11.4200   -0.1150   -0.0840 H   0  0  0  0  0  0  0  0  0  0  0  0
    9.1880    2.8760   -1.8610 H   0  0  0  0  0  0  0  0  0  0  0  0
    8.3070    3.5020   -0.4700 H   0  0  0  0  0  0  0  0  0  0  0  0
    9.9820    3.0030   -0.2900 H   0  0  0  0  0  0  0  0  0  0  0  0
    2.4970    0.5720    3.3230 H   0  0  0  0  0  0  0  0  0  0  0  0
    1.3470   -0.6570    2.8570 H   0  0  0  0  0  0  0  0  0  0  0  0
    3.0290   -0.7970    2.3650 H   0  0  0  0  0  0  0  0  0  0  0  0
    0.3490    1.7780    2.3210 H   0  0  0  0  0  0  0  0  0  0  0  0
    1.8820    2.6360    2.2280 H   0  0  0  0  0  0  0  0  0  0  0  0
    0.1830    3.7370    0.7900 H   0  0  0  0  0  0  0  0  0  0  0  0
    1.5190    3.1500   -0.1980 H   0  0  0  0  0  0  0  0  0  0  0  0
   -4.3410    6.2430   -0.6690 H   0  0  0  0  0  0  0  0  0  0  0  0
   -3.2020    5.9990    0.6830 H   0  0  0  0  0  0  0  0  0  0  0  0
   -1.6410    5.6810   -0.9220 H   0  0  0  0  0  0  0  0  0  0  0  0
   -6.0770    5.2550    0.5530 H   0  0  0  0  0  0  0  0  0  0  0  0
   -6.7920    2.2120    1.5070 H   0  0  0  0  0  0  0  0  0  0  0  0
   -2.6020   -2.4560    5.2260 H   0  0  0  0  0  0  0  0  0  0  0  0
   -1.5110   -2.0080    3.8810 H   0  0  0  0  0  0  0  0  0  0  0  0
   -1.8760    0.1000    4.5200 H   0  0  0  0  0  0  0  0  0  0  0  0
   -3.6000   -4.2890    4.3760 H   0  0  0  0  0  0  0  0  0  0  0  0
   -5.3270   -4.9840    1.7120 H   0  0  0  0  0  0  0  0  0  0  0  0
   -3.9520   -1.2210   -4.4710 H   0  0  0  0  0  0  0  0  0  0  0  0
   -3.9960    0.5030   -4.0620 H   0  0  0  0  0  0  0  0  0  0  0  0
   -2.9310   -0.6000   -3.1760 H   0  0  0  0  0  0  0  0  0  0  0  0
   -7.0180    0.7600   -4.4690 H   0  0  0  0  0  0  0  0  0  0  0  0
   -9.3930   -1.3820   -2.4940 H   0  0  0  0  0  0  0  0  0  0  0  0
   -7.3340   -4.1960   -2.5350 H   0  0  0  0  0  0  0  0  0  0  0  0
    1.0980    0.8610   -1.6070 H   0  0  0  0  0  0  0  0  0  0  0  0
   -0.4270    0.0350   -1.3600 H   0  0  0  0  0  0  0  0  0  0  0  0
  2  1  1  1
  2 87  1  0
  2  3  1  0
  2 33  1  0
  3  4  1  0
  3 89  1  0
  3 88  1  0
  4 91  1  0
  4 90  1  0
  4  5  1  0
  5 13  1  0
  5  7  1  0
  5  6  1  1
  7  8  1  6
  7 33  1  0
  7  9  1  0
  9 10  1  0
  9 92  1  0
  9 93  1  0
 10 94  1  0
 10 11  1  0
 10 95  1  0
 11 31  1  0
 11 13  1  0
 11 12  1  1
 12 97  1  0
 12 96  1  0
 12 98  1  0
 13 14  1  6
 13 15  1  0
 15100  1  0
 15 16  1  0
 15 99  1  0
 16 17  1  6
 16 18  1  0
 16 31  1  0
 18 19  1  0
 19 21  1  0
 19 25  1  0
 19 20  1  1
 21101  1  0
 21 22  2  0
 22 24  1  0
 22 23  1  0
 23102  1  0
 23104  1  0
 23103  1  0
 24105  1  0
 24107  1  0
 24106  1  0
 25 26  1  6
 25 28  1  0
 25 27  1  0
 27108  1  0
 28 31  1  0
 28 30  1  0
 28 29  1  1
 30109  1  0
 30110  1  0
 30111  1  0
 31 32  1  6
 33 35  1  0
 33 34  1  1
 34114  1  0
 34113  1  0
 34112  1  0
 35 36  1  0
 35116  1  0
 35115  1  0
 36 37  1  0
 36118  1  0
 36117  1  0
 37 38  1  6
 37 87  1  0
 37 39  1  0
 39 40  1  0
 40 41  1  6
 40 42  1  0
 40 53  1  0
 42 43  1  0
 43 44  1  6
 43 45  1  0
 43 47  1  0
 45 46  1  0
 45119  1  0
 45120  1  0
 46121  1  0
 47 49  1  0
 47 50  1  0
 47 48  1  1
 49122  1  0
 50 51  1  6
 50 53  1  0
 50 52  1  0
 52123  1  0
 53 55  1  0
 53 54  1  1
 55 56  1  0
 56 69  1  0
 56 57  1  1
 56 58  1  0
 58 59  1  0
 59 63  1  0
 59 60  1  1
 59 61  1  0
 61125  1  0
 61 62  1  0
 61124  1  0
 62126  1  0
 63 66  1  0
 63 64  1  6
 63 65  1  0
 65127  1  0
 66 69  1  0
 66 68  1  0
 66 67  1  1
 68128  1  0
 69 71  1  0
 69 70  1  6
 71 72  1  0
 72 74  1  0
 72 84  1  0
 72 73  1  1
 74 75  1  0
 75 77  1  0
 75 78  1  0
 75 76  1  1
 77129  1  0
 77130  1  0
 77131  1  0
 78 79  1  6
 78 80  1  0
 78 81  1  0
 80132  1  0
 81 83  1  0
 81 84  1  0
 81 82  1  1
 83133  1  0
 84 86  1  0
 84 85  1  1
 86134  1  0
 87135  1  0
 87136  1  0
M  END
>  <id>  (392) 
494

>  <scaffolds>  (392) 
['C1CCOCC1', 'C1CCC(C2CCCC2)CC1', 'C1CCCCC1', 'C1CCC(OC2CCCOC2OC2CCCOC2OC2CCC3C(CCC4C3CCC3C5CCCOC5CC34)C2)OC1', 'C1CCC2C(C1)CCC1C3CCCC3CCC21', 'C1CCC(OC2CCCOC2)OC1', 'C1CCC2CCCCC2C1']

>  <name>  (392) 
[beta]-D-Glucopyranoside, (3[beta],5[beta],16[beta],22R,23S)-16,23-epoxy-22-hydroxycholest-24-en-3-yl O-6-deoxy-[alpha]-L-mannopyranosyl-(1[to]2)-O-[beta]-D-glucopyranosyl-(1[to]2)- (9CI)

>  <formula>  (392) 
C45H74O17

>  <SMILES>  (392) 
[H][C@]48CC[C@]1([H])[C@]([H])(CC[C@@]3(C)[C@@]1([H])C[C@]2([H])O[C@@H](C=C(C)C)[C@H](O)[C@@H](C)[C@@]23[H])[C@@]4(C)CC[C@H](O[C@]5([H])O[C@H](CO)[C@@H](O)[C@H](O)[C@H]5O[C@]6([H])O[C@H](CO)[C@@H](O)[C@H](O)[C@H]6O[C@]7([H])O[C@@H](C)[C@H](O)[C@@H](O)[C@H]7O)C8

>  <ChEMBL_id>  (392) 


>  <ZINC_id>  (392) 


>  <PubChem_id>  (392) 


>  <DrugBank_id>  (392) 


>  <CAS_no>  (392) 
168843-94-5

>  <references>  (392) 
[{'journal': {'name': 'Tetrahedron', 'id': 4}, 'title': 'Novel cholestane glycosides from the bulbs of Ornithogalum saundersiae and their cytostatic activity on leukemia HL60 and MOLT4 cells', 'year': 1997, 'start_page': 11549, 'volume': 53, 'issue': 34, 'doi': '10.1016/S0040-4020(97)00750-3', 'isbn': '', 'despositor': {'code': 'NFA', 'first_name': 'Ngonidzashe', 'last_name': 'Faya', 'id': 21}, 'refauthors_set': [{'author': {'first_name': 'Minpei', 'initials': 'M', 'last_name': 'Kuroda', 'id': 644}, 'first_author': True, 'id': 1180}, {'author': {'first_name': 'Yoshihiro ', 'initials': 'Y', 'last_name': 'Mimaki', 'id': 643}, 'first_author': None, 'id': 1181}, {'author': {'first_name': 'Yutaka', 'initials': 'Y', 'last_name': 'Sashida', 'id': 645}, 'first_author': None, 'id': 1182}, {'author': {'first_name': 'Toshihiko', 'initials': 'T', 'last_name': 'Hirano', 'id': 641}, 'first_author': None, 'id': 1183}, {'author': {'first_name': 'Kitaro ', 'initials': 'K', 'last_name': 'Oka', 'id': 642}, 'first_author': None, 'id': 1184}, {'author': {'first_name': 'Akira', 'initials': 'A', 'last_name': 'Dobashi', 'id': 651}, 'first_author': None, 'id': 1185}], 'id': 337}]

>  <classifications>  (392) 
[{'classification': 'Cholestane', 'id': 761}, {'classification': 'Glycoside', 'id': 781}, {'classification': 'Steroids and steroid derivatives (Classyfire)', 'id': 942}]

>  <molecular_mass>  (392) 
887.06

$$$$
SANC00495_minRM1.pdb
     RDKit          3D

116121  0  0  1  0  0  0  0  0999 V2000
   -7.1560    0.1270   -0.1680 H   0  0  0  0  0  0  0  0  0  0  0  0
   -6.1790    0.6870   -0.1910 C   0  0  2  0  0  0  0  0  0  0  0  0
   -5.1260    0.0160    0.4420 O   0  0  0  0  0  0  0  0  0  0  0  0
   -4.9450   -1.3340    0.0910 C   0  0  2  0  0  0  0  0  0  0  0  0
   -4.8260   -1.4430   -1.0230 H   0  0  0  0  0  0  0  0  0  0  0  0
   -6.1620   -2.1480    0.5510 C   0  0  0  0  0  0  0  0  0  0  0  0
   -5.9430   -3.6130    0.1790 C   0  0  2  0  0  0  0  0  0  0  0  0
   -5.8790   -3.7220   -0.9390 H   0  0  0  0  0  0  0  0  0  0  0  0
   -7.0560   -4.2960    0.6830 O   0  0  0  0  0  0  0  0  0  0  0  0
   -4.6500   -4.1250    0.8300 C   0  0  0  0  0  0  0  0  0  0  0  0
   -3.5050   -3.2530    0.4310 C   0  0  0  0  0  0  0  0  0  0  0  0
   -2.4570   -3.7920   -0.1880 C   0  0  0  0  0  0  0  0  0  0  0  0
   -1.2620   -3.0110   -0.5800 C   0  0  0  0  0  0  0  0  0  0  0  0
   -1.1220   -1.7620    0.2820 C   0  0  2  0  0  0  0  0  0  0  0  0
   -0.8720   -2.0610    1.3340 H   0  0  0  0  0  0  0  0  0  0  0  0
   -2.4310   -0.9510    0.2780 C   0  0  2  0  0  0  0  0  0  0  0  0
   -2.6510   -0.6680   -0.7840 H   0  0  0  0  0  0  0  0  0  0  0  0
   -2.2120    0.3460    1.0690 C   0  0  0  0  0  0  0  0  0  0  0  0
   -1.0240    1.1710    0.5640 C   0  0  0  0  0  0  0  0  0  0  0  0
    0.2530    0.3400    0.5980 C   0  0  1  0  0  0  0  0  0  0  0  0
    0.5910   -0.0530    2.0320 C   0  0  0  0  0  0  0  0  0  0  0  0
   -0.0130   -0.8870   -0.2930 C   0  0  1  0  0  0  0  0  0  0  0  0
   -0.3380   -0.5430   -1.3130 H   0  0  0  0  0  0  0  0  0  0  0  0
    1.3650   -1.5200   -0.4410 C   0  0  0  0  0  0  0  0  0  0  0  0
    2.3300   -0.3090   -0.4820 C   0  0  2  0  0  0  0  0  0  0  0  0
    2.7590   -0.1770   -1.5100 H   0  0  0  0  0  0  0  0  0  0  0  0
    3.3460   -0.4930    0.4780 O   0  0  0  0  0  0  0  0  0  0  0  0
    4.4910   -1.1490    0.0200 C   0  0  2  0  0  0  0  0  0  0  0  0
    4.9670   -0.6450   -0.8690 H   0  0  0  0  0  0  0  0  0  0  0  0
    4.0640   -2.4570   -0.2740 O   0  0  0  0  0  0  0  0  0  0  0  0
    5.1080   -3.2850   -0.7200 C   0  0  2  0  0  0  0  0  0  0  0  0
    5.6330   -2.8580   -1.6190 H   0  0  0  0  0  0  0  0  0  0  0  0
    4.4300   -4.6210   -1.0890 C   0  0  0  0  0  0  0  0  0  0  0  0
    3.7120   -4.3550   -2.2570 O   0  0  0  0  0  0  0  0  0  0  0  0
    6.1090   -3.4870    0.4460 C   0  0  1  0  0  0  0  0  0  0  0  0
    5.6070   -3.9910    1.3150 H   0  0  0  0  0  0  0  0  0  0  0  0
    7.1420   -4.2620   -0.0780 O   0  0  0  0  0  0  0  0  0  0  0  0
    6.6530   -2.0980    0.8760 C   0  0  2  0  0  0  0  0  0  0  0  0
    7.2580   -1.6400    0.0460 H   0  0  0  0  0  0  0  0  0  0  0  0
    7.4360   -2.3470    2.0030 O   0  0  0  0  0  0  0  0  0  0  0  0
    5.4550   -1.1900    1.2430 C   0  0  1  0  0  0  0  0  0  0  0  0
    4.9280   -1.5820    2.1550 H   0  0  0  0  0  0  0  0  0  0  0  0
    6.0050    0.0730    1.4570 O   0  0  0  0  0  0  0  0  0  0  0  0
    1.4840    0.9480   -0.1120 C   0  0  2  0  0  0  0  0  0  0  0  0
    1.1410    1.3940   -1.0840 H   0  0  0  0  0  0  0  0  0  0  0  0
    2.2240    2.0510    0.6410 C   0  0  2  0  0  0  0  0  0  0  0  0
    2.5700    1.6800    1.6370 H   0  0  0  0  0  0  0  0  0  0  0  0
    1.2990    3.2440    0.8500 C   0  0  0  0  0  0  0  0  0  0  0  0
    3.4830    2.5010   -0.1470 C   0  0  1  0  0  0  0  0  0  0  0  0
    4.1510    1.6330   -0.3780 H   0  0  0  0  0  0  0  0  0  0  0  0
    3.1530    2.9600   -1.4170 O   0  0  0  0  0  0  0  0  0  0  0  0
    4.2780    3.5480    0.6620 C   0  0  0  0  0  0  0  0  0  0  0  0
    5.4420    4.0510   -0.1150 C   0  0  0  0  0  0  0  0  0  0  0  0
    5.8870    5.3080   -0.0600 C   0  0  0  0  0  0  0  0  0  0  0  0
    5.2410    6.3600    0.7720 C   0  0  0  0  0  0  0  0  0  0  0  0
    7.0710    5.7450   -0.8420 C   0  0  0  0  0  0  0  0  0  0  0  0
   -3.6300   -1.7970    0.7930 C   0  0  1  0  0  0  0  0  0  0  0  0
   -3.7570   -1.7140    2.3130 C   0  0  0  0  0  0  0  0  0  0  0  0
   -5.9230    0.7930   -1.5530 O   0  0  0  0  0  0  0  0  0  0  0  0
   -4.7830    1.5340   -1.9240 C   0  0  1  0  0  0  0  0  0  0  0  0
   -3.8430    1.0340   -1.5660 H   0  0  0  0  0  0  0  0  0  0  0  0
   -4.8190    1.5570   -3.4510 C   0  0  0  0  0  0  0  0  0  0  0  0
   -4.8660    2.9710   -1.3580 C   0  0  2  0  0  0  0  0  0  0  0  0
   -5.7370    3.5250   -1.8010 H   0  0  0  0  0  0  0  0  0  0  0  0
   -3.6290    3.5640   -1.6220 O   0  0  0  0  0  0  0  0  0  0  0  0
   -5.0110    2.9000    0.1790 C   0  0  1  0  0  0  0  0  0  0  0  0
   -4.1020    2.4140    0.6430 H   0  0  0  0  0  0  0  0  0  0  0  0
   -5.1400    4.2270    0.5880 O   0  0  0  0  0  0  0  0  0  0  0  0
   -6.2610    2.0590    0.5320 C   0  0  1  0  0  0  0  0  0  0  0  0
   -6.3230    1.8950    1.6450 H   0  0  0  0  0  0  0  0  0  0  0  0
   -7.3530    2.7900    0.0660 O   0  0  0  0  0  0  0  0  0  0  0  0
   -6.3460   -2.0300    1.6390 H   0  0  0  0  0  0  0  0  0  0  0  0
   -7.0960   -1.7680    0.0810 H   0  0  0  0  0  0  0  0  0  0  0  0
   -6.9730   -5.2160    0.4130 H   0  0  0  0  0  0  0  0  0  0  0  0
   -4.7520   -4.1470    1.9360 H   0  0  0  0  0  0  0  0  0  0  0  0
   -4.4790   -5.1880    0.5570 H   0  0  0  0  0  0  0  0  0  0  0  0
   -2.4290   -4.8560   -0.4480 H   0  0  0  0  0  0  0  0  0  0  0  0
   -0.3500   -3.6430   -0.4980 H   0  0  0  0  0  0  0  0  0  0  0  0
   -1.3320   -2.7620   -1.6620 H   0  0  0  0  0  0  0  0  0  0  0  0
   -3.1110    1.0010    1.0270 H   0  0  0  0  0  0  0  0  0  0  0  0
   -2.0730    0.1470    2.1500 H   0  0  0  0  0  0  0  0  0  0  0  0
   -1.2250    1.5590   -0.4570 H   0  0  0  0  0  0  0  0  0  0  0  0
   -0.9210    2.0880    1.1900 H   0  0  0  0  0  0  0  0  0  0  0  0
   -0.0720   -0.8450    2.4210 H   0  0  0  0  0  0  0  0  0  0  0  0
    1.6060   -0.4540    2.1590 H   0  0  0  0  0  0  0  0  0  0  0  0
    0.5060    0.7930    2.7300 H   0  0  0  0  0  0  0  0  0  0  0  0
    1.5890   -2.2160    0.3910 H   0  0  0  0  0  0  0  0  0  0  0  0
    1.4580   -2.1410   -1.3500 H   0  0  0  0  0  0  0  0  0  0  0  0
    5.1980   -5.4050   -1.2760 H   0  0  0  0  0  0  0  0  0  0  0  0
    3.7930   -4.9890   -0.2530 H   0  0  0  0  0  0  0  0  0  0  0  0
    2.9910   -5.0010   -2.2970 H   0  0  0  0  0  0  0  0  0  0  0  0
    7.7810   -4.4170    0.6260 H   0  0  0  0  0  0  0  0  0  0  0  0
    7.8260   -1.5110    2.2760 H   0  0  0  0  0  0  0  0  0  0  0  0
    5.2950    0.6550    1.7410 H   0  0  0  0  0  0  0  0  0  0  0  0
    1.8300    4.1050    1.2830 H   0  0  0  0  0  0  0  0  0  0  0  0
    0.8240    3.5950   -0.0770 H   0  0  0  0  0  0  0  0  0  0  0  0
    0.4710    3.0170    1.5420 H   0  0  0  0  0  0  0  0  0  0  0  0
    2.7680    3.8380   -1.3400 H   0  0  0  0  0  0  0  0  0  0  0  0
    3.6020    4.3680    0.9980 H   0  0  0  0  0  0  0  0  0  0  0  0
    4.6450    3.0930    1.6080 H   0  0  0  0  0  0  0  0  0  0  0  0
    5.9390    3.3070   -0.7600 H   0  0  0  0  0  0  0  0  0  0  0  0
    5.3660    6.1610    1.8490 H   0  0  0  0  0  0  0  0  0  0  0  0
    5.6550    7.3650    0.5920 H   0  0  0  0  0  0  0  0  0  0  0  0
    4.1560    6.4370    0.5750 H   0  0  0  0  0  0  0  0  0  0  0  0
    6.7680    6.3910   -1.6820 H   0  0  0  0  0  0  0  0  0  0  0  0
    7.7720    6.3340   -0.2360 H   0  0  0  0  0  0  0  0  0  0  0  0
    7.6460    4.9110   -1.2750 H   0  0  0  0  0  0  0  0  0  0  0  0
   -4.0180   -0.7050    2.6660 H   0  0  0  0  0  0  0  0  0  0  0  0
   -4.5380   -2.3770    2.7260 H   0  0  0  0  0  0  0  0  0  0  0  0
   -2.8210   -2.0140    2.8100 H   0  0  0  0  0  0  0  0  0  0  0  0
   -5.7470    1.9880   -3.8500 H   0  0  0  0  0  0  0  0  0  0  0  0
   -3.9830    2.1460   -3.8490 H   0  0  0  0  0  0  0  0  0  0  0  0
   -4.7310    0.5460   -3.8720 H   0  0  0  0  0  0  0  0  0  0  0  0
   -3.8000    4.4050   -2.0670 H   0  0  0  0  0  0  0  0  0  0  0  0
   -5.4440    4.2330    1.5000 H   0  0  0  0  0  0  0  0  0  0  0  0
   -8.1500    2.3020    0.2920 H   0  0  0  0  0  0  0  0  0  0  0  0
  2  1  1  6
  2 59  1  0
  2  3  1  0
  2 69  1  0
  3  4  1  0
  4  5  1  6
  4  6  1  0
  4 57  1  0
  6 73  1  0
  6  7  1  0
  6 72  1  0
  7  8  1  6
  7  9  1  0
  7 10  1  0
  9 74  1  0
 10 11  1  0
 10 76  1  0
 10 75  1  0
 11 12  2  0
 11 57  1  0
 12 13  1  0
 12 77  1  0
 13 79  1  0
 13 78  1  0
 13 14  1  0
 14 22  1  0
 14 16  1  0
 14 15  1  1
 16 17  1  6
 16 57  1  0
 16 18  1  0
 18 19  1  0
 18 80  1  0
 18 81  1  0
 19 82  1  0
 19 20  1  0
 19 83  1  0
 20 22  1  0
 20 44  1  0
 20 21  1  1
 21 85  1  0
 21 84  1  0
 21 86  1  0
 22 23  1  6
 22 24  1  0
 24 88  1  0
 24 25  1  0
 24 87  1  0
 25 26  1  6
 25 44  1  0
 25 27  1  0
 27 28  1  0
 28 29  1  6
 28 30  1  0
 28 41  1  0
 30 31  1  0
 31 32  1  6
 31 33  1  0
 31 35  1  0
 33 34  1  0
 33 89  1  0
 33 90  1  0
 34 91  1  0
 35 37  1  0
 35 38  1  0
 35 36  1  1
 37 92  1  0
 38 39  1  6
 38 41  1  0
 38 40  1  0
 40 93  1  0
 41 43  1  0
 41 42  1  1
 43 94  1  0
 44 45  1  6
 44 46  1  0
 46 49  1  0
 46 48  1  0
 46 47  1  1
 48 96  1  0
 48 95  1  0
 48 97  1  0
 49 51  1  0
 49 50  1  6
 49 52  1  0
 51 98  1  0
 52 53  1  0
 52 99  1  0
 52100  1  0
 53101  1  0
 53 54  2  0
 54 56  1  0
 54 55  1  0
 55104  1  0
 55103  1  0
 55102  1  0
 56105  1  0
 56107  1  0
 56106  1  0
 57 58  1  1
 58108  1  0
 58109  1  0
 58110  1  0
 59 60  1  0
 60 62  1  0
 60 61  1  6
 60 63  1  0
 62113  1  0
 62111  1  0
 62112  1  0
 63 64  1  6
 63 65  1  0
 63 66  1  0
 65114  1  0
 66 69  1  0
 66 68  1  0
 66 67  1  1
 68115  1  0
 69 71  1  0
 69 70  1  1
 71116  1  0
M  END
>  <id>  (393) 
495

>  <scaffolds>  (393) 
['C1=C2CCCCC2C2CCC3CCCC3C2C1', 'C1=CCCCC1', 'C1=CCC2CCCCC2C1', 'C1=C2CCCC(OC3CCCCO3)C2C2CCC3CC(OC4CCCCO4)CC3C2C1', 'C1=C2CCCCC2C2CCC3CC(OC4CCCCO4)CC3C2C1', 'C1CCOCC1', 'C1CCCCC1', 'C1=C2CCCCC2CCC1']

>  <name>  (393) 
(22S)-3[beta],22-Dihydroxy-1[beta]-[([alpha]-L-rhamnopyranosyl)oxy]cholest-5,24-dien-16[beta]-yl [beta]-D-glucopyranoside

>  <formula>  (393) 
C39H64O13

>  <SMILES>  (393) 
[H][C@@]6(O[C@@H]5C[C@H](O)CC4=CC[C@]1([H])[C@]([H])(CC[C@@]3(C)[C@@]1([H])C[C@H](O[C@]2([H])O[C@H](CO)[C@@H](O)[C@H](O)[C@H]2O)[C@]3([H])[C@H](C)[C@@H](O)C/C=C(C)/C)[C@]45C)O[C@@H](C)[C@H](O)[C@@H](O)[C@H]6O

>  <ChEMBL_id>  (393) 


>  <ZINC_id>  (393) 


>  <PubChem_id>  (393) 


>  <DrugBank_id>  (393) 


>  <CAS_no>  (393) 
263570-71-4

>  <references>  (393) 
[{'journal': {'name': 'Chemical and Pharmaceutical Bulletin', 'id': 33}, 'title': 'Cholestane Glycosides from the Bulbs of Galtonia candicans and Their Cytotoxicity', 'year': 2001, 'start_page': 1042, 'volume': 49, 'issue': 8, 'doi': '10.1248/cpb.49.1042', 'isbn': '', 'despositor': {'code': 'NFA', 'first_name': 'Ngonidzashe', 'last_name': 'Faya', 'id': 21}, 'refauthors_set': [{'author': {'first_name': 'Minpei', 'initials': 'M', 'last_name': 'Kuroda', 'id': 644}, 'first_author': True, 'id': 1191}, {'author': {'first_name': 'Yoshihiro ', 'initials': 'Y', 'last_name': 'Mimaki', 'id': 643}, 'first_author': None, 'id': 1192}, {'author': {'first_name': 'Akihito ', 'initials': 'A', 'last_name': 'Yokosuka', 'id': 650}, 'first_author': None, 'id': 1193}, {'author': {'first_name': 'Yutaka', 'initials': 'Y', 'last_name': 'Sashida', 'id': 645}, 'first_author': None, 'id': 1194}], 'id': 339}]

>  <classifications>  (393) 
[{'classification': 'Cholestane', 'id': 761}, {'classification': 'Glycoside', 'id': 781}, {'classification': 'Steroids and steroid derivatives (Classyfire)', 'id': 942}]

>  <molecular_mass>  (393) 
740.92

$$$$
SANC00496_minRM1.pdb
     RDKit          3D

155162  0  0  1  0  0  0  0  0999 V2000
   -9.8470    1.4530    0.3070 H   0  0  0  0  0  0  0  0  0  0  0  0
  -10.5880    0.6440    0.0360 C   0  0  2  0  0  0  0  0  0  0  0  0
  -10.0240   -0.3950   -0.7030 O   0  0  0  0  0  0  0  0  0  0  0  0
   -8.7780   -0.8640   -0.2210 C   0  0  1  0  0  0  0  0  0  0  0  0
   -8.8500   -1.1680    0.8560 H   0  0  0  0  0  0  0  0  0  0  0  0
   -8.4400   -2.0670   -1.1030 C   0  0  0  0  0  0  0  0  0  0  0  0
   -7.0750   -2.6130   -0.7010 C   0  0  0  0  0  0  0  0  0  0  0  0
   -5.9530   -1.5680   -0.8100 C   0  0  1  0  0  0  0  0  0  0  0  0
   -5.7260   -1.1970   -2.2760 C   0  0  0  0  0  0  0  0  0  0  0  0
   -6.3600   -0.3160   -0.0870 C   0  0  0  0  0  0  0  0  0  0  0  0
   -5.5600    0.3540    0.7430 C   0  0  0  0  0  0  0  0  0  0  0  0
   -4.1670   -0.0550    1.0480 C   0  0  0  0  0  0  0  0  0  0  0  0
   -3.6360   -1.0390    0.0070 C   0  0  2  0  0  0  0  0  0  0  0  0
   -3.4810   -0.4980   -0.9630 H   0  0  0  0  0  0  0  0  0  0  0  0
   -4.6620   -2.1630   -0.1830 C   0  0  2  0  0  0  0  0  0  0  0  0
   -4.9130   -2.5690    0.8320 H   0  0  0  0  0  0  0  0  0  0  0  0
   -4.1110   -3.3250   -1.0190 C   0  0  0  0  0  0  0  0  0  0  0  0
   -2.7240   -3.7980   -0.5780 C   0  0  0  0  0  0  0  0  0  0  0  0
   -1.7530   -2.6230   -0.5440 C   0  0  1  0  0  0  0  0  0  0  0  0
   -1.6270   -2.0050   -1.9330 C   0  0  0  0  0  0  0  0  0  0  0  0
   -2.3160   -1.6270    0.4840 C   0  0  1  0  0  0  0  0  0  0  0  0
   -2.4910   -2.1530    1.4610 H   0  0  0  0  0  0  0  0  0  0  0  0
   -1.1860   -0.6210    0.6660 C   0  0  0  0  0  0  0  0  0  0  0  0
    0.1110   -1.4550    0.5580 C   0  0  2  0  0  0  0  0  0  0  0  0
    0.5980   -1.5350    1.5670 H   0  0  0  0  0  0  0  0  0  0  0  0
    1.0900   -0.9440   -0.3190 O   0  0  0  0  0  0  0  0  0  0  0  0
    1.2590    0.4430   -0.2980 C   0  0  2  0  0  0  0  0  0  0  0  0
    0.8510    0.9530    0.6230 H   0  0  0  0  0  0  0  0  0  0  0  0
    0.5810    0.8300   -1.4760 O   0  0  0  0  0  0  0  0  0  0  0  0
    0.6170    2.2070   -1.7170 C   0  0  0  0  0  0  0  0  0  0  0  0
    2.0690    2.6980   -1.9060 C   0  0  2  0  0  0  0  0  0  0  0  0
    2.0720    3.8120   -2.0500 H   0  0  0  0  0  0  0  0  0  0  0  0
    2.6850    2.0430   -2.9690 O   0  0  0  0  0  0  0  0  0  0  0  0
    2.8710    2.3060   -0.6410 C   0  0  2  0  0  0  0  0  0  0  0  0
    2.4280    2.8320    0.2500 H   0  0  0  0  0  0  0  0  0  0  0  0
    4.2250    2.6150   -0.8530 O   0  0  0  0  0  0  0  0  0  0  0  0
    4.6880    3.7480   -0.1710 C   0  0  2  0  0  0  0  0  0  0  0  0
    4.6040    3.6520    0.9500 H   0  0  0  0  0  0  0  0  0  0  0  0
    3.8860    4.8000   -0.6630 O   0  0  0  0  0  0  0  0  0  0  0  0
    4.2640    6.0610   -0.1870 C   0  0  0  0  0  0  0  0  0  0  0  0
    5.6850    6.3940   -0.6910 C   0  0  1  0  0  0  0  0  0  0  0  0
    5.7120    6.4180   -1.8140 H   0  0  0  0  0  0  0  0  0  0  0  0
    6.1190    7.5940   -0.1250 O   0  0  0  0  0  0  0  0  0  0  0  0
    6.6630    5.3190   -0.1560 C   0  0  2  0  0  0  0  0  0  0  0  0
    6.7110    5.3590    0.9680 H   0  0  0  0  0  0  0  0  0  0  0  0
    7.9210    5.4720   -0.7370 O   0  0  0  0  0  0  0  0  0  0  0  0
    6.1630    3.9320   -0.6360 C   0  0  1  0  0  0  0  0  0  0  0  0
    6.2390    3.8410   -1.7540 H   0  0  0  0  0  0  0  0  0  0  0  0
    6.8950    2.9800    0.0940 O   0  0  0  0  0  0  0  0  0  0  0  0
    7.7650    2.1480   -0.5490 C   0  0  0  0  0  0  0  0  0  0  0  0
    7.8810    2.1640   -1.7560 O   0  0  0  0  0  0  0  0  0  0  0  0
    8.4660    1.2700    0.4000 C   0  0  0  0  0  0  0  0  0  0  0  0
    8.8480    1.7150    1.6530 C   0  0  0  0  0  0  0  0  0  0  0  0
    9.5250    0.8590    2.5220 C   0  0  0  0  0  0  0  0  0  0  0  0
    9.8080   -0.4360    2.1150 C   0  0  0  0  0  0  0  0  0  0  0  0
   10.4570   -1.3790    2.8460 O   0  0  0  0  0  0  0  0  0  0  0  0
   10.8400   -1.0250    4.1530 C   0  0  0  0  0  0  0  0  0  0  0  0
    9.4190   -0.8820    0.8280 C   0  0  0  0  0  0  0  0  0  0  0  0
    9.7550   -2.1760    0.5740 O   0  0  0  0  0  0  0  0  0  0  0  0
    9.5750   -2.6300   -0.7450 C   0  0  0  0  0  0  0  0  0  0  0  0
    8.7450   -0.0320   -0.0300 C   0  0  0  0  0  0  0  0  0  0  0  0
    2.7770    0.7680   -0.4520 C   0  0  1  0  0  0  0  0  0  0  0  0
    3.2310    0.2160   -1.3170 H   0  0  0  0  0  0  0  0  0  0  0  0
    3.3500    0.4960    0.8050 O   0  0  0  0  0  0  0  0  0  0  0  0
    4.4160   -0.3450    0.9070 C   0  0  0  0  0  0  0  0  0  0  0  0
    4.8370   -0.4960    2.3320 C   0  0  0  0  0  0  0  0  0  0  0  0
    4.9040   -0.8770   -0.0690 O   0  0  0  0  0  0  0  0  0  0  0  0
   -0.3310   -2.8840    0.0370 C   0  0  1  0  0  0  0  0  0  0  0  0
   -0.5130   -3.7080    1.1440 O   0  0  0  0  0  0  0  0  0  0  0  0
    0.6860   -3.5270   -0.9290 C   0  0  2  0  0  0  0  0  0  0  0  0
    0.7890   -2.9020   -1.8510 H   0  0  0  0  0  0  0  0  0  0  0  0
    0.2750   -4.9450   -1.3100 C   0  0  0  0  0  0  0  0  0  0  0  0
    2.0420   -3.6350   -0.2590 C   0  0  0  0  0  0  0  0  0  0  0  0
    2.1230   -3.6820    0.9620 O   0  0  0  0  0  0  0  0  0  0  0  0
    3.2480   -3.6920   -1.1540 C   0  0  0  0  0  0  0  0  0  0  0  0
    4.3880   -4.4710   -0.5060 C   0  0  0  0  0  0  0  0  0  0  0  0
    5.6300   -4.5180   -1.4020 C   0  0  1  0  0  0  0  0  0  0  0  0
    6.7970   -5.1050   -0.6120 C   0  0  0  0  0  0  0  0  0  0  0  0
    5.3880   -5.3680   -2.6440 C   0  0  0  0  0  0  0  0  0  0  0  0
   -7.7140    0.2230   -0.4040 C   0  0  0  0  0  0  0  0  0  0  0  0
  -11.1220    0.0100    1.1740 O   0  0  0  0  0  0  0  0  0  0  0  0
  -11.7810    0.9070    2.0320 C   0  0  2  0  0  0  0  0  0  0  0  0
  -11.1050    1.7410    2.3670 H   0  0  0  0  0  0  0  0  0  0  0  0
  -12.2090    0.0580    3.2500 C   0  0  0  0  0  0  0  0  0  0  0  0
  -11.0410   -0.2360    3.9510 O   0  0  0  0  0  0  0  0  0  0  0  0
  -13.0250    1.4750    1.3030 C   0  0  1  0  0  0  0  0  0  0  0  0
  -13.7410    0.6480    1.0430 H   0  0  0  0  0  0  0  0  0  0  0  0
  -13.5870    2.3960    2.1870 O   0  0  0  0  0  0  0  0  0  0  0  0
  -12.5560    2.2000    0.0130 C   0  0  2  0  0  0  0  0  0  0  0  0
  -11.9320    3.1000    0.2730 H   0  0  0  0  0  0  0  0  0  0  0  0
  -13.7270    2.5670   -0.6470 O   0  0  0  0  0  0  0  0  0  0  0  0
  -11.7450    1.1990   -0.8430 C   0  0  1  0  0  0  0  0  0  0  0  0
  -12.4050    0.3640   -1.2040 H   0  0  0  0  0  0  0  0  0  0  0  0
  -11.2210    1.9490   -1.8950 O   0  0  0  0  0  0  0  0  0  0  0  0
   -9.2180   -2.8530   -0.9980 H   0  0  0  0  0  0  0  0  0  0  0  0
   -8.4720   -1.7960   -2.1790 H   0  0  0  0  0  0  0  0  0  0  0  0
   -7.1310   -3.0120    0.3340 H   0  0  0  0  0  0  0  0  0  0  0  0
   -6.8410   -3.4960   -1.3310 H   0  0  0  0  0  0  0  0  0  0  0  0
   -6.6460   -0.8850   -2.7900 H   0  0  0  0  0  0  0  0  0  0  0  0
   -5.0150   -0.3650   -2.3900 H   0  0  0  0  0  0  0  0  0  0  0  0
   -5.3220   -2.0380   -2.8620 H   0  0  0  0  0  0  0  0  0  0  0  0
   -5.9010    1.2590    1.2610 H   0  0  0  0  0  0  0  0  0  0  0  0
   -3.5120    0.8420    1.1040 H   0  0  0  0  0  0  0  0  0  0  0  0
   -4.1340   -0.4850    2.0750 H   0  0  0  0  0  0  0  0  0  0  0  0
   -4.8100   -4.1880   -0.9610 H   0  0  0  0  0  0  0  0  0  0  0  0
   -4.0980   -3.0710   -2.1020 H   0  0  0  0  0  0  0  0  0  0  0  0
   -2.7910   -4.3010    0.4100 H   0  0  0  0  0  0  0  0  0  0  0  0
   -2.3540   -4.5950   -1.2610 H   0  0  0  0  0  0  0  0  0  0  0  0
   -2.5260   -1.4400   -2.2310 H   0  0  0  0  0  0  0  0  0  0  0  0
   -0.8010   -1.2840   -2.0230 H   0  0  0  0  0  0  0  0  0  0  0  0
   -1.4710   -2.7620   -2.7150 H   0  0  0  0  0  0  0  0  0  0  0  0
   -1.2750    0.1840   -0.0880 H   0  0  0  0  0  0  0  0  0  0  0  0
   -1.2470   -0.1000    1.6410 H   0  0  0  0  0  0  0  0  0  0  0  0
    0.0070    2.3260   -2.6370 H   0  0  0  0  0  0  0  0  0  0  0  0
    0.1010    2.7890   -0.9200 H   0  0  0  0  0  0  0  0  0  0  0  0
    2.2210    2.2910   -3.7730 H   0  0  0  0  0  0  0  0  0  0  0  0
    3.5000    6.7450   -0.6100 H   0  0  0  0  0  0  0  0  0  0  0  0
    4.1920    6.1430    0.9220 H   0  0  0  0  0  0  0  0  0  0  0  0
    5.6520    8.3100   -0.5660 H   0  0  0  0  0  0  0  0  0  0  0  0
    8.2970    6.2920   -0.4040 H   0  0  0  0  0  0  0  0  0  0  0  0
    8.6290    2.7370    1.9730 H   0  0  0  0  0  0  0  0  0  0  0  0
    9.8160    1.2360    3.5040 H   0  0  0  0  0  0  0  0  0  0  0  0
   11.5760   -0.2060    4.1860 H   0  0  0  0  0  0  0  0  0  0  0  0
    9.9850   -0.7720    4.8000 H   0  0  0  0  0  0  0  0  0  0  0  0
   11.3030   -1.9560    4.5310 H   0  0  0  0  0  0  0  0  0  0  0  0
   10.1220   -2.0330   -1.4930 H   0  0  0  0  0  0  0  0  0  0  0  0
    9.9980   -3.6470   -0.7200 H   0  0  0  0  0  0  0  0  0  0  0  0
    8.5140   -2.6990   -1.0360 H   0  0  0  0  0  0  0  0  0  0  0  0
    8.4160   -0.3420   -1.0280 H   0  0  0  0  0  0  0  0  0  0  0  0
    4.0510   -0.9930    2.9260 H   0  0  0  0  0  0  0  0  0  0  0  0
    5.7540   -1.1000    2.4170 H   0  0  0  0  0  0  0  0  0  0  0  0
    5.0320    0.4770    2.8070 H   0  0  0  0  0  0  0  0  0  0  0  0
    0.3490   -3.8740    1.5620 H   0  0  0  0  0  0  0  0  0  0  0  0
    0.2590   -5.6270   -0.4470 H   0  0  0  0  0  0  0  0  0  0  0  0
   -0.7360   -4.9800   -1.7480 H   0  0  0  0  0  0  0  0  0  0  0  0
    0.9520   -5.3880   -2.0550 H   0  0  0  0  0  0  0  0  0  0  0  0
    2.9760   -4.1280   -2.1380 H   0  0  0  0  0  0  0  0  0  0  0  0
    3.5540   -2.6470   -1.3870 H   0  0  0  0  0  0  0  0  0  0  0  0
    4.6470   -4.0050    0.4690 H   0  0  0  0  0  0  0  0  0  0  0  0
    4.0530   -5.4970   -0.2470 H   0  0  0  0  0  0  0  0  0  0  0  0
    5.8960   -3.4750   -1.7160 H   0  0  0  0  0  0  0  0  0  0  0  0
    6.5880   -6.1230   -0.2510 H   0  0  0  0  0  0  0  0  0  0  0  0
    7.7150   -5.1680   -1.2160 H   0  0  0  0  0  0  0  0  0  0  0  0
    7.0480   -4.5010    0.2720 H   0  0  0  0  0  0  0  0  0  0  0  0
    5.0630   -6.3870   -2.3970 H   0  0  0  0  0  0  0  0  0  0  0  0
    4.6260   -4.9390   -3.3100 H   0  0  0  0  0  0  0  0  0  0  0  0
    6.2970   -5.4680   -3.2540 H   0  0  0  0  0  0  0  0  0  0  0  0
   -7.7270    0.6260   -1.4400 H   0  0  0  0  0  0  0  0  0  0  0  0
   -7.9690    1.1060    0.2250 H   0  0  0  0  0  0  0  0  0  0  0  0
  -12.8880    0.6470    3.9080 H   0  0  0  0  0  0  0  0  0  0  0  0
  -12.7790   -0.8430    2.9280 H   0  0  0  0  0  0  0  0  0  0  0  0
  -11.0570   -1.1670    4.1860 H   0  0  0  0  0  0  0  0  0  0  0  0
  -14.3870    2.7400    1.7730 H   0  0  0  0  0  0  0  0  0  0  0  0
  -13.4790    3.0450   -1.4460 H   0  0  0  0  0  0  0  0  0  0  0  0
  -10.7700    1.3400   -2.4890 H   0  0  0  0  0  0  0  0  0  0  0  0
  2  1  1  1
  2 92  1  0
  2  3  1  0
  2 81  1  0
  3  4  1  0
  4  6  1  0
  4 80  1  0
  4  5  1  1
  6 96  1  0
  6 95  1  0
  6  7  1  0
  7 98  1  0
  7  8  1  0
  7 97  1  0
  8  9  1  6
  8 15  1  0
  8 10  1  0
  9101  1  0
  9 99  1  0
  9100  1  0
 10 80  1  0
 10 11  2  0
 11 12  1  0
 11102  1  0
 12 13  1  0
 12103  1  0
 12104  1  0
 13 14  1  6
 13 15  1  0
 13 21  1  0
 15 17  1  0
 15 16  1  1
 17106  1  0
 17105  1  0
 17 18  1  0
 18108  1  0
 18 19  1  0
 18107  1  0
 19 20  1  6
 19 68  1  0
 19 21  1  0
 20111  1  0
 20109  1  0
 20110  1  0
 21 23  1  0
 21 22  1  1
 23112  1  0
 23 24  1  0
 23113  1  0
 24 26  1  0
 24 68  1  0
 24 25  1  1
 26 27  1  0
 27 29  1  0
 27 62  1  0
 27 28  1  1
 29 30  1  0
 30114  1  0
 30 31  1  0
 30115  1  0
 31 33  1  0
 31 32  1  6
 31 34  1  0
 33116  1  0
 34 36  1  0
 34 62  1  0
 34 35  1  1
 36 37  1  0
 37 39  1  0
 37 47  1  0
 37 38  1  1
 39 40  1  0
 40 41  1  0
 40117  1  0
 40118  1  0
 41 42  1  6
 41 44  1  0
 41 43  1  0
 43119  1  0
 44 46  1  0
 44 47  1  0
 44 45  1  1
 46120  1  0
 47 48  1  6
 47 49  1  0
 49 50  1  0
 50 51  2  0
 50 52  1  0
 52 61  2  0
 52 53  1  0
 53121  1  0
 53 54  2  0
 54 55  1  0
 54122  1  0
 55 58  2  0
 55 56  1  0
 56 57  1  0
 57123  1  0
 57125  1  0
 57124  1  0
 58 61  1  0
 58 59  1  0
 59 60  1  0
 60126  1  0
 60128  1  0
 60127  1  0
 61129  1  0
 62 63  1  6
 62 64  1  0
 64 65  1  0
 65 67  2  0
 65 66  1  0
 66131  1  0
 66132  1  0
 66130  1  0
 68 70  1  0
 68 69  1  1
 69133  1  0
 70 71  1  6
 70 72  1  0
 70 73  1  0
 72136  1  0
 72135  1  0
 72134  1  0
 73 75  1  0
 73 74  2  0
 75137  1  0
 75138  1  0
 75 76  1  0
 76 77  1  0
 76140  1  0
 76139  1  0
 77 79  1  0
 77141  1  6
 77 78  1  0
 78143  1  0
 78142  1  0
 78144  1  0
 79146  1  0
 79147  1  0
 79145  1  0
 80148  1  0
 80149  1  0
 81 82  1  0
 82 86  1  0
 82 83  1  1
 82 84  1  0
 84151  1  0
 84150  1  0
 84 85  1  0
 85152  1  0
 86 89  1  0
 86 87  1  6
 86 88  1  0
 88153  1  0
 89 92  1  0
 89 91  1  0
 89 90  1  1
 91154  1  0
 92 94  1  0
 92 93  1  6
 94155  1  0
M  END
>  <id>  (394) 
496

>  <scaffolds>  (394) 
['c1ccccc1', 'C1=C2CCCCC2C2CCC3CCCC3C2C1', 'C1=CCCCC1', 'C1=CCC2CCCCC2C1', 'C1=C2CCCCC2C2CCC3CC(OC4CCCCO4)CC3C2C1', 'C1CCOCC1', 'C1=C2CC(OC3CCCCO3)CCC2C2CCC3CCCC3C2C1', 'O=C(OC1CCCOC1OC1CCOC(OC2CC3CCC4C5CCC(OC6CCCCO6)CC5=CCC4C3C2)C1)c1ccccc1', 'C1=C2CC(OC3CCCCO3)CCC2C2CCC3CC(OC4CCCCO4)CC3C2C1', 'C1CCCCC1', 'O=C(OC1CCCOC1OC1CCOC(OC2CC3CCC4C5CCCCC5=CCC4C3C2)C1)c1ccccc1', 'C1=C2CCCCC2C2CCC3CC(OC4CC(OC5CCCCO5)CCO4)CC3C2C1', 'C1=C2CCCCC2CCC1', 'C1=C2CC(OC3CCCCO3)CCC2C2CCC3CC(OC4CC(OC5CCCCO5)CCO4)CC3C2C1']

>  <name>  (394) 
3[beta]-[([beta]-D-glucopyranosyl)oxy]-17[alpha]-hydroxy-16[beta]-[(O-(2-O-3,4-dimethoxybenzoyl-[beta]-D-xylopyranosyl)-(1[to]2)-2-O-acetyl-[alpha]-L-arabinopyranosyl)oxy]cholest-5-en-22-one

>  <formula>  (394) 
C54H80O21

>  <SMILES>  (394) 
[H][C@@]8(O[C@H]7CC[C@@]1(C)C(=CC[C@]2([H])[C@]1([H])CC[C@@]6(C)[C@@]2([H])C[C@H](O[C@]5([H])OC[C@H](O)[C@H](O[C@]3([H])OC[C@@H](O)[C@H](O)[C@H]3OC(=O)c4ccc(OC)c(OC)c4)[C@H]5OC(C)=O)[C@]6(O)[C@H](C)C(=O)CCC(C)C)C7)O[C@H](CO)[C@@H](O)[C@H](O)[C@H]8O

>  <ChEMBL_id>  (394) 


>  <ZINC_id>  (394) 


>  <PubChem_id>  (394) 


>  <DrugBank_id>  (394) 


>  <CAS_no>  (394) 
263570-74-7

>  <references>  (394) 
[{'journal': {'name': 'Chemical and Pharmaceutical Bulletin', 'id': 33}, 'title': 'Cholestane Glycosides from the Bulbs of Galtonia candicans and Their Cytotoxicity', 'year': 2001, 'start_page': 1042, 'volume': 49, 'issue': 8, 'doi': '10.1248/cpb.49.1042', 'isbn': '', 'despositor': {'code': 'NFA', 'first_name': 'Ngonidzashe', 'last_name': 'Faya', 'id': 21}, 'refauthors_set': [{'author': {'first_name': 'Minpei', 'initials': 'M', 'last_name': 'Kuroda', 'id': 644}, 'first_author': True, 'id': 1191}, {'author': {'first_name': 'Yoshihiro ', 'initials': 'Y', 'last_name': 'Mimaki', 'id': 643}, 'first_author': None, 'id': 1192}, {'author': {'first_name': 'Akihito ', 'initials': 'A', 'last_name': 'Yokosuka', 'id': 650}, 'first_author': None, 'id': 1193}, {'author': {'first_name': 'Yutaka', 'initials': 'Y', 'last_name': 'Sashida', 'id': 645}, 'first_author': None, 'id': 1194}], 'id': 339}, {'journal': {'name': 'Journal of Natural Products', 'id': 5}, 'title': 'Cholestane Glycosides from the Bulbs of Ornithogalum thyrsoides and Their Cytotoxic Activity against HL-60 Leukemia Cells', 'year': 2002, 'start_page': 1417, 'volume': 65, 'issue': 10, 'doi': '10.1021/np020114j', 'isbn': '', 'despositor': {'code': 'NFA', 'first_name': 'Ngonidzashe', 'last_name': 'Faya', 'id': 21}, 'refauthors_set': [{'author': {'first_name': 'Minpei', 'initials': 'M', 'last_name': 'Kuroda', 'id': 644}, 'first_author': True, 'id': 1199}, {'author': {'first_name': 'Yoshihiro ', 'initials': 'Y', 'last_name': 'Mimaki', 'id': 643}, 'first_author': None, 'id': 1200}, {'author': {'first_name': 'Akihito ', 'initials': 'A', 'last_name': 'Yokosuka', 'id': 650}, 'first_author': None, 'id': 1201}, {'author': {'first_name': 'Fusako', 'initials': 'F', 'last_name': 'Hasegawa', 'id': 711}, 'first_author': None, 'id': 1202}, {'author': {'first_name': 'Yutaka', 'initials': 'Y', 'last_name': 'Sashida', 'id': 645}, 'first_author': None, 'id': 1203}], 'id': 341}]

>  <classifications>  (394) 
[{'classification': 'Cholestane', 'id': 761}, {'classification': 'Glycoside', 'id': 781}, {'classification': 'Steroids and steroid derivatives (Classyfire)', 'id': 942}]

>  <molecular_mass>  (394) 
1065.2

$$$$
SANC00497_minRM1.pdb
     RDKit          3D

135141  0  0  1  0  0  0  0  0999 V2000
    8.3760   -1.4960   -0.8420 H   0  0  0  0  0  0  0  0  0  0  0  0
    8.0600   -2.0650    0.0760 C   0  0  2  0  0  0  0  0  0  0  0  0
    6.7930   -1.6980    0.5410 O   0  0  0  0  0  0  0  0  0  0  0  0
    5.7280   -1.8840   -0.3530 C   0  0  1  0  0  0  0  0  0  0  0  0
    6.0520   -2.0530   -1.4150 H   0  0  0  0  0  0  0  0  0  0  0  0
    4.8940   -3.0970    0.1240 C   0  0  1  0  0  0  0  0  0  0  0  0
    5.4820   -4.0470    0.0030 H   0  0  0  0  0  0  0  0  0  0  0  0
    4.5900   -2.8520    1.4600 O   0  0  0  0  0  0  0  0  0  0  0  0
    3.6140   -3.1650   -0.7380 C   0  0  0  0  0  0  0  0  0  0  0  0
    2.8770   -1.9810   -0.6480 O   0  0  0  0  0  0  0  0  0  0  0  0
    3.5770   -0.8470   -1.1050 C   0  0  1  0  0  0  0  0  0  0  0  0
    3.8290   -0.9420   -2.2040 H   0  0  0  0  0  0  0  0  0  0  0  0
    2.7250    0.2230   -0.8320 O   0  0  0  0  0  0  0  0  0  0  0  0
    1.5180    0.2280   -1.5470 C   0  0  1  0  0  0  0  0  0  0  0  0
    1.5970   -0.3830   -2.4900 H   0  0  0  0  0  0  0  0  0  0  0  0
    0.3730   -0.3530   -0.6920 C   0  0  0  0  0  0  0  0  0  0  0  0
   -0.8290    0.4200   -1.2180 C   0  0  1  0  0  0  0  0  0  0  0  0
   -1.0260    0.0680   -2.2680 H   0  0  0  0  0  0  0  0  0  0  0  0
   -2.1280    0.3000   -0.4340 C   0  0  2  0  0  0  0  0  0  0  0  0
   -1.9800    0.6260    0.6240 H   0  0  0  0  0  0  0  0  0  0  0  0
   -2.5960   -1.1550   -0.4210 C   0  0  0  0  0  0  0  0  0  0  0  0
   -3.9840   -1.2760    0.0930 C   0  0  0  0  0  0  0  0  0  0  0  0
   -4.8420   -0.2570    0.1540 C   0  0  0  0  0  0  0  0  0  0  0  0
   -6.1920   -0.4540    0.7600 C   0  0  0  0  0  0  0  0  0  0  0  0
   -7.2880    0.0960   -0.1610 C   0  0  1  0  0  0  0  0  0  0  0  0
   -7.3530   -0.5200   -1.0960 H   0  0  0  0  0  0  0  0  0  0  0  0
   -8.5230    0.1360    0.5270 O   0  0  0  0  0  0  0  0  0  0  0  0
   -9.1570   -1.0880    0.7310 C   0  0  2  0  0  0  0  0  0  0  0  0
   -8.4860   -1.8800    1.1700 H   0  0  0  0  0  0  0  0  0  0  0  0
   -9.6470   -1.4470   -0.5400 O   0  0  0  0  0  0  0  0  0  0  0  0
  -10.3840   -2.6440   -0.5090 C   0  0  2  0  0  0  0  0  0  0  0  0
   -9.7820   -3.4970   -0.0910 H   0  0  0  0  0  0  0  0  0  0  0  0
  -10.7390   -2.9310   -1.9830 C   0  0  0  0  0  0  0  0  0  0  0  0
   -9.5620   -3.3080   -2.6310 O   0  0  0  0  0  0  0  0  0  0  0  0
  -11.6680   -2.4210    0.3300 C   0  0  1  0  0  0  0  0  0  0  0  0
  -12.3040   -1.6160   -0.1310 H   0  0  0  0  0  0  0  0  0  0  0  0
  -12.3220   -3.6510    0.3490 O   0  0  0  0  0  0  0  0  0  0  0  0
  -11.2540   -2.0120    1.7680 C   0  0  2  0  0  0  0  0  0  0  0  0
  -10.7130   -2.8600    2.2730 H   0  0  0  0  0  0  0  0  0  0  0  0
  -12.4460   -1.7090    2.4220 O   0  0  0  0  0  0  0  0  0  0  0  0
  -10.3500   -0.7590    1.6780 C   0  0  1  0  0  0  0  0  0  0  0  0
  -10.9380    0.1170    1.2890 H   0  0  0  0  0  0  0  0  0  0  0  0
   -9.8800   -0.5480    2.9730 O   0  0  0  0  0  0  0  0  0  0  0  0
   -7.0060    1.5640   -0.4980 C   0  0  0  0  0  0  0  0  0  0  0  0
   -5.6450    1.6750   -1.1670 C   0  0  0  0  0  0  0  0  0  0  0  0
   -4.5050    1.1390   -0.2870 C   0  0  1  0  0  0  0  0  0  0  0  0
   -4.3500    1.9960    0.9710 C   0  0  0  0  0  0  0  0  0  0  0  0
   -3.2010    1.1540   -1.1260 C   0  0  1  0  0  0  0  0  0  0  0  0
   -3.4180    0.6850   -2.1220 H   0  0  0  0  0  0  0  0  0  0  0  0
   -2.7210    2.5880   -1.3850 C   0  0  0  0  0  0  0  0  0  0  0  0
   -1.3620    2.6580   -2.0850 C   0  0  0  0  0  0  0  0  0  0  0  0
   -0.3310    1.8750   -1.2680 C   0  0  1  0  0  0  0  0  0  0  0  0
   -0.2480    2.5100    0.1150 C   0  0  0  0  0  0  0  0  0  0  0  0
    1.0910    1.7050   -1.9130 C   0  0  2  0  0  0  0  0  0  0  0  0
    0.8370    1.7470   -3.2920 O   0  0  0  0  0  0  0  0  0  0  0  0
    2.0940    2.8440   -1.6120 C   0  0  2  0  0  0  0  0  0  0  0  0
    1.5660    3.7860   -1.9270 H   0  0  0  0  0  0  0  0  0  0  0  0
    3.3770    2.7150   -2.4380 C   0  0  0  0  0  0  0  0  0  0  0  0
    2.5420    3.0000   -0.1700 C   0  0  0  0  0  0  0  0  0  0  0  0
    2.7600    2.0690    0.5690 O   0  0  0  0  0  0  0  0  0  0  0  0
    2.7880    4.4290    0.2750 C   0  0  0  0  0  0  0  0  0  0  0  0
    2.8220    4.5440    1.7940 C   0  0  0  0  0  0  0  0  0  0  0  0
    2.9400    5.9960    2.2550 C   0  0  1  0  0  0  0  0  0  0  0  0
    2.8120    6.0570    3.7710 C   0  0  0  0  0  0  0  0  0  0  0  0
    4.2770    6.5940    1.8370 C   0  0  0  0  0  0  0  0  0  0  0  0
    4.8560   -0.6090   -0.2500 C   0  0  2  0  0  0  0  0  0  0  0  0
    4.5830   -0.3670    0.8140 H   0  0  0  0  0  0  0  0  0  0  0  0
    5.5310    0.4300   -0.9190 O   0  0  0  0  0  0  0  0  0  0  0  0
    6.2700    1.3170   -0.2060 C   0  0  0  0  0  0  0  0  0  0  0  0
    6.7460    2.4300   -1.0850 C   0  0  0  0  0  0  0  0  0  0  0  0
    6.4860    1.1630    0.9790 O   0  0  0  0  0  0  0  0  0  0  0  0
    7.9520   -3.4430   -0.2010 O   0  0  0  0  0  0  0  0  0  0  0  0
    9.1800   -4.0260   -0.5340 C   0  0  0  0  0  0  0  0  0  0  0  0
   10.1570   -3.9250    0.6530 C   0  0  1  0  0  0  0  0  0  0  0  0
    9.7400   -4.4670    1.5440 H   0  0  0  0  0  0  0  0  0  0  0  0
   11.4160   -4.3990    0.2790 O   0  0  0  0  0  0  0  0  0  0  0  0
   10.3800   -2.4350    1.0020 C   0  0  2  0  0  0  0  0  0  0  0  0
   10.9030   -1.9080    0.1590 H   0  0  0  0  0  0  0  0  0  0  0  0
   11.0840   -2.3540    2.1980 O   0  0  0  0  0  0  0  0  0  0  0  0
    9.0030   -1.7920    1.2880 C   0  0  1  0  0  0  0  0  0  0  0  0
    8.5600   -2.2130    2.2320 H   0  0  0  0  0  0  0  0  0  0  0  0
    9.2300   -0.4250    1.3390 O   0  0  0  0  0  0  0  0  0  0  0  0
    4.0330   -3.5580    1.7700 H   0  0  0  0  0  0  0  0  0  0  0  0
    3.8630   -3.4280   -1.7930 H   0  0  0  0  0  0  0  0  0  0  0  0
    2.9080   -3.9440   -0.3840 H   0  0  0  0  0  0  0  0  0  0  0  0
    0.2790   -1.4480   -0.8200 H   0  0  0  0  0  0  0  0  0  0  0  0
    0.5400   -0.2160    0.3940 H   0  0  0  0  0  0  0  0  0  0  0  0
   -2.5460   -1.6140   -1.4330 H   0  0  0  0  0  0  0  0  0  0  0  0
   -1.9080   -1.7730    0.1960 H   0  0  0  0  0  0  0  0  0  0  0  0
   -4.2660   -2.2800    0.4260 H   0  0  0  0  0  0  0  0  0  0  0  0
   -6.3810   -1.5260    0.9840 H   0  0  0  0  0  0  0  0  0  0  0  0
   -6.2310    0.0310    1.7600 H   0  0  0  0  0  0  0  0  0  0  0  0
  -11.4340   -3.8020   -2.0400 H   0  0  0  0  0  0  0  0  0  0  0  0
  -11.2760   -2.0760   -2.4490 H   0  0  0  0  0  0  0  0  0  0  0  0
   -9.4130   -2.6710   -3.3310 H   0  0  0  0  0  0  0  0  0  0  0  0
  -13.1430   -3.5360    0.8400 H   0  0  0  0  0  0  0  0  0  0  0  0
  -12.2310   -1.4760    3.3310 H   0  0  0  0  0  0  0  0  0  0  0  0
   -9.3770    0.2730    2.9640 H   0  0  0  0  0  0  0  0  0  0  0  0
   -7.8020    1.9620   -1.1640 H   0  0  0  0  0  0  0  0  0  0  0  0
   -7.0670    2.2010    0.4090 H   0  0  0  0  0  0  0  0  0  0  0  0
   -5.6690    1.1370   -2.1390 H   0  0  0  0  0  0  0  0  0  0  0  0
   -5.4580    2.7370   -1.4360 H   0  0  0  0  0  0  0  0  0  0  0  0
   -5.2800    2.1000    1.5450 H   0  0  0  0  0  0  0  0  0  0  0  0
   -3.6050    1.5820    1.6660 H   0  0  0  0  0  0  0  0  0  0  0  0
   -4.0260    3.0240    0.7380 H   0  0  0  0  0  0  0  0  0  0  0  0
   -3.4700    3.1340   -1.9950 H   0  0  0  0  0  0  0  0  0  0  0  0
   -2.6720    3.1600   -0.4300 H   0  0  0  0  0  0  0  0  0  0  0  0
   -1.4630    2.2750   -3.1220 H   0  0  0  0  0  0  0  0  0  0  0  0
   -1.0420    3.7130   -2.2120 H   0  0  0  0  0  0  0  0  0  0  0  0
   -1.2440    2.6760    0.5670 H   0  0  0  0  0  0  0  0  0  0  0  0
    0.3020    1.9060    0.8470 H   0  0  0  0  0  0  0  0  0  0  0  0
    0.1920    3.5170    0.0960 H   0  0  0  0  0  0  0  0  0  0  0  0
    1.6160    1.4470   -3.7710 H   0  0  0  0  0  0  0  0  0  0  0  0
    4.2220    3.2760   -2.0040 H   0  0  0  0  0  0  0  0  0  0  0  0
    3.7360    1.6810   -2.5320 H   0  0  0  0  0  0  0  0  0  0  0  0
    3.2610    3.1150   -3.4590 H   0  0  0  0  0  0  0  0  0  0  0  0
    3.7440    4.7670   -0.1730 H   0  0  0  0  0  0  0  0  0  0  0  0
    2.0230    5.1120   -0.1450 H   0  0  0  0  0  0  0  0  0  0  0  0
    1.9040    4.0850    2.2190 H   0  0  0  0  0  0  0  0  0  0  0  0
    3.6530    3.9350    2.2080 H   0  0  0  0  0  0  0  0  0  0  0  0
    2.1120    6.5980    1.8020 H   0  0  0  0  0  0  0  0  0  0  0  0
    3.5990    5.4850    4.2790 H   0  0  0  0  0  0  0  0  0  0  0  0
    2.8770    7.0850    4.1480 H   0  0  0  0  0  0  0  0  0  0  0  0
    1.8510    5.6560    4.1210 H   0  0  0  0  0  0  0  0  0  0  0  0
    4.3640    6.7120    0.7500 H   0  0  0  0  0  0  0  0  0  0  0  0
    4.4270    7.5980    2.2580 H   0  0  0  0  0  0  0  0  0  0  0  0
    5.1320    5.9880    2.1660 H   0  0  0  0  0  0  0  0  0  0  0  0
    5.8890    2.9910   -1.5070 H   0  0  0  0  0  0  0  0  0  0  0  0
    7.3720    3.1370   -0.5170 H   0  0  0  0  0  0  0  0  0  0  0  0
    7.3490    2.0580   -1.9300 H   0  0  0  0  0  0  0  0  0  0  0  0
    8.9170   -5.0750   -0.7680 H   0  0  0  0  0  0  0  0  0  0  0  0
    9.6190   -3.5930   -1.4610 H   0  0  0  0  0  0  0  0  0  0  0  0
   11.3630   -5.3560    0.2540 H   0  0  0  0  0  0  0  0  0  0  0  0
   12.0080   -2.5460    1.9970 H   0  0  0  0  0  0  0  0  0  0  0  0
    8.5050   -0.0360    1.8360 H   0  0  0  0  0  0  0  0  0  0  0  0
  2  1  1  6
  2 72  1  0
  2  3  1  0
  2 80  1  0
  3  4  1  0
  4  5  1  6
  4 66  1  0
  4  6  1  0
  6  9  1  0
  6  7  1  1
  6  8  1  0
  8 83  1  0
  9 84  1  0
  9 10  1  0
  9 85  1  0
 10 11  1  0
 11 12  1  6
 11 13  1  0
 11 66  1  0
 13 14  1  0
 14 15  1  6
 14 54  1  0
 14 16  1  0
 16 17  1  0
 16 86  1  0
 16 87  1  0
 17 18  1  6
 17 52  1  0
 17 19  1  0
 19 48  1  0
 19 21  1  0
 19 20  1  1
 21 88  1  0
 21 22  1  0
 21 89  1  0
 22 23  2  0
 22 90  1  0
 23 46  1  0
 23 24  1  0
 24 25  1  0
 24 91  1  0
 24 92  1  0
 25 26  1  6
 25 44  1  0
 25 27  1  0
 27 28  1  0
 28 30  1  0
 28 29  1  1
 28 41  1  0
 30 31  1  0
 31 33  1  0
 31 32  1  1
 31 35  1  0
 33 34  1  0
 33 94  1  0
 33 93  1  0
 34 95  1  0
 35 36  1  6
 35 37  1  0
 35 38  1  0
 37 96  1  0
 38 41  1  0
 38 39  1  1
 38 40  1  0
 40 97  1  0
 41 42  1  6
 41 43  1  0
 43 98  1  0
 44 45  1  0
 44 99  1  0
 44100  1  0
 45101  1  0
 45102  1  0
 45 46  1  0
 46 48  1  0
 46 47  1  1
 47105  1  0
 47103  1  0
 47104  1  0
 48 49  1  6
 48 50  1  0
 50 51  1  0
 50106  1  0
 50107  1  0
 51108  1  0
 51109  1  0
 51 52  1  0
 52 54  1  0
 52 53  1  1
 53112  1  0
 53110  1  0
 53111  1  0
 54 55  1  6
 54 56  1  0
 55113  1  0
 56 58  1  0
 56 57  1  6
 56 59  1  0
 58116  1  0
 58115  1  0
 58114  1  0
 59 61  1  0
 59 60  2  0
 61117  1  0
 61118  1  0
 61 62  1  0
 62120  1  0
 62119  1  0
 62 63  1  0
 63121  1  6
 63 65  1  0
 63 64  1  0
 64124  1  0
 64123  1  0
 64122  1  0
 65125  1  0
 65127  1  0
 65126  1  0
 66 68  1  0
 66 67  1  1
 68 69  1  0
 69 70  1  0
 69 71  2  0
 70130  1  0
 70128  1  0
 70129  1  0
 72 73  1  0
 73132  1  0
 73131  1  0
 73 74  1  0
 74 76  1  0
 74 77  1  0
 74 75  1  1
 76133  1  0
 77 78  1  6
 77 80  1  0
 77 79  1  0
 79134  1  0
 80 82  1  0
 80 81  1  1
 82135  1  0
M  END
>  <id>  (395) 
497

>  <scaffolds>  (395) 
['C1=C2CCCCC2C2CCC3CCCC3C2C1', 'C1=CCCCC1', 'C1=CCC2CCCCC2C1', 'C1=C2CCCCC2C2CCC3CC(OC4CCCCO4)CC3C2C1', 'C1CCOCC1', 'C1=C2CC(OC3CCCCO3)CCC2C2CCC3CCCC3C2C1', 'C1=C2CC(OC3CCCCO3)CCC2C2CCC3CC(OC4CCCCO4)CC3C2C1', 'C1CCCCC1', 'C1=C2CCCCC2C2CCC3CC(OC4CC(OC5CCCCO5)CCO4)CC3C2C1', 'C1=C2CCCCC2CCC1', 'C1=C2CC(OC3CCCCO3)CCC2C2CCC3CC(OC4CC(OC5CCCCO5)CCO4)CC3C2C1']

>  <name>  (395) 
3[beta]-[([beta]-D-glucopyranosyl)oxy]-17[alpha]-hydroxy-16[beta]-[(O-[beta]-D-xylopyranosyl-(1[to]2)-2-O-acetyl-[alpha]-L-arabinopyranosyl)oxy]cholest-5-en-22-one

>  <formula>  (395) 
C45H72O18

>  <SMILES>  (395) 
[H][C@@]7(O[C@H]6[C@@H](O)CO[C@@]([H])(O[C@H]5C[C@@]4([H])[C@]3([H])CC=C2C[C@@H](O[C@]1([H])O[C@H](CO)[C@@H](O)[C@H](O)[C@H]1O)CC[C@]2(C)[C@@]3([H])CC[C@]4(C)[C@@]5(O)[C@H](C)C(=O)CCC(C)C)[C@@H]6OC(C)=O)OC[C@@H](O)[C@H](O)[C@H]7O

>  <ChEMBL_id>  (395) 


>  <ZINC_id>  (395) 


>  <PubChem_id>  (395) 


>  <DrugBank_id>  (395) 


>  <CAS_no>  (395) 
263570-75-8

>  <references>  (395) 
[{'journal': {'name': 'Chemical and Pharmaceutical Bulletin', 'id': 33}, 'title': 'Cholestane Glycosides from the Bulbs of Galtonia candicans and Their Cytotoxicity', 'year': 2001, 'start_page': 1042, 'volume': 49, 'issue': 8, 'doi': '10.1248/cpb.49.1042', 'isbn': '', 'despositor': {'code': 'NFA', 'first_name': 'Ngonidzashe', 'last_name': 'Faya', 'id': 21}, 'refauthors_set': [{'author': {'first_name': 'Minpei', 'initials': 'M', 'last_name': 'Kuroda', 'id': 644}, 'first_author': True, 'id': 1191}, {'author': {'first_name': 'Yoshihiro ', 'initials': 'Y', 'last_name': 'Mimaki', 'id': 643}, 'first_author': None, 'id': 1192}, {'author': {'first_name': 'Akihito ', 'initials': 'A', 'last_name': 'Yokosuka', 'id': 650}, 'first_author': None, 'id': 1193}, {'author': {'first_name': 'Yutaka', 'initials': 'Y', 'last_name': 'Sashida', 'id': 645}, 'first_author': None, 'id': 1194}], 'id': 339}, {'journal': {'name': 'Journal of Natural Products', 'id': 5}, 'title': 'Cholestane Glycosides from the Bulbs of Ornithogalum thyrsoides and Their Cytotoxic Activity against HL-60 Leukemia Cells', 'year': 2002, 'start_page': 1417, 'volume': 65, 'issue': 10, 'doi': '10.1021/np020114j', 'isbn': '', 'despositor': {'code': 'NFA', 'first_name': 'Ngonidzashe', 'last_name': 'Faya', 'id': 21}, 'refauthors_set': [{'author': {'first_name': 'Minpei', 'initials': 'M', 'last_name': 'Kuroda', 'id': 644}, 'first_author': True, 'id': 1199}, {'author': {'first_name': 'Yoshihiro ', 'initials': 'Y', 'last_name': 'Mimaki', 'id': 643}, 'first_author': None, 'id': 1200}, {'author': {'first_name': 'Akihito ', 'initials': 'A', 'last_name': 'Yokosuka', 'id': 650}, 'first_author': None, 'id': 1201}, {'author': {'first_name': 'Fusako', 'initials': 'F', 'last_name': 'Hasegawa', 'id': 711}, 'first_author': None, 'id': 1202}, {'author': {'first_name': 'Yutaka', 'initials': 'Y', 'last_name': 'Sashida', 'id': 645}, 'first_author': None, 'id': 1203}], 'id': 341}]

>  <classifications>  (395) 
[{'classification': 'Cholestane', 'id': 761}, {'classification': 'Glycoside', 'id': 781}, {'classification': 'Steroids and steroid derivatives (Classyfire)', 'id': 942}]

>  <molecular_mass>  (395) 
901.04

$$$$
SANC00498_minRM1.pdb
     RDKit          3D

114120  0  0  1  0  0  0  0  0999 V2000
   -7.5080    1.5620   -0.2280 H   0  0  0  0  0  0  0  0  0  0  0  0
   -6.4280    1.7420    0.0280 C   0  0  2  0  0  0  0  0  0  0  0  0
   -5.7510    0.6240    0.5440 O   0  0  0  0  0  0  0  0  0  0  0  0
   -6.0560   -0.6010   -0.0690 C   0  0  2  0  0  0  0  0  0  0  0  0
   -6.3590   -0.5070   -1.1460 H   0  0  0  0  0  0  0  0  0  0  0  0
   -7.1640   -1.2920    0.7670 C   0  0  1  0  0  0  0  0  0  0  0  0
   -6.9140   -1.2580    1.8630 H   0  0  0  0  0  0  0  0  0  0  0  0
   -8.3380   -0.5960    0.4850 O   0  0  0  0  0  0  0  0  0  0  0  0
   -7.2950   -2.7610    0.2850 C   0  0  2  0  0  0  0  0  0  0  0  0
   -7.6370   -2.7860   -0.7850 H   0  0  0  0  0  0  0  0  0  0  0  0
   -8.2180   -3.3390    1.1600 O   0  0  0  0  0  0  0  0  0  0  0  0
   -5.9180   -3.4490    0.4370 C   0  0  1  0  0  0  0  0  0  0  0  0
   -5.6030   -3.4720    1.5160 H   0  0  0  0  0  0  0  0  0  0  0  0
   -5.9490   -4.8890   -0.1220 C   0  0  0  0  0  0  0  0  0  0  0  0
   -4.7180   -5.4870    0.1300 O   0  0  0  0  0  0  0  0  0  0  0  0
   -4.9900   -2.7710   -0.3680 O   0  0  0  0  0  0  0  0  0  0  0  0
   -4.7520   -1.4460    0.0620 C   0  0  1  0  0  0  0  0  0  0  0  0
   -4.3400   -1.4180    1.1130 H   0  0  0  0  0  0  0  0  0  0  0  0
   -3.8880   -0.9420   -0.9080 O   0  0  0  0  0  0  0  0  0  0  0  0
   -2.5360   -1.3490   -0.8000 C   0  0  1  0  0  0  0  0  0  0  0  0
   -1.8850   -0.7850   -2.0670 C   0  0  0  0  0  0  0  0  0  0  0  0
   -0.3950   -1.0870   -2.0470 C   0  0  0  0  0  0  0  0  0  0  0  0
    0.3170   -0.5230   -0.8090 C   0  0  1  0  0  0  0  0  0  0  0  0
    0.3000    1.0050   -0.8520 C   0  0  0  0  0  0  0  0  0  0  0  0
   -0.4120   -0.9450    0.4330 C   0  0  0  0  0  0  0  0  0  0  0  0
    0.2020   -1.4090    1.5220 C   0  0  0  0  0  0  0  0  0  0  0  0
    1.6760   -1.5620    1.6390 C   0  0  0  0  0  0  0  0  0  0  0  0
    2.4110   -0.7550    0.5690 C   0  0  2  0  0  0  0  0  0  0  0  0
    2.3130    0.3290    0.8230 H   0  0  0  0  0  0  0  0  0  0  0  0
    1.7690   -1.0690   -0.7920 C   0  0  2  0  0  0  0  0  0  0  0  0
    1.7250   -2.1870   -0.8930 H   0  0  0  0  0  0  0  0  0  0  0  0
    2.5760   -0.5380   -1.9820 C   0  0  0  0  0  0  0  0  0  0  0  0
    4.0770   -0.8270   -1.9020 C   0  0  0  0  0  0  0  0  0  0  0  0
    4.6240   -0.3470   -0.5580 C   0  0  1  0  0  0  0  0  0  0  0  0
    4.4160    1.1810   -0.5070 C   0  0  0  0  0  0  0  0  0  0  0  0
    4.7220    1.6620    0.7660 O   0  0  0  0  0  0  0  0  0  0  0  0
    3.8790   -1.1500    0.5210 C   0  0  1  0  0  0  0  0  0  0  0  0
    3.9280   -2.2420    0.2510 H   0  0  0  0  0  0  0  0  0  0  0  0
    4.7020   -0.9760    1.7950 C   0  0  0  0  0  0  0  0  0  0  0  0
    6.1420   -0.7170    1.2940 C   0  0  2  0  0  0  0  0  0  0  0  0
    6.8650   -1.4800    1.6890 H   0  0  0  0  0  0  0  0  0  0  0  0
    6.4970    0.5500    1.7600 O   0  0  0  0  0  0  0  0  0  0  0  0
    7.7700    0.9890    1.3720 C   0  0  1  0  0  0  0  0  0  0  0  0
    7.6430    2.1030    1.2710 H   0  0  0  0  0  0  0  0  0  0  0  0
    8.6430    0.6170    2.4000 O   0  0  0  0  0  0  0  0  0  0  0  0
    8.3250    0.3350    0.0900 C   0  0  2  0  0  0  0  0  0  0  0  0
    8.7550   -0.6680    0.3310 H   0  0  0  0  0  0  0  0  0  0  0  0
    9.3550    1.2490   -0.4840 C   0  0  0  0  0  0  0  0  0  0  0  0
   10.6600    0.9860   -0.5560 C   0  0  0  0  0  0  0  0  0  0  0  0
   11.6120    1.9710   -1.1410 C   0  0  0  0  0  0  0  0  0  0  0  0
   11.2730   -0.2890   -0.0930 C   0  0  0  0  0  0  0  0  0  0  0  0
    7.1640    0.1400   -0.9000 C   0  0  1  0  0  0  0  0  0  0  0  0
    6.7420    1.1450   -1.1640 H   0  0  0  0  0  0  0  0  0  0  0  0
    7.6980   -0.4950   -2.1780 C   0  0  0  0  0  0  0  0  0  0  0  0
    6.0860   -0.7370   -0.2580 C   0  0  2  0  0  0  0  0  0  0  0  0
    6.2460   -1.7960   -0.5870 H   0  0  0  0  0  0  0  0  0  0  0  0
   -1.8880   -0.7270    0.4410 C   0  0  0  0  0  0  0  0  0  0  0  0
   -5.8700    2.0660   -1.2010 O   0  0  0  0  0  0  0  0  0  0  0  0
   -4.5170    2.4630   -1.1950 C   0  0  1  0  0  0  0  0  0  0  0  0
   -3.8510    1.6310   -0.8390 H   0  0  0  0  0  0  0  0  0  0  0  0
   -4.2010    2.8030   -2.6490 C   0  0  0  0  0  0  0  0  0  0  0  0
   -4.3510    3.7110   -0.2950 C   0  0  2  0  0  0  0  0  0  0  0  0
   -4.9640    4.5650   -0.6910 H   0  0  0  0  0  0  0  0  0  0  0  0
   -2.9830    3.9820   -0.2530 O   0  0  0  0  0  0  0  0  0  0  0  0
   -4.8030    3.3550    1.1420 C   0  0  1  0  0  0  0  0  0  0  0  0
   -4.1450    2.5540    1.5780 H   0  0  0  0  0  0  0  0  0  0  0  0
   -4.6780    4.5480    1.8540 O   0  0  0  0  0  0  0  0  0  0  0  0
   -6.2610    2.8450    1.1110 C   0  0  1  0  0  0  0  0  0  0  0  0
   -6.5520    2.4270    2.1140 H   0  0  0  0  0  0  0  0  0  0  0  0
   -7.0350    3.9580    0.7900 O   0  0  0  0  0  0  0  0  0  0  0  0
   -9.0360   -0.9600    1.0380 H   0  0  0  0  0  0  0  0  0  0  0  0
   -8.5590   -4.1340    0.7440 H   0  0  0  0  0  0  0  0  0  0  0  0
   -6.6920   -5.5040    0.4350 H   0  0  0  0  0  0  0  0  0  0  0  0
   -6.2560   -4.9050   -1.1920 H   0  0  0  0  0  0  0  0  0  0  0  0
   -4.1910   -5.4330   -0.6890 H   0  0  0  0  0  0  0  0  0  0  0  0
   -2.4470   -2.4670   -0.7730 H   0  0  0  0  0  0  0  0  0  0  0  0
   -2.3580   -1.2220   -2.9720 H   0  0  0  0  0  0  0  0  0  0  0  0
   -2.0790    0.3050   -2.1630 H   0  0  0  0  0  0  0  0  0  0  0  0
   -0.2410   -2.1850   -2.1140 H   0  0  0  0  0  0  0  0  0  0  0  0
    0.0660   -0.6860   -2.9710 H   0  0  0  0  0  0  0  0  0  0  0  0
   -0.7060    1.4210   -1.0020 H   0  0  0  0  0  0  0  0  0  0  0  0
    0.6750    1.4540    0.0780 H   0  0  0  0  0  0  0  0  0  0  0  0
    0.9160    1.4020   -1.6700 H   0  0  0  0  0  0  0  0  0  0  0  0
   -0.3670   -1.7170    2.4120 H   0  0  0  0  0  0  0  0  0  0  0  0
    2.0130   -1.2600    2.6540 H   0  0  0  0  0  0  0  0  0  0  0  0
    1.9270   -2.6460    1.5800 H   0  0  0  0  0  0  0  0  0  0  0  0
    2.1800   -0.9660   -2.9290 H   0  0  0  0  0  0  0  0  0  0  0  0
    2.4230    0.5630   -2.0930 H   0  0  0  0  0  0  0  0  0  0  0  0
    4.2740   -1.9090   -2.0520 H   0  0  0  0  0  0  0  0  0  0  0  0
    4.6050   -0.3360   -2.7470 H   0  0  0  0  0  0  0  0  0  0  0  0
    5.0840    1.6710   -1.2630 H   0  0  0  0  0  0  0  0  0  0  0  0
    3.3800    1.4640   -0.8230 H   0  0  0  0  0  0  0  0  0  0  0  0
    4.2270    2.4820    0.8880 H   0  0  0  0  0  0  0  0  0  0  0  0
    4.3200   -0.1650    2.4430 H   0  0  0  0  0  0  0  0  0  0  0  0
    4.6630   -1.8740    2.4390 H   0  0  0  0  0  0  0  0  0  0  0  0
    8.3170    0.9740    3.2280 H   0  0  0  0  0  0  0  0  0  0  0  0
    8.9600    2.1990   -0.8650 H   0  0  0  0  0  0  0  0  0  0  0  0
   12.4340    2.2020   -0.4440 H   0  0  0  0  0  0  0  0  0  0  0  0
   12.0790    1.5800   -2.0600 H   0  0  0  0  0  0  0  0  0  0  0  0
   11.1520    2.9390   -1.4050 H   0  0  0  0  0  0  0  0  0  0  0  0
   11.0010   -1.1260   -0.7520 H   0  0  0  0  0  0  0  0  0  0  0  0
   12.3720   -0.2560   -0.0650 H   0  0  0  0  0  0  0  0  0  0  0  0
   10.9500   -0.5650    0.9280 H   0  0  0  0  0  0  0  0  0  0  0  0
    8.2520   -1.4270   -1.9910 H   0  0  0  0  0  0  0  0  0  0  0  0
    6.8960   -0.7480   -2.8850 H   0  0  0  0  0  0  0  0  0  0  0  0
    8.3910    0.1730   -2.7090 H   0  0  0  0  0  0  0  0  0  0  0  0
   -2.1050    0.3620    0.5000 H   0  0  0  0  0  0  0  0  0  0  0  0
   -2.3580   -1.1460    1.3610 H   0  0  0  0  0  0  0  0  0  0  0  0
   -4.8590    3.5870   -3.0520 H   0  0  0  0  0  0  0  0  0  0  0  0
   -3.1650    3.1530   -2.7530 H   0  0  0  0  0  0  0  0  0  0  0  0
   -4.3190    1.9280   -3.3040 H   0  0  0  0  0  0  0  0  0  0  0  0
   -2.8820    4.9390   -0.3130 H   0  0  0  0  0  0  0  0  0  0  0  0
   -5.1360    4.4420    2.6930 H   0  0  0  0  0  0  0  0  0  0  0  0
   -7.9580    3.6860    0.7690 H   0  0  0  0  0  0  0  0  0  0  0  0
  2  1  1  6
  2 58  1  0
  2  3  1  0
  2 68  1  0
  3  4  1  0
  4  5  1  6
  4 17  1  0
  4  6  1  0
  6  9  1  0
  6  8  1  0
  6  7  1  1
  8 71  1  0
  9 10  1  6
  9 12  1  0
  9 11  1  0
 11 72  1  0
 12 16  1  0
 12 14  1  0
 12 13  1  1
 14 74  1  0
 14 15  1  0
 14 73  1  0
 15 75  1  0
 16 17  1  0
 17 19  1  0
 17 18  1  1
 19 20  1  0
 20 21  1  0
 20 76  1  1
 20 57  1  0
 21 77  1  0
 21 78  1  0
 21 22  1  0
 22 80  1  0
 22 79  1  0
 22 23  1  0
 23 24  1  6
 23 30  1  0
 23 25  1  0
 24 83  1  0
 24 81  1  0
 24 82  1  0
 25 57  1  0
 25 26  2  0
 26 27  1  0
 26 84  1  0
 27 28  1  0
 27 86  1  0
 27 85  1  0
 28 30  1  0
 28 37  1  0
 28 29  1  1
 30 32  1  0
 30 31  1  6
 32 87  1  0
 32 88  1  0
 32 33  1  0
 33 90  1  0
 33 89  1  0
 33 34  1  0
 34 35  1  1
 34 55  1  0
 34 37  1  0
 35 91  1  0
 35 92  1  0
 35 36  1  0
 36 93  1  0
 37 38  1  6
 37 39  1  0
 39 40  1  0
 39 95  1  0
 39 94  1  0
 40 55  1  0
 40 41  1  1
 40 42  1  0
 42 43  1  0
 43 46  1  0
 43 44  1  6
 43 45  1  0
 45 96  1  0
 46 52  1  0
 46 48  1  0
 46 47  1  1
 48 97  1  0
 48 49  2  0
 49 50  1  0
 49 51  1  0
 50 99  1  0
 50100  1  0
 50 98  1  0
 51101  1  0
 51102  1  0
 51103  1  0
 52 54  1  0
 52 53  1  6
 52 55  1  0
 54105  1  0
 54106  1  0
 54104  1  0
 55 56  1  6
 57107  1  0
 57108  1  0
 58 59  1  0
 59 61  1  0
 59 60  1  1
 59 62  1  0
 61111  1  0
 61109  1  0
 61110  1  0
 62 63  1  6
 62 64  1  0
 62 65  1  0
 64112  1  0
 65 68  1  0
 65 66  1  1
 65 67  1  0
 67113  1  0
 68 70  1  0
 68 69  1  1
 70114  1  0
M  END
>  <id>  (396) 
498

>  <scaffolds>  (396) 
['C1=C2CCCCC2C2CCC3CCCC3C2C1', 'C1=CCCCC1', 'C1=CCC2CCCCC2C1', 'C1CCOCC1', 'C1=C2CC(OC3CCCCO3)CCC2C2CCC3CCCC3C2C1', 'C1CCCCC1', 'C1=C2CC(OC3OCCCC3OC3CCCCO3)CCC2C2CCC3C4CCCOC4CC3C2C1', 'C1=C2CCCCC2CCC1', 'C1CCC(OC2CCCOC2)OC1']

>  <name>  (396) 
(22S,23R)-16[beta],23-epoxy-18,23-dihydroxy-22-(2-methyl-1-propenyl)-24-norchol-5-en-3[beta]-yl O-[alpha]-L-rhamnopyranosyl-(1[to]2)-[beta]-D-glucopyranoside

>  <formula>  (396) 
C39H62O13

>  <SMILES>  (396) 
[H][C@@]7(O[C@@H]1[C@@H](O)[C@H](O)[C@@H](CO)O[C@@]1([H])OC6CC[C@@]2(C)C(=CC[C@]3([H])[C@]2([H])CC[C@@]5(CO)[C@@]3([H])C[C@]4([H])O[C@@H](O)[C@H](/C=C(C)\C)[C@@H](C)[C@@]45[H])C6)O[C@@H](C)[C@H](O)[C@@H](O)[C@H]7O

>  <ChEMBL_id>  (396) 


>  <ZINC_id>  (396) 


>  <PubChem_id>  (396) 


>  <DrugBank_id>  (396) 


>  <CAS_no>  (396) 
263570-77-0

>  <references>  (396) 
[{'journal': {'name': 'Chemical and Pharmaceutical Bulletin', 'id': 33}, 'title': 'Cholestane Glycosides from the Bulbs of Galtonia candicans and Their Cytotoxicity', 'year': 2001, 'start_page': 1042, 'volume': 49, 'issue': 8, 'doi': '10.1248/cpb.49.1042', 'isbn': '', 'despositor': {'code': 'NFA', 'first_name': 'Ngonidzashe', 'last_name': 'Faya', 'id': 21}, 'refauthors_set': [{'author': {'first_name': 'Minpei', 'initials': 'M', 'last_name': 'Kuroda', 'id': 644}, 'first_author': True, 'id': 1191}, {'author': {'first_name': 'Yoshihiro ', 'initials': 'Y', 'last_name': 'Mimaki', 'id': 643}, 'first_author': None, 'id': 1192}, {'author': {'first_name': 'Akihito ', 'initials': 'A', 'last_name': 'Yokosuka', 'id': 650}, 'first_author': None, 'id': 1193}, {'author': {'first_name': 'Yutaka', 'initials': 'Y', 'last_name': 'Sashida', 'id': 645}, 'first_author': None, 'id': 1194}], 'id': 339}]

>  <classifications>  (396) 
[{'classification': 'Cholestane', 'id': 761}, {'classification': 'Glycoside', 'id': 781}, {'classification': 'Steroids and steroid derivatives (Classyfire)', 'id': 942}]

>  <molecular_mass>  (396) 
738.9

$$$$
SANC00499_minRM1.pdb
     RDKit          3D

113118  0  0  1  0  0  0  0  0999 V2000
    5.6500   -2.7180   -1.3680 H   0  0  0  0  0  0  0  0  0  0  0  0
    5.3520   -2.4090   -0.3240 C   0  0  2  0  0  0  0  0  0  0  0  0
    4.6380   -1.2110   -0.2740 O   0  0  0  0  0  0  0  0  0  0  0  0
    3.5260   -1.1370   -1.1230 C   0  0  1  0  0  0  0  0  0  0  0  0
    3.5650   -1.9140   -1.9360 H   0  0  0  0  0  0  0  0  0  0  0  0
    2.2340   -1.3510   -0.3060 C   0  0  0  0  0  0  0  0  0  0  0  0
    1.2550   -0.4100   -0.9940 C   0  0  1  0  0  0  0  0  0  0  0  0
    1.0050   -0.8600   -1.9940 H   0  0  0  0  0  0  0  0  0  0  0  0
   -0.0500   -0.1200   -0.2660 C   0  0  2  0  0  0  0  0  0  0  0  0
    0.1480    0.3550    0.7250 H   0  0  0  0  0  0  0  0  0  0  0  0
   -0.8040   -1.4270   -0.0320 C   0  0  0  0  0  0  0  0  0  0  0  0
   -2.2070   -1.1850    0.3850 C   0  0  0  0  0  0  0  0  0  0  0  0
   -2.8460   -0.0290    0.2030 C   0  0  0  0  0  0  0  0  0  0  0  0
   -4.2410    0.1310    0.7080 C   0  0  0  0  0  0  0  0  0  0  0  0
   -5.1550    0.6790   -0.3940 C   0  0  1  0  0  0  0  0  0  0  0  0
   -5.2700   -0.0730   -1.2180 H   0  0  0  0  0  0  0  0  0  0  0  0
   -6.4080    1.0480    0.1520 O   0  0  0  0  0  0  0  0  0  0  0  0
   -7.2410   -0.0030    0.5370 C   0  0  2  0  0  0  0  0  0  0  0  0
   -6.7240   -0.8000    1.1430 H   0  0  0  0  0  0  0  0  0  0  0  0
   -7.7500   -0.5070   -0.6760 O   0  0  0  0  0  0  0  0  0  0  0  0
   -8.6860   -1.5370   -0.4760 C   0  0  2  0  0  0  0  0  0  0  0  0
   -8.2530   -2.3850    0.1200 H   0  0  0  0  0  0  0  0  0  0  0  0
   -9.0540   -2.0350   -1.8910 C   0  0  0  0  0  0  0  0  0  0  0  0
   -7.9500   -2.7180   -2.4020 O   0  0  0  0  0  0  0  0  0  0  0  0
   -9.9330   -0.9520    0.2350 C   0  0  1  0  0  0  0  0  0  0  0  0
  -10.4050   -0.1490   -0.3940 H   0  0  0  0  0  0  0  0  0  0  0  0
  -10.7930   -2.0310    0.4310 O   0  0  0  0  0  0  0  0  0  0  0  0
   -9.4880   -0.3710    1.6020 C   0  0  2  0  0  0  0  0  0  0  0  0
   -9.1130   -1.1900    2.2750 H   0  0  0  0  0  0  0  0  0  0  0  0
  -10.6260    0.2390    2.1280 O   0  0  0  0  0  0  0  0  0  0  0  0
   -8.3840    0.6800    1.3430 C   0  0  1  0  0  0  0  0  0  0  0  0
   -8.8030    1.5550    0.7770 H   0  0  0  0  0  0  0  0  0  0  0  0
   -7.9150    1.0410    2.6060 O   0  0  0  0  0  0  0  0  0  0  0  0
   -4.5860    1.9940   -0.9360 C   0  0  0  0  0  0  0  0  0  0  0  0
   -3.1860    1.7550   -1.4780 C   0  0  0  0  0  0  0  0  0  0  0  0
   -2.2200    1.1780   -0.4300 C   0  0  1  0  0  0  0  0  0  0  0  0
   -1.9730    2.2010    0.6790 C   0  0  0  0  0  0  0  0  0  0  0  0
   -0.8970    0.8080   -1.1500 C   0  0  1  0  0  0  0  0  0  0  0  0
   -1.1560    0.2390   -2.0830 H   0  0  0  0  0  0  0  0  0  0  0  0
   -0.1120    2.0590   -1.5710 C   0  0  0  0  0  0  0  0  0  0  0  0
    1.2570    1.7450   -2.1790 C   0  0  0  0  0  0  0  0  0  0  0  0
    2.0700    0.8730   -1.2190 C   0  0  1  0  0  0  0  0  0  0  0  0
    2.3050    1.6520    0.0700 C   0  0  0  0  0  0  0  0  0  0  0  0
    3.4220    0.2990   -1.7710 C   0  0  2  0  0  0  0  0  0  0  0  0
    3.1700    0.1170   -3.1390 O   0  0  0  0  0  0  0  0  0  0  0  0
    4.6310    1.2600   -1.6590 C   0  0  2  0  0  0  0  0  0  0  0  0
    4.2860    2.2100   -2.1510 H   0  0  0  0  0  0  0  0  0  0  0  0
    5.8540    0.7420   -2.4210 C   0  0  0  0  0  0  0  0  0  0  0  0
    5.1690    1.5950   -0.2800 C   0  0  0  0  0  0  0  0  0  0  0  0
    5.3800    0.7690    0.5800 O   0  0  0  0  0  0  0  0  0  0  0  0
    5.5900    3.0380   -0.0770 C   0  0  0  0  0  0  0  0  0  0  0  0
    5.8000    3.3710    1.3960 C   0  0  0  0  0  0  0  0  0  0  0  0
    6.2530    4.8230    1.5800 C   0  0  1  0  0  0  0  0  0  0  0  0
    6.1720    5.2030    3.0540 C   0  0  0  0  0  0  0  0  0  0  0  0
    7.6840    5.0110    1.0900 C   0  0  0  0  0  0  0  0  0  0  0  0
    4.4860   -3.3520    0.2670 O   0  0  0  0  0  0  0  0  0  0  0  0
    5.0620   -4.6210    0.3960 C   0  0  0  0  0  0  0  0  0  0  0  0
    6.2860   -4.5670    1.3310 C   0  0  2  0  0  0  0  0  0  0  0  0
    6.7630   -5.5790    1.4120 H   0  0  0  0  0  0  0  0  0  0  0  0
    5.9320   -4.2700    2.6420 O   0  0  0  0  0  0  0  0  0  0  0  0
    7.3030   -3.5390    0.7800 C   0  0  2  0  0  0  0  0  0  0  0  0
    7.7250   -3.9050   -0.1930 H   0  0  0  0  0  0  0  0  0  0  0  0
    8.4040   -3.3300    1.6040 O   0  0  0  0  0  0  0  0  0  0  0  0
    6.5970   -2.1750    0.5780 C   0  0  1  0  0  0  0  0  0  0  0  0
    6.3020   -1.7210    1.5590 H   0  0  0  0  0  0  0  0  0  0  0  0
    7.4680   -1.3730   -0.1530 O   0  0  0  0  0  0  0  0  0  0  0  0
    1.9070   -2.4090   -0.3290 H   0  0  0  0  0  0  0  0  0  0  0  0
    2.3650   -1.1310    0.7720 H   0  0  0  0  0  0  0  0  0  0  0  0
   -0.8070   -2.0680   -0.9410 H   0  0  0  0  0  0  0  0  0  0  0  0
   -0.2820   -2.0390    0.7350 H   0  0  0  0  0  0  0  0  0  0  0  0
   -2.6990   -2.0400    0.8620 H   0  0  0  0  0  0  0  0  0  0  0  0
   -4.6450   -0.8310    1.0930 H   0  0  0  0  0  0  0  0  0  0  0  0
   -4.2490    0.7930    1.6000 H   0  0  0  0  0  0  0  0  0  0  0  0
   -9.8940   -2.7680   -1.8310 H   0  0  0  0  0  0  0  0  0  0  0  0
   -9.4170   -1.2000   -2.5320 H   0  0  0  0  0  0  0  0  0  0  0  0
   -7.6240   -2.2160   -3.1610 H   0  0  0  0  0  0  0  0  0  0  0  0
  -11.5890   -1.7010    0.8560 H   0  0  0  0  0  0  0  0  0  0  0  0
  -10.3970    0.5850    2.9970 H   0  0  0  0  0  0  0  0  0  0  0  0
   -7.2860    1.7590    2.4820 H   0  0  0  0  0  0  0  0  0  0  0  0
   -5.2470    2.4000   -1.7310 H   0  0  0  0  0  0  0  0  0  0  0  0
   -4.5910    2.7820   -0.1540 H   0  0  0  0  0  0  0  0  0  0  0  0
   -3.2470    1.0800   -2.3570 H   0  0  0  0  0  0  0  0  0  0  0  0
   -2.7880    2.7070   -1.8830 H   0  0  0  0  0  0  0  0  0  0  0  0
   -2.8990    2.6070    1.1100 H   0  0  0  0  0  0  0  0  0  0  0  0
   -1.4090    1.7740    1.5190 H   0  0  0  0  0  0  0  0  0  0  0  0
   -1.4000    3.0700    0.3270 H   0  0  0  0  0  0  0  0  0  0  0  0
   -0.7040    2.6450   -2.3090 H   0  0  0  0  0  0  0  0  0  0  0  0
    0.0110    2.7570   -0.7090 H   0  0  0  0  0  0  0  0  0  0  0  0
    1.1100    1.2590   -3.1660 H   0  0  0  0  0  0  0  0  0  0  0  0
    1.8010    2.6840   -2.4150 H   0  0  0  0  0  0  0  0  0  0  0  0
    1.3660    2.0060    0.5300 H   0  0  0  0  0  0  0  0  0  0  0  0
    2.8110    1.0650    0.8490 H   0  0  0  0  0  0  0  0  0  0  0  0
    2.8880    2.5690   -0.0940 H   0  0  0  0  0  0  0  0  0  0  0  0
    3.9190   -0.3370   -3.5420 H   0  0  0  0  0  0  0  0  0  0  0  0
    6.1460   -0.2750   -2.1210 H   0  0  0  0  0  0  0  0  0  0  0  0
    5.7070    0.7350   -3.5130 H   0  0  0  0  0  0  0  0  0  0  0  0
    6.7400    1.3780   -2.2600 H   0  0  0  0  0  0  0  0  0  0  0  0
    6.5250    3.1950   -0.6570 H   0  0  0  0  0  0  0  0  0  0  0  0
    4.8580    3.7390   -0.5290 H   0  0  0  0  0  0  0  0  0  0  0  0
    4.8570    3.1870    1.9540 H   0  0  0  0  0  0  0  0  0  0  0  0
    6.5360    2.6770    1.8580 H   0  0  0  0  0  0  0  0  0  0  0  0
    5.5760    5.5030    1.0000 H   0  0  0  0  0  0  0  0  0  0  0  0
    6.7870    4.5490    3.6880 H   0  0  0  0  0  0  0  0  0  0  0  0
    6.5120    6.2310    3.2360 H   0  0  0  0  0  0  0  0  0  0  0  0
    5.1440    5.1430    3.4420 H   0  0  0  0  0  0  0  0  0  0  0  0
    8.3930    4.3300    1.5880 H   0  0  0  0  0  0  0  0  0  0  0  0
    7.7910    4.8270    0.0080 H   0  0  0  0  0  0  0  0  0  0  0  0
    8.0540    6.0320    1.2720 H   0  0  0  0  0  0  0  0  0  0  0  0
    4.2490   -5.2460    0.8250 H   0  0  0  0  0  0  0  0  0  0  0  0
    5.3300   -5.0710   -0.5880 H   0  0  0  0  0  0  0  0  0  0  0  0
    5.2970   -3.5380    2.6280 H   0  0  0  0  0  0  0  0  0  0  0  0
    8.2510   -3.7360    2.4690 H   0  0  0  0  0  0  0  0  0  0  0  0
    7.5320   -0.5380    0.3070 H   0  0  0  0  0  0  0  0  0  0  0  0
  2  1  1  6
  2  3  1  0
  2 56  1  0
  2 64  1  0
  3  4  1  0
  4  5  1  6
  4 44  1  0
  4  6  1  0
  6  7  1  0
  6 67  1  0
  6 68  1  0
  7  8  1  6
  7 42  1  0
  7  9  1  0
  9 38  1  0
  9 11  1  0
  9 10  1  1
 11 69  1  0
 11 12  1  0
 11 70  1  0
 12 13  2  0
 12 71  1  0
 13 36  1  0
 13 14  1  0
 14 15  1  0
 14 72  1  0
 14 73  1  0
 15 16  1  6
 15 34  1  0
 15 17  1  0
 17 18  1  0
 18 20  1  0
 18 19  1  1
 18 31  1  0
 20 21  1  0
 21 23  1  0
 21 22  1  1
 21 25  1  0
 23 75  1  0
 23 24  1  0
 23 74  1  0
 24 76  1  0
 25 26  1  6
 25 27  1  0
 25 28  1  0
 27 77  1  0
 28 31  1  0
 28 30  1  0
 28 29  1  1
 30 78  1  0
 31 32  1  6
 31 33  1  0
 33 79  1  0
 34 80  1  0
 34 35  1  0
 34 81  1  0
 35 82  1  0
 35 83  1  0
 35 36  1  0
 36 38  1  0
 36 37  1  1
 37 86  1  0
 37 84  1  0
 37 85  1  0
 38 39  1  6
 38 40  1  0
 40 87  1  0
 40 41  1  0
 40 88  1  0
 41 89  1  0
 41 90  1  0
 41 42  1  0
 42 44  1  0
 42 43  1  1
 43 93  1  0
 43 91  1  0
 43 92  1  0
 44 45  1  6
 44 46  1  0
 45 94  1  0
 46 48  1  0
 46 47  1  6
 46 49  1  0
 48 96  1  0
 48 97  1  0
 48 95  1  0
 49 51  1  0
 49 50  2  0
 51 98  1  0
 51 99  1  0
 51 52  1  0
 52 53  1  0
 52101  1  0
 52100  1  0
 53102  1  6
 53 55  1  0
 53 54  1  0
 54104  1  0
 54105  1  0
 54103  1  0
 55107  1  0
 55108  1  0
 55106  1  0
 56 57  1  0
 57110  1  0
 57109  1  0
 57 58  1  0
 58 61  1  0
 58 59  1  1
 58 60  1  0
 60111  1  0
 61 62  1  6
 61 64  1  0
 61 63  1  0
 63112  1  0
 64 66  1  0
 64 65  1  1
 66113  1  0
M  END
>  <id>  (397) 
499

>  <scaffolds>  (397) 
['C1=C2CCCCC2C2CCC3CCCC3C2C1', 'C1=CCCCC1', 'C1=CCC2CCCCC2C1', 'C1=C2CCCCC2C2CCC3CC(OC4CCCCO4)CC3C2C1', 'C1CCOCC1', 'C1=C2CC(OC3CCCCO3)CCC2C2CCC3CCCC3C2C1', 'C1=C2CC(OC3CCCCO3)CCC2C2CCC3CC(OC4CCCCO4)CC3C2C1', 'C1CCCCC1', 'C1=C2CCCCC2CCC1']

>  <name>  (397) 
16[beta]-[([alpha]-L-arabinopyranosyl)oxy]-3[beta]-[([beta]-D-glucopyranosyl)oxy]-17[alpha]-hydroxycholest-5-en-22-one

>  <formula>  (397) 
C38H62O13

>  <SMILES>  (397) 
[H][C@@]6(O[C@H]5C[C@@]4([H])[C@]3([H])CC=C2C[C@@H](O[C@]1([H])O[C@H](CO)[C@@H](O)[C@H](O)[C@H]1O)CC[C@]2(C)[C@@]3([H])CC[C@]4(C)[C@@]5(O)[C@H](C)C(=O)CCC(C)C)OC[C@H](O)[C@H](O)[C@H]6O

>  <ChEMBL_id>  (397) 


>  <ZINC_id>  (397) 


>  <PubChem_id>  (397) 


>  <DrugBank_id>  (397) 


>  <CAS_no>  (397) 
365461-51-4

>  <references>  (397) 
[{'journal': {'name': 'Chemical and Pharmaceutical Bulletin', 'id': 33}, 'title': 'Cholestane Glycosides from the Bulbs of Galtonia candicans and Their Cytotoxicity', 'year': 2001, 'start_page': 1042, 'volume': 49, 'issue': 8, 'doi': '10.1248/cpb.49.1042', 'isbn': '', 'despositor': {'code': 'NFA', 'first_name': 'Ngonidzashe', 'last_name': 'Faya', 'id': 21}, 'refauthors_set': [{'author': {'first_name': 'Minpei', 'initials': 'M', 'last_name': 'Kuroda', 'id': 644}, 'first_author': True, 'id': 1191}, {'author': {'first_name': 'Yoshihiro ', 'initials': 'Y', 'last_name': 'Mimaki', 'id': 643}, 'first_author': None, 'id': 1192}, {'author': {'first_name': 'Akihito ', 'initials': 'A', 'last_name': 'Yokosuka', 'id': 650}, 'first_author': None, 'id': 1193}, {'author': {'first_name': 'Yutaka', 'initials': 'Y', 'last_name': 'Sashida', 'id': 645}, 'first_author': None, 'id': 1194}], 'id': 339}, {'journal': {'name': 'Journal of Natural Products', 'id': 5}, 'title': 'Cholestane Glycosides from the Bulbs of Ornithogalum thyrsoides and Their Cytotoxic Activity against HL-60 Leukemia Cells', 'year': 2002, 'start_page': 1417, 'volume': 65, 'issue': 10, 'doi': '10.1021/np020114j', 'isbn': '', 'despositor': {'code': 'NFA', 'first_name': 'Ngonidzashe', 'last_name': 'Faya', 'id': 21}, 'refauthors_set': [{'author': {'first_name': 'Minpei', 'initials': 'M', 'last_name': 'Kuroda', 'id': 644}, 'first_author': True, 'id': 1199}, {'author': {'first_name': 'Yoshihiro ', 'initials': 'Y', 'last_name': 'Mimaki', 'id': 643}, 'first_author': None, 'id': 1200}, {'author': {'first_name': 'Akihito ', 'initials': 'A', 'last_name': 'Yokosuka', 'id': 650}, 'first_author': None, 'id': 1201}, {'author': {'first_name': 'Fusako', 'initials': 'F', 'last_name': 'Hasegawa', 'id': 711}, 'first_author': None, 'id': 1202}, {'author': {'first_name': 'Yutaka', 'initials': 'Y', 'last_name': 'Sashida', 'id': 645}, 'first_author': None, 'id': 1203}], 'id': 341}]

>  <classifications>  (397) 
[{'classification': 'Cholestane', 'id': 761}, {'classification': 'Glycoside', 'id': 781}, {'classification': 'Steroids and steroid derivatives (Classyfire)', 'id': 942}]

>  <molecular_mass>  (397) 
726.89

$$$$
SANC00500_minRM1.pdb
     RDKit          3D

155162  0  0  1  0  0  0  0  0999 V2000
    0.6710    1.5800   -2.1600 H   0  0  0  0  0  0  0  0  0  0  0  0
    0.8910    1.4330   -1.0620 C   0  0  2  0  0  0  0  0  0  0  0  0
    2.1080    0.7930   -0.8270 O   0  0  0  0  0  0  0  0  0  0  0  0
    3.2420    1.3970   -1.3830 C   0  0  1  0  0  0  0  0  0  0  0  0
    4.0640    2.1020   -0.2830 C   0  0  0  0  0  0  0  0  0  0  0  0
    5.4760    2.0160   -0.8510 C   0  0  1  0  0  0  0  0  0  0  0  0
    5.5290    2.7050   -1.7380 H   0  0  0  0  0  0  0  0  0  0  0  0
    6.6310    2.3510    0.0800 C   0  0  2  0  0  0  0  0  0  0  0  0
    6.6140    1.6630    0.9650 H   0  0  0  0  0  0  0  0  0  0  0  0
    6.5210    3.7880    0.5860 C   0  0  0  0  0  0  0  0  0  0  0  0
    7.7560    4.1960    1.3020 C   0  0  0  0  0  0  0  0  0  0  0  0
    8.9270    3.5680    1.1790 C   0  0  0  0  0  0  0  0  0  0  0  0
   10.0940    3.9950    2.0060 C   0  0  0  0  0  0  0  0  0  0  0  0
   11.3450    4.1730    1.1330 C   0  0  1  0  0  0  0  0  0  0  0  0
   11.1910    5.0300    0.4200 H   0  0  0  0  0  0  0  0  0  0  0  0
   12.4760    4.3860    1.9320 O   0  0  0  0  0  0  0  0  0  0  0  0
   11.6270    2.8820    0.3600 C   0  0  0  0  0  0  0  0  0  0  0  0
   10.4290    2.5460   -0.5160 C   0  0  0  0  0  0  0  0  0  0  0  0
    9.1380    2.3690    0.3000 C   0  0  1  0  0  0  0  0  0  0  0  0
    9.2720    1.1500    1.2190 C   0  0  0  0  0  0  0  0  0  0  0  0
    7.9530    2.2010   -0.6880 C   0  0  1  0  0  0  0  0  0  0  0  0
    7.9970    3.0390   -1.4350 H   0  0  0  0  0  0  0  0  0  0  0  0
    8.0710    0.8890   -1.4760 C   0  0  0  0  0  0  0  0  0  0  0  0
    6.8070    0.4920   -2.2380 C   0  0  0  0  0  0  0  0  0  0  0  0
    5.5830    0.5570   -1.3250 C   0  0  1  0  0  0  0  0  0  0  0  0
    5.7840   -0.4020   -0.1570 C   0  0  0  0  0  0  0  0  0  0  0  0
    4.1960    0.3100   -2.0190 C   0  0  2  0  0  0  0  0  0  0  0  0
    4.4100    0.6610   -3.3600 O   0  0  0  0  0  0  0  0  0  0  0  0
    3.7450   -1.1730   -2.0150 C   0  0  2  0  0  0  0  0  0  0  0  0
    4.6240   -1.7440   -2.4190 H   0  0  0  0  0  0  0  0  0  0  0  0
    2.5560   -1.4170   -2.9460 C   0  0  0  0  0  0  0  0  0  0  0  0
    3.3340   -1.7780   -0.6850 C   0  0  0  0  0  0  0  0  0  0  0  0
    2.5860   -1.2280    0.0950 O   0  0  0  0  0  0  0  0  0  0  0  0
    3.8010   -3.1970   -0.4180 C   0  0  0  0  0  0  0  0  0  0  0  0
    3.7010   -3.5210    1.0700 C   0  0  0  0  0  0  0  0  0  0  0  0
    4.2450   -4.9110    1.4100 C   0  0  1  0  0  0  0  0  0  0  0  0
    4.2440   -5.0860    2.9280 C   0  0  0  0  0  0  0  0  0  0  0  0
    3.4000   -6.0090    0.7770 C   0  0  0  0  0  0  0  0  0  0  0  0
    1.0010    2.6670   -0.3910 O   0  0  0  0  0  0  0  0  0  0  0  0
   -0.1790    3.4190   -0.3980 C   0  0  0  0  0  0  0  0  0  0  0  0
   -1.3570    2.6660    0.2650 C   0  0  2  0  0  0  0  0  0  0  0  0
   -2.2970    3.2730    0.1620 H   0  0  0  0  0  0  0  0  0  0  0  0
   -1.0700    2.3710    1.5950 O   0  0  0  0  0  0  0  0  0  0  0  0
   -1.5200    1.3040   -0.4490 C   0  0  2  0  0  0  0  0  0  0  0  0
   -1.8040    1.4880   -1.5210 H   0  0  0  0  0  0  0  0  0  0  0  0
   -2.4510    0.5170    0.2460 O   0  0  0  0  0  0  0  0  0  0  0  0
   -3.7060    0.3920   -0.3580 C   0  0  2  0  0  0  0  0  0  0  0  0
   -3.6640    0.0290   -1.4240 H   0  0  0  0  0  0  0  0  0  0  0  0
   -4.2420    1.6930   -0.2830 O   0  0  0  0  0  0  0  0  0  0  0  0
   -5.5910    1.7780   -0.6470 C   0  0  0  0  0  0  0  0  0  0  0  0
   -6.4350    0.9260    0.3200 C   0  0  1  0  0  0  0  0  0  0  0  0
   -6.2930    1.2790    1.3760 H   0  0  0  0  0  0  0  0  0  0  0  0
   -7.7780    0.9490   -0.1060 O   0  0  0  0  0  0  0  0  0  0  0  0
   -8.6160    1.7980    0.6240 C   0  0  1  0  0  0  0  0  0  0  0  0
   -8.1060    3.0830    0.3650 O   0  0  0  0  0  0  0  0  0  0  0  0
   -8.8580    4.1110    0.9580 C   0  0  1  0  0  0  0  0  0  0  0  0
   -8.0920    5.4090    0.6270 C   0  0  0  0  0  0  0  0  0  0  0  0
   -7.0130    5.4460    1.5120 O   0  0  0  0  0  0  0  0  0  0  0  0
  -10.2830    4.1330    0.3570 C   0  0  1  0  0  0  0  0  0  0  0  0
  -10.8990    4.9300    0.8550 H   0  0  0  0  0  0  0  0  0  0  0  0
  -10.1260    4.3960   -1.0020 O   0  0  0  0  0  0  0  0  0  0  0  0
  -10.9300    2.7450    0.5960 C   0  0  1  0  0  0  0  0  0  0  0  0
  -12.2020    2.8070    0.0300 O   0  0  0  0  0  0  0  0  0  0  0  0
  -10.0290    1.6320    0.0040 C   0  0  1  0  0  0  0  0  0  0  0  0
  -10.4410    0.6170    0.2530 H   0  0  0  0  0  0  0  0  0  0  0  0
  -10.0610    1.6860   -1.3800 O   0  0  0  0  0  0  0  0  0  0  0  0
   -5.9810   -0.5490    0.1790 C   0  0  2  0  0  0  0  0  0  0  0  0
   -6.1370   -0.9170   -0.8720 H   0  0  0  0  0  0  0  0  0  0  0  0
   -6.6350   -1.3460    1.1160 O   0  0  0  0  0  0  0  0  0  0  0  0
   -4.4830   -0.5940    0.5650 C   0  0  1  0  0  0  0  0  0  0  0  0
   -4.3370   -0.3230    1.6470 H   0  0  0  0  0  0  0  0  0  0  0  0
   -3.9940   -1.8640    0.2110 O   0  0  0  0  0  0  0  0  0  0  0  0
   -3.7340   -2.7820    1.1870 C   0  0  0  0  0  0  0  0  0  0  0  0
   -3.9800   -2.5560    2.3530 O   0  0  0  0  0  0  0  0  0  0  0  0
   -3.1390   -4.0070    0.6260 C   0  0  0  0  0  0  0  0  0  0  0  0
   -3.6180   -4.5730   -0.5420 C   0  0  0  0  0  0  0  0  0  0  0  0
   -3.0660   -5.7590   -1.0210 C   0  0  0  0  0  0  0  0  0  0  0  0
   -2.0220   -6.3510   -0.3250 C   0  0  0  0  0  0  0  0  0  0  0  0
   -1.3560   -7.4870   -0.6820 O   0  0  0  0  0  0  0  0  0  0  0  0
   -1.9110   -8.2390   -1.7350 C   0  0  0  0  0  0  0  0  0  0  0  0
   -1.5270   -5.7580    0.8630 C   0  0  0  0  0  0  0  0  0  0  0  0
   -0.4890   -6.4380    1.4240 O   0  0  0  0  0  0  0  0  0  0  0  0
   -0.1080   -6.0540    2.7200 C   0  0  0  0  0  0  0  0  0  0  0  0
   -2.0810   -4.5810    1.3370 C   0  0  0  0  0  0  0  0  0  0  0  0
   -0.1770    0.5400   -0.3650 C   0  0  1  0  0  0  0  0  0  0  0  0
    0.1190    0.3240    0.6980 H   0  0  0  0  0  0  0  0  0  0  0  0
   -0.3020   -0.5980   -1.1830 O   0  0  0  0  0  0  0  0  0  0  0  0
   -0.4130   -1.8300   -0.6100 C   0  0  0  0  0  0  0  0  0  0  0  0
   -0.4350   -2.8950   -1.6620 C   0  0  0  0  0  0  0  0  0  0  0  0
   -0.4880   -1.9850    0.5900 O   0  0  0  0  0  0  0  0  0  0  0  0
    2.9740    2.1640   -2.1630 H   0  0  0  0  0  0  0  0  0  0  0  0
    3.7180    3.1390   -0.1120 H   0  0  0  0  0  0  0  0  0  0  0  0
    3.9590    1.6110    0.7040 H   0  0  0  0  0  0  0  0  0  0  0  0
    6.3220    4.5040   -0.2420 H   0  0  0  0  0  0  0  0  0  0  0  0
    5.6420    3.8910    1.2590 H   0  0  0  0  0  0  0  0  0  0  0  0
    7.6410    5.0660    1.9590 H   0  0  0  0  0  0  0  0  0  0  0  0
    9.8860    4.9310    2.5680 H   0  0  0  0  0  0  0  0  0  0  0  0
   10.2770    3.2440    2.8070 H   0  0  0  0  0  0  0  0  0  0  0  0
   12.3360    5.1960    2.4300 H   0  0  0  0  0  0  0  0  0  0  0  0
   12.5440    2.9950   -0.2580 H   0  0  0  0  0  0  0  0  0  0  0  0
   11.8670    2.0490    1.0570 H   0  0  0  0  0  0  0  0  0  0  0  0
   10.2950    3.3380   -1.2840 H   0  0  0  0  0  0  0  0  0  0  0  0
   10.6510    1.6250   -1.0950 H   0  0  0  0  0  0  0  0  0  0  0  0
   10.2110    1.1480    1.7910 H   0  0  0  0  0  0  0  0  0  0  0  0
    8.4620    1.0880    1.9590 H   0  0  0  0  0  0  0  0  0  0  0  0
    9.2620    0.1990    0.6600 H   0  0  0  0  0  0  0  0  0  0  0  0
    8.9020    0.9790   -2.2110 H   0  0  0  0  0  0  0  0  0  0  0  0
    8.4010    0.0510   -0.8240 H   0  0  0  0  0  0  0  0  0  0  0  0
    6.6990    1.1550   -3.1240 H   0  0  0  0  0  0  0  0  0  0  0  0
    6.9190   -0.5220   -2.6740 H   0  0  0  0  0  0  0  0  0  0  0  0
    6.6080   -0.0970    0.5130 H   0  0  0  0  0  0  0  0  0  0  0  0
    4.9220   -0.4650    0.5190 H   0  0  0  0  0  0  0  0  0  0  0  0
    6.0400   -1.4170   -0.4890 H   0  0  0  0  0  0  0  0  0  0  0  0
    3.5620    0.7540   -3.8010 H   0  0  0  0  0  0  0  0  0  0  0  0
    2.0680   -2.3920   -2.7570 H   0  0  0  0  0  0  0  0  0  0  0  0
    1.7620   -0.6630   -2.8390 H   0  0  0  0  0  0  0  0  0  0  0  0
    2.8500   -1.4380   -4.0070 H   0  0  0  0  0  0  0  0  0  0  0  0
    3.1670   -3.8770   -1.0260 H   0  0  0  0  0  0  0  0  0  0  0  0
    4.8320   -3.3670   -0.7880 H   0  0  0  0  0  0  0  0  0  0  0  0
    4.2520   -2.7460    1.6470 H   0  0  0  0  0  0  0  0  0  0  0  0
    2.6480   -3.4260    1.4140 H   0  0  0  0  0  0  0  0  0  0  0  0
    5.2990   -5.0000    1.0390 H   0  0  0  0  0  0  0  0  0  0  0  0
    3.2310   -5.0190    3.3530 H   0  0  0  0  0  0  0  0  0  0  0  0
    4.6510   -6.0610    3.2330 H   0  0  0  0  0  0  0  0  0  0  0  0
    4.8500   -4.3230    3.4370 H   0  0  0  0  0  0  0  0  0  0  0  0
    2.3280   -5.9010    1.0050 H   0  0  0  0  0  0  0  0  0  0  0  0
    3.4930   -6.0370   -0.3180 H   0  0  0  0  0  0  0  0  0  0  0  0
    3.6940   -7.0090    1.1310 H   0  0  0  0  0  0  0  0  0  0  0  0
    0.0960    4.3360    0.1640 H   0  0  0  0  0  0  0  0  0  0  0  0
   -0.4560    3.7460   -1.4270 H   0  0  0  0  0  0  0  0  0  0  0  0
   -1.1020    3.2000    2.0830 H   0  0  0  0  0  0  0  0  0  0  0  0
   -5.8160    2.8630   -0.5720 H   0  0  0  0  0  0  0  0  0  0  0  0
   -5.7660    1.4890   -1.7090 H   0  0  0  0  0  0  0  0  0  0  0  0
   -8.6300    1.5580    1.7270 H   0  0  0  0  0  0  0  0  0  0  0  0
   -8.9310    3.9760    2.0730 H   0  0  0  0  0  0  0  0  0  0  0  0
   -7.7960    5.4390   -0.4460 H   0  0  0  0  0  0  0  0  0  0  0  0
   -8.7490    6.2920    0.7920 H   0  0  0  0  0  0  0  0  0  0  0  0
   -6.2890    5.9060    1.0670 H   0  0  0  0  0  0  0  0  0  0  0  0
  -10.9930    4.3400   -1.4160 H   0  0  0  0  0  0  0  0  0  0  0  0
  -11.0620    2.5760    1.6990 H   0  0  0  0  0  0  0  0  0  0  0  0
  -12.3490    2.0330   -0.5320 H   0  0  0  0  0  0  0  0  0  0  0  0
   -9.3240    2.2290   -1.7020 H   0  0  0  0  0  0  0  0  0  0  0  0
   -7.5360   -1.4690    0.8060 H   0  0  0  0  0  0  0  0  0  0  0  0
   -4.4270   -4.0960   -1.0970 H   0  0  0  0  0  0  0  0  0  0  0  0
   -3.4830   -6.1960   -1.9310 H   0  0  0  0  0  0  0  0  0  0  0  0
   -1.2830   -9.1440   -1.7530 H   0  0  0  0  0  0  0  0  0  0  0  0
   -2.9600   -8.5450   -1.5630 H   0  0  0  0  0  0  0  0  0  0  0  0
   -1.8370   -7.7330   -2.7150 H   0  0  0  0  0  0  0  0  0  0  0  0
    0.6240   -6.8230    3.0090 H   0  0  0  0  0  0  0  0  0  0  0  0
    0.3880   -5.0710    2.7460 H   0  0  0  0  0  0  0  0  0  0  0  0
   -0.9380   -6.0620    3.4450 H   0  0  0  0  0  0  0  0  0  0  0  0
   -1.7060   -4.0750    2.2340 H   0  0  0  0  0  0  0  0  0  0  0  0
   -1.1260   -2.6560   -2.4830 H   0  0  0  0  0  0  0  0  0  0  0  0
    0.5700   -3.0220   -2.1040 H   0  0  0  0  0  0  0  0  0  0  0  0
   -0.7470   -3.8620   -1.2360 H   0  0  0  0  0  0  0  0  0  0  0  0
  2  1  1  6
  2  3  1  0
  2 39  1  0
  2 85  1  0
  3  4  1  0
  4 91  1  6
  4 27  1  0
  4  5  1  0
  5  6  1  0
  5 92  1  0
  5 93  1  0
  6  7  1  6
  6 25  1  0
  6  8  1  0
  8 21  1  0
  8 10  1  0
  8  9  1  1
 10 94  1  0
 10 95  1  0
 10 11  1  0
 11 12  2  0
 11 96  1  0
 12 19  1  0
 12 13  1  0
 13 14  1  0
 13 97  1  0
 13 98  1  0
 14 17  1  0
 14 15  1  6
 14 16  1  0
 16 99  1  0
 17 18  1  0
 17100  1  0
 17101  1  0
 18102  1  0
 18103  1  0
 18 19  1  0
 19 21  1  0
 19 20  1  1
 20106  1  0
 20104  1  0
 20105  1  0
 21 23  1  0
 21 22  1  6
 23 24  1  0
 23107  1  0
 23108  1  0
 24109  1  0
 24110  1  0
 24 25  1  0
 25 27  1  0
 25 26  1  1
 26113  1  0
 26111  1  0
 26112  1  0
 27 28  1  6
 27 29  1  0
 28114  1  0
 29 31  1  0
 29 30  1  6
 29 32  1  0
 31117  1  0
 31116  1  0
 31115  1  0
 32 34  1  0
 32 33  2  0
 34118  1  0
 34119  1  0
 34 35  1  0
 35 36  1  0
 35121  1  0
 35120  1  0
 36 38  1  0
 36122  1  6
 36 37  1  0
 37124  1  0
 37123  1  0
 37125  1  0
 38127  1  0
 38126  1  0
 38128  1  0
 39 40  1  0
 40130  1  0
 40129  1  0
 40 41  1  0
 41 44  1  0
 41 42  1  1
 41 43  1  0
 43131  1  0
 44 45  1  6
 44 85  1  0
 44 46  1  0
 46 47  1  0
 47 48  1  6
 47 49  1  0
 47 70  1  0
 49 50  1  0
 50133  1  0
 50132  1  0
 50 51  1  0
 51 53  1  0
 51 67  1  0
 51 52  1  1
 53 54  1  0
 54 64  1  0
 54 55  1  0
 54134  1  1
 55 56  1  0
 56 59  1  0
 56 57  1  0
 56135  1  1
 57136  1  0
 57137  1  0
 57 58  1  0
 58138  1  0
 59 61  1  0
 59 62  1  0
 59 60  1  1
 61139  1  0
 62 64  1  0
 62 63  1  0
 62140  1  1
 63141  1  0
 64 66  1  0
 64 65  1  6
 66142  1  0
 67 68  1  6
 67 70  1  0
 67 69  1  0
 69143  1  0
 70 72  1  0
 70 71  1  1
 72 73  1  0
 73 75  1  0
 73 74  2  0
 75 76  2  0
 75 84  1  0
 76144  1  0
 76 77  1  0
 77145  1  0
 77 78  2  0
 78 79  1  0
 78 81  1  0
 79 80  1  0
 80148  1  0
 80146  1  0
 80147  1  0
 81 84  2  0
 81 82  1  0
 82 83  1  0
 83150  1  0
 83149  1  0
 83151  1  0
 84152  1  0
 85 87  1  0
 85 86  1  1
 87 88  1  0
 88 89  1  0
 88 90  2  0
 89153  1  0
 89154  1  0
 89155  1  0
M  END
>  <id>  (398) 
500

>  <scaffolds>  (398) 
['c1ccccc1', 'C1=C2CCCCC2C2CCC3CCCC3C2C1', 'C1=CCCCC1', 'C1=CCC2CCCCC2C1', 'C1=C2CCCCC2C2CCC3CC(OC4CCCCO4)CC3C2C1', 'C1CCOCC1', 'C1CCCCC1', 'O=C(OC1CC(OC2CCCCO2)COC1OC1CCOC(OC2CC3CCC4C5CCCCC5=CCC4C3C2)C1)c1ccccc1', 'O=C(OC1CCCOC1OC1CCOC(OC2CC3CCC4C5CCCCC5=CCC4C3C2)C1)c1ccccc1', 'C1=C2CCCCC2C2CCC3CC(OC4CC(OC5CCCCO5)CCO4)CC3C2C1', 'C1=C2CCCCC2CCC1', 'C1CCC(OC2CCCOC2)OC1']

>  <name>  (398) 
3[beta],17[alpha]-dihydroxy-16[beta]-[(O-[beta]-D-glucopyranosyl-(1[to]4)-O-(2-O-3,4-dimethoxybenzoyl-[beta]-D-xylopyranosyl)-(1[to]3)-2-O-acetyl-[alpha]-L-arabinopyranosyl)oxy]cholest-5-en-22-one

>  <formula>  (398) 
C54H80O21

>  <SMILES>  (398) 
[H][C@@]8(OC4C[C@@]3([H])[C@]2([H])CC=C1C[C@@H](O)CC[C@]1(C)[C@@]2([H])CC[C@]3(C)[C@@]4(O)[C@H](C)C(=O)CCC(C)C)OC[C@H](O)[C@H](O[C@]6([H])OC[C@@H](OC5OC(CO)[C@@H](O)C(O)[C@H]5O)[C@H](O)[C@H]6OC(=O)c7ccc(OC)c(OC)c7)[C@H]8OC(C)=O

>  <ChEMBL_id>  (398) 


>  <ZINC_id>  (398) 


>  <PubChem_id>  (398) 


>  <DrugBank_id>  (398) 


>  <CAS_no>  (398) 
319924-37-3

>  <references>  (398) 
[{'journal': {'name': 'Journal of Natural Products', 'id': 5}, 'title': 'Cytotoxic Cholestane Glycosides from the Bulbs of Ornithogalum saundersiae', 'year': 2001, 'start_page': 88, 'volume': 64, 'issue': 1, 'doi': '10.1021/np0003084', 'isbn': '', 'despositor': {'code': 'NFA', 'first_name': 'Ngonidzashe', 'last_name': 'Faya', 'id': 21}, 'refauthors_set': [{'author': {'first_name': 'Minpei', 'initials': 'M', 'last_name': 'Kuroda', 'id': 644}, 'first_author': True, 'id': 1030}, {'author': {'first_name': 'Yoshihiro ', 'initials': 'Y', 'last_name': 'Mimaki', 'id': 643}, 'first_author': None, 'id': 1195}, {'author': {'first_name': 'Akihito ', 'initials': 'A', 'last_name': 'Yokosuka', 'id': 650}, 'first_author': None, 'id': 1196}, {'author': {'first_name': 'Yutaka', 'initials': 'Y', 'last_name': 'Sashida', 'id': 645}, 'first_author': None, 'id': 1197}, {'author': {'first_name': 'John', 'initials': 'JA', 'last_name': 'Beutler', 'id': 710}, 'first_author': None, 'id': 1198}], 'id': 340}]

>  <classifications>  (398) 
[{'classification': 'Cholestane', 'id': 761}, {'classification': 'Glycoside', 'id': 781}, {'classification': 'Steroids and steroid derivatives (Classyfire)', 'id': 942}]

>  <molecular_mass>  (398) 
1065.2

$$$$
SANC00501_minRM1.pdb
     RDKit          3D

159166  0  0  1  0  0  0  0  0999 V2000
   -7.4960    3.8950   -0.3270 H   0  0  0  0  0  0  0  0  0  0  0  0
   -8.0660    2.9240   -0.2980 C   0  0  2  0  0  0  0  0  0  0  0  0
   -7.3120    1.8320   -0.7410 O   0  0  0  0  0  0  0  0  0  0  0  0
   -6.0100    1.7500   -0.2130 C   0  0  2  0  0  0  0  0  0  0  0  0
   -5.9010    2.2320    0.7950 H   0  0  0  0  0  0  0  0  0  0  0  0
   -5.0500    2.3910   -1.2330 C   0  0  0  0  0  0  0  0  0  0  0  0
   -3.7250    2.2020   -0.8240 O   0  0  0  0  0  0  0  0  0  0  0  0
   -3.3450    0.8450   -0.7720 C   0  0  1  0  0  0  0  0  0  0  0  0
   -3.3770    0.3710   -1.7940 H   0  0  0  0  0  0  0  0  0  0  0  0
   -2.0660    0.8700   -0.2140 O   0  0  0  0  0  0  0  0  0  0  0  0
   -1.0720    1.5100   -0.9720 C   0  0  1  0  0  0  0  0  0  0  0  0
   -1.3690    1.6890   -2.0410 H   0  0  0  0  0  0  0  0  0  0  0  0
   -0.7370    2.8660   -0.3110 C   0  0  1  0  0  0  0  0  0  0  0  0
   -1.6050    3.5740   -0.3970 H   0  0  0  0  0  0  0  0  0  0  0  0
   -0.4520    2.5790    1.0210 O   0  0  0  0  0  0  0  0  0  0  0  0
    0.4910    3.4480   -1.0420 C   0  0  0  0  0  0  0  0  0  0  0  0
    1.5840    2.5810   -0.9490 O   0  0  0  0  0  0  0  0  0  0  0  0
    1.3700    1.3290   -1.5580 C   0  0  1  0  0  0  0  0  0  0  0  0
    1.2350    1.4380   -2.6730 H   0  0  0  0  0  0  0  0  0  0  0  0
    2.4940    0.5740   -1.2080 O   0  0  0  0  0  0  0  0  0  0  0  0
    3.7190    1.0350   -1.7060 C   0  0  1  0  0  0  0  0  0  0  0  0
    3.5820    1.5630   -2.6920 H   0  0  0  0  0  0  0  0  0  0  0  0
    4.4080    2.0130   -0.7300 C   0  0  0  0  0  0  0  0  0  0  0  0
    5.8820    1.7570   -1.0170 C   0  0  1  0  0  0  0  0  0  0  0  0
    6.1040    2.1660   -2.0410 H   0  0  0  0  0  0  0  0  0  0  0  0
    6.9000    2.3380   -0.0460 C   0  0  2  0  0  0  0  0  0  0  0  0
    6.7210    1.9320    0.9830 H   0  0  0  0  0  0  0  0  0  0  0  0
    6.7760    3.8600    0.0070 C   0  0  0  0  0  0  0  0  0  0  0  0
    7.9250    4.4750    0.7190 C   0  0  0  0  0  0  0  0  0  0  0  0
    9.0790    3.8480    0.9490 C   0  0  0  0  0  0  0  0  0  0  0  0
   10.1510    4.5270    1.7360 C   0  0  0  0  0  0  0  0  0  0  0  0
   11.4970    4.4360    1.0050 C   0  0  1  0  0  0  0  0  0  0  0  0
   11.4420    5.0040    0.0350 H   0  0  0  0  0  0  0  0  0  0  0  0
   12.5340    4.9210    1.8110 O   0  0  0  0  0  0  0  0  0  0  0  0
   11.8420    2.9680    0.7410 C   0  0  0  0  0  0  0  0  0  0  0  0
   10.7510    2.3430   -0.1160 C   0  0  0  0  0  0  0  0  0  0  0  0
    9.3550    2.4350    0.5220 C   0  0  1  0  0  0  0  0  0  0  0  0
    9.2950    1.5590    1.7770 C   0  0  0  0  0  0  0  0  0  0  0  0
    8.3120    1.9740   -0.5300 C   0  0  1  0  0  0  0  0  0  0  0  0
    8.4940    2.5460   -1.4780 H   0  0  0  0  0  0  0  0  0  0  0  0
    8.4780    0.4840   -0.8590 C   0  0  0  0  0  0  0  0  0  0  0  0
    7.3350   -0.1070   -1.6850 C   0  0  0  0  0  0  0  0  0  0  0  0
    5.9820    0.2230   -1.0530 C   0  0  1  0  0  0  0  0  0  0  0  0
    5.9280   -0.3860    0.3440 C   0  0  0  0  0  0  0  0  0  0  0  0
    4.7130   -0.1790   -1.8890 C   0  0  2  0  0  0  0  0  0  0  0  0
    5.1570   -0.1540   -3.2190 O   0  0  0  0  0  0  0  0  0  0  0  0
    4.1980   -1.6130   -1.6110 C   0  0  2  0  0  0  0  0  0  0  0  0
    5.1010   -2.2700   -1.7360 H   0  0  0  0  0  0  0  0  0  0  0  0
    3.1450   -2.0620   -2.6230 C   0  0  0  0  0  0  0  0  0  0  0  0
    3.5810   -1.8870   -0.2510 C   0  0  0  0  0  0  0  0  0  0  0  0
    2.8240   -1.1220    0.3110 O   0  0  0  0  0  0  0  0  0  0  0  0
    3.8840   -3.2500    0.3450 C   0  0  0  0  0  0  0  0  0  0  0  0
    3.5720   -3.2760    1.8380 C   0  0  0  0  0  0  0  0  0  0  0  0
    4.0410   -4.5690    2.5100 C   0  0  1  0  0  0  0  0  0  0  0  0
    3.8370   -4.4500    4.0180 C   0  0  0  0  0  0  0  0  0  0  0  0
    3.2710   -5.7760    1.9870 C   0  0  0  0  0  0  0  0  0  0  0  0
    0.1710    0.5890   -0.8940 C   0  0  2  0  0  0  0  0  0  0  0  0
    0.4160    0.3130    0.1700 H   0  0  0  0  0  0  0  0  0  0  0  0
   -0.1020   -0.5000   -1.7470 O   0  0  0  0  0  0  0  0  0  0  0  0
   -0.3690   -1.7270   -1.2170 C   0  0  0  0  0  0  0  0  0  0  0  0
   -0.7830   -2.6810   -2.2910 C   0  0  0  0  0  0  0  0  0  0  0  0
   -0.2500   -1.9560   -0.0370 O   0  0  0  0  0  0  0  0  0  0  0  0
   -4.2150    0.0780    0.2650 C   0  0  2  0  0  0  0  0  0  0  0  0
   -4.0170    0.4650    1.3040 H   0  0  0  0  0  0  0  0  0  0  0  0
   -3.8720   -1.2720    0.0750 O   0  0  0  0  0  0  0  0  0  0  0  0
   -3.8060   -2.1040    1.1470 C   0  0  0  0  0  0  0  0  0  0  0  0
   -4.0540   -1.7120    2.2670 O   0  0  0  0  0  0  0  0  0  0  0  0
   -3.3820   -3.4650    0.7570 C   0  0  0  0  0  0  0  0  0  0  0  0
   -3.7780   -4.0150   -0.4570 C   0  0  0  0  0  0  0  0  0  0  0  0
   -3.3420   -5.2990   -0.7740 C   0  0  0  0  0  0  0  0  0  0  0  0
   -3.5770   -5.9410   -1.9520 O   0  0  0  0  0  0  0  0  0  0  0  0
   -4.6430   -5.4580   -2.7340 C   0  0  0  0  0  0  0  0  0  0  0  0
   -2.5470   -6.0240    0.1230 C   0  0  0  0  0  0  0  0  0  0  0  0
   -2.2390   -7.3270   -0.1530 O   0  0  0  0  0  0  0  0  0  0  0  0
   -0.9460   -7.4640   -0.7050 C   0  0  0  0  0  0  0  0  0  0  0  0
   -2.1560   -5.4370    1.3340 C   0  0  0  0  0  0  0  0  0  0  0  0
   -1.3630   -6.2340    2.0970 O   0  0  0  0  0  0  0  0  0  0  0  0
   -0.8980   -5.6990    3.3140 C   0  0  0  0  0  0  0  0  0  0  0  0
   -2.5730   -4.1490    1.6590 C   0  0  0  0  0  0  0  0  0  0  0  0
   -5.7080    0.2360   -0.1130 C   0  0  1  0  0  0  0  0  0  0  0  0
   -5.9340   -0.2780   -1.0860 H   0  0  0  0  0  0  0  0  0  0  0  0
   -6.4060   -0.3520    0.9430 O   0  0  0  0  0  0  0  0  0  0  0  0
   -8.4460    2.5560    1.0050 O   0  0  0  0  0  0  0  0  0  0  0  0
   -9.2690    3.5170    1.6210 C   0  0  2  0  0  0  0  0  0  0  0  0
   -8.7720    4.5230    1.6610 H   0  0  0  0  0  0  0  0  0  0  0  0
   -9.4970    2.9870    3.0540 C   0  0  0  0  0  0  0  0  0  0  0  0
   -8.2870    3.1360    3.7320 O   0  0  0  0  0  0  0  0  0  0  0  0
  -10.6080    3.5970    0.8480 C   0  0  1  0  0  0  0  0  0  0  0  0
  -11.1430    2.6110    0.8820 H   0  0  0  0  0  0  0  0  0  0  0  0
  -11.3330    4.6090    1.4730 O   0  0  0  0  0  0  0  0  0  0  0  0
  -10.3050    3.9930   -0.6220 C   0  0  2  0  0  0  0  0  0  0  0  0
   -9.8720    5.0280   -0.6690 H   0  0  0  0  0  0  0  0  0  0  0  0
  -11.5290    3.9220   -1.2770 O   0  0  0  0  0  0  0  0  0  0  0  0
   -9.3190    2.9600   -1.2140 C   0  0  1  0  0  0  0  0  0  0  0  0
   -9.8000    1.9470   -1.2710 H   0  0  0  0  0  0  0  0  0  0  0  0
   -8.9660    3.4530   -2.4680 O   0  0  0  0  0  0  0  0  0  0  0  0
   -5.2310    2.0140   -2.2630 H   0  0  0  0  0  0  0  0  0  0  0  0
   -5.1620    3.4940   -1.2740 H   0  0  0  0  0  0  0  0  0  0  0  0
   -0.1210    3.3810    1.4310 H   0  0  0  0  0  0  0  0  0  0  0  0
    0.2400    3.7000   -2.0980 H   0  0  0  0  0  0  0  0  0  0  0  0
    0.8560    4.3880   -0.5770 H   0  0  0  0  0  0  0  0  0  0  0  0
    4.1100    3.0640   -0.9150 H   0  0  0  0  0  0  0  0  0  0  0  0
    4.1250    1.8290    0.3240 H   0  0  0  0  0  0  0  0  0  0  0  0
    6.7070    4.3020   -1.0120 H   0  0  0  0  0  0  0  0  0  0  0  0
    5.8240    4.1520    0.5000 H   0  0  0  0  0  0  0  0  0  0  0  0
    7.7600    5.5030    1.0550 H   0  0  0  0  0  0  0  0  0  0  0  0
    9.9020    5.5900    1.9430 H   0  0  0  0  0  0  0  0  0  0  0  0
   10.2190    4.0710    2.7480 H   0  0  0  0  0  0  0  0  0  0  0  0
   12.3550    5.8450    1.9900 H   0  0  0  0  0  0  0  0  0  0  0  0
   12.8270    2.8880    0.2330 H   0  0  0  0  0  0  0  0  0  0  0  0
   11.9860    2.4160    1.6930 H   0  0  0  0  0  0  0  0  0  0  0  0
   10.7480    2.8290   -1.1160 H   0  0  0  0  0  0  0  0  0  0  0  0
   11.0130    1.2820   -0.3180 H   0  0  0  0  0  0  0  0  0  0  0  0
   10.1230    1.7470    2.4740 H   0  0  0  0  0  0  0  0  0  0  0  0
    8.3720    1.7140    2.3530 H   0  0  0  0  0  0  0  0  0  0  0  0
    9.3390    0.4830    1.5370 H   0  0  0  0  0  0  0  0  0  0  0  0
    9.4230    0.3350   -1.4260 H   0  0  0  0  0  0  0  0  0  0  0  0
    8.6400   -0.1180    0.0630 H   0  0  0  0  0  0  0  0  0  0  0  0
    7.4120    0.2770   -2.7250 H   0  0  0  0  0  0  0  0  0  0  0  0
    7.4620   -1.2040   -1.7920 H   0  0  0  0  0  0  0  0  0  0  0  0
    6.6560    0.0650    1.0390 H   0  0  0  0  0  0  0  0  0  0  0  0
    4.9710   -0.2440    0.8560 H   0  0  0  0  0  0  0  0  0  0  0  0
    6.1580   -1.4600    0.3380 H   0  0  0  0  0  0  0  0  0  0  0  0
    4.4000   -0.2510   -3.8050 H   0  0  0  0  0  0  0  0  0  0  0  0
    2.2840   -1.3810   -2.6840 H   0  0  0  0  0  0  0  0  0  0  0  0
    3.5490   -2.1650   -3.6410 H   0  0  0  0  0  0  0  0  0  0  0  0
    2.7360   -3.0540   -2.3750 H   0  0  0  0  0  0  0  0  0  0  0  0
    3.2810   -4.0030   -0.2030 H   0  0  0  0  0  0  0  0  0  0  0  0
    4.9380   -3.5400    0.1620 H   0  0  0  0  0  0  0  0  0  0  0  0
    4.0530   -2.4010    2.3290 H   0  0  0  0  0  0  0  0  0  0  0  0
    2.4850   -3.1220    2.0050 H   0  0  0  0  0  0  0  0  0  0  0  0
    5.1330   -4.7190    2.3080 H   0  0  0  0  0  0  0  0  0  0  0  0
    2.7800   -4.3020    4.2850 H   0  0  0  0  0  0  0  0  0  0  0  0
    4.1750   -5.3490    4.5540 H   0  0  0  0  0  0  0  0  0  0  0  0
    4.3920   -3.6040    4.4470 H   0  0  0  0  0  0  0  0  0  0  0  0
    3.4740   -5.9790    0.9270 H   0  0  0  0  0  0  0  0  0  0  0  0
    3.5350   -6.6970    2.5280 H   0  0  0  0  0  0  0  0  0  0  0  0
    2.1830   -5.6550    2.0870 H   0  0  0  0  0  0  0  0  0  0  0  0
   -0.0120   -2.7730   -3.0700 H   0  0  0  0  0  0  0  0  0  0  0  0
   -0.9700   -3.6810   -1.8790 H   0  0  0  0  0  0  0  0  0  0  0  0
   -1.7090   -2.3500   -2.7800 H   0  0  0  0  0  0  0  0  0  0  0  0
   -4.4050   -3.4360   -1.1350 H   0  0  0  0  0  0  0  0  0  0  0  0
   -4.7750   -6.2390   -3.5000 H   0  0  0  0  0  0  0  0  0  0  0  0
   -5.5870   -5.3350   -2.1800 H   0  0  0  0  0  0  0  0  0  0  0  0
   -4.3930   -4.5120   -3.2420 H   0  0  0  0  0  0  0  0  0  0  0  0
   -0.8490   -8.5470   -0.8720 H   0  0  0  0  0  0  0  0  0  0  0  0
   -0.8330   -6.9380   -1.6660 H   0  0  0  0  0  0  0  0  0  0  0  0
   -0.1450   -7.1360   -0.0230 H   0  0  0  0  0  0  0  0  0  0  0  0
   -0.2770   -6.5150    3.7230 H   0  0  0  0  0  0  0  0  0  0  0  0
   -0.2580   -4.8120    3.1820 H   0  0  0  0  0  0  0  0  0  0  0  0
   -1.7040   -5.4640    4.0250 H   0  0  0  0  0  0  0  0  0  0  0  0
   -2.2800   -3.6610    2.5940 H   0  0  0  0  0  0  0  0  0  0  0  0
   -7.3470   -0.1300    0.8570 H   0  0  0  0  0  0  0  0  0  0  0  0
  -10.2580    3.6140    3.5710 H   0  0  0  0  0  0  0  0  0  0  0  0
   -9.8950    1.9500    3.0440 H   0  0  0  0  0  0  0  0  0  0  0  0
   -8.0500    2.2810    4.0990 H   0  0  0  0  0  0  0  0  0  0  0  0
  -12.1890    4.6630    1.0430 H   0  0  0  0  0  0  0  0  0  0  0  0
  -11.3970    4.2200   -2.1830 H   0  0  0  0  0  0  0  0  0  0  0  0
   -8.4560    2.7700   -2.9160 H   0  0  0  0  0  0  0  0  0  0  0  0
  2  1  1  1
  2 94  1  0
  2  3  1  0
  2 83  1  0
  3  4  1  0
  4  6  1  0
  4 80  1  0
  4  5  1  1
  6 97  1  0
  6 98  1  0
  6  7  1  0
  7  8  1  0
  8  9  1  6
  8 10  1  0
  8 63  1  0
 10 11  1  0
 11 12  1  6
 11 57  1  0
 11 13  1  0
 13 16  1  0
 13 14  1  1
 13 15  1  0
 15 99  1  0
 16100  1  0
 16 17  1  0
 16101  1  0
 17 18  1  0
 18 19  1  6
 18 20  1  0
 18 57  1  0
 20 21  1  0
 21 22  1  6
 21 45  1  0
 21 23  1  0
 23 24  1  0
 23102  1  0
 23103  1  0
 24 25  1  6
 24 43  1  0
 24 26  1  0
 26 39  1  0
 26 28  1  0
 26 27  1  1
 28104  1  0
 28105  1  0
 28 29  1  0
 29 30  2  0
 29106  1  0
 30 37  1  0
 30 31  1  0
 31 32  1  0
 31107  1  0
 31108  1  0
 32 33  1  6
 32 35  1  0
 32 34  1  0
 34109  1  0
 35 36  1  0
 35110  1  0
 35111  1  0
 36112  1  0
 36113  1  0
 36 37  1  0
 37 39  1  0
 37 38  1  1
 38116  1  0
 38115  1  0
 38114  1  0
 39 40  1  6
 39 41  1  0
 41 42  1  0
 41117  1  0
 41118  1  0
 42119  1  0
 42120  1  0
 42 43  1  0
 43 45  1  0
 43 44  1  1
 44123  1  0
 44122  1  0
 44121  1  0
 45 46  1  6
 45 47  1  0
 46124  1  0
 47 49  1  0
 47 48  1  6
 47 50  1  0
 49126  1  0
 49125  1  0
 49127  1  0
 50 51  2  0
 50 52  1  0
 52128  1  0
 52129  1  0
 52 53  1  0
 53131  1  0
 53130  1  0
 53 54  1  0
 54 56  1  0
 54132  1  1
 54 55  1  0
 55133  1  0
 55135  1  0
 55134  1  0
 56136  1  0
 56138  1  0
 56137  1  0
 57 59  1  0
 57 58  1  1
 59 60  1  0
 60 61  1  0
 60 62  2  0
 61139  1  0
 61141  1  0
 61140  1  0
 63 80  1  0
 63 65  1  0
 63 64  1  1
 65 66  1  0
 66 68  1  0
 66 67  2  0
 68 69  2  0
 68 79  1  0
 69142  1  0
 69 70  1  0
 70 71  1  0
 70 73  2  0
 71 72  1  0
 72143  1  0
 72145  1  0
 72144  1  0
 73 74  1  0
 73 76  1  0
 74 75  1  0
 75147  1  0
 75146  1  0
 75148  1  0
 76 79  2  0
 76 77  1  0
 77 78  1  0
 78150  1  0
 78149  1  0
 78151  1  0
 79152  1  0
 80 81  1  6
 80 82  1  0
 82153  1  0
 83 84  1  0
 84 88  1  0
 84 85  1  1
 84 86  1  0
 86155  1  0
 86154  1  0
 86 87  1  0
 87156  1  0
 88 91  1  0
 88 89  1  6
 88 90  1  0
 90157  1  0
 91 93  1  0
 91 94  1  0
 91 92  1  1
 93158  1  0
 94 96  1  0
 94 95  1  6
 96159  1  0
M  END
>  <id>  (399) 
501

>  <scaffolds>  (399) 
['c1ccccc1', 'C1=C2CCCCC2C2CCC3CCCC3C2C1', 'C1=CCCCC1', 'C1=CCC2CCCCC2C1', 'C1=C2CCCCC2C2CCC3CC(OC4CCCCO4)CC3C2C1', 'C1CCOCC1', 'C1CCCCC1', 'O=C(OC1CC(OC2CCCCO2)COC1OC1CCOC(OC2CC3CCC4C5CCCCC5=CCC4C3C2)C1)c1ccccc1', 'O=C(OC1CCCOC1OC1CCOC(OC2CC3CCC4C5CCCCC5=CCC4C3C2)C1)c1ccccc1', 'C1=C2CCCCC2C2CCC3CC(OC4CC(OC5CCCCO5)CCO4)CC3C2C1', 'C1=C2CCCCC2CCC1', 'C1CCC(OC2CCCOC2)OC1']

>  <name>  (399) 
3[beta],17[alpha]-dihydroxy-16[beta]-[(O-[beta]-D-glucopyranosyl-(1[to]4)-O-(2-O-3,4,5-trimethoxybenzoyl-[beta]-D-xylopyranosyl)-(1[to]3)-2-O-acetyl-[alpha]-L-arabinopyranosyl)oxy]cholest-5-en-22-one

>  <formula>  (399) 
C55H82O22

>  <SMILES>  (399) 
[H][C@@]8(O[C@@H]7CO[C@@]([H])(O[C@H]5[C@@H](O)CO[C@@]([H])(O[C@H]4C[C@@]3([H])[C@]2([H])CC=C1C[C@@H](O)CC[C@]1(C)[C@@]2([H])CC[C@]3(C)[C@@]4(O)[C@H](C)C(=O)CCC(C)C)[C@@H]5OC(C)=O)[C@H](OC(=O)c6cc(OC)c(OC)c(OC)c6)[C@H]7O)O[C@H](CO)[C@@H](O)[C@H](O)[C@H]8O

>  <ChEMBL_id>  (399) 


>  <ZINC_id>  (399) 


>  <PubChem_id>  (399) 


>  <DrugBank_id>  (399) 


>  <CAS_no>  (399) 
319924-38-4

>  <references>  (399) 
[{'journal': {'name': 'Journal of Natural Products', 'id': 5}, 'title': 'Cytotoxic Cholestane Glycosides from the Bulbs of Ornithogalum saundersiae', 'year': 2001, 'start_page': 88, 'volume': 64, 'issue': 1, 'doi': '10.1021/np0003084', 'isbn': '', 'despositor': {'code': 'NFA', 'first_name': 'Ngonidzashe', 'last_name': 'Faya', 'id': 21}, 'refauthors_set': [{'author': {'first_name': 'Minpei', 'initials': 'M', 'last_name': 'Kuroda', 'id': 644}, 'first_author': True, 'id': 1030}, {'author': {'first_name': 'Yoshihiro ', 'initials': 'Y', 'last_name': 'Mimaki', 'id': 643}, 'first_author': None, 'id': 1195}, {'author': {'first_name': 'Akihito ', 'initials': 'A', 'last_name': 'Yokosuka', 'id': 650}, 'first_author': None, 'id': 1196}, {'author': {'first_name': 'Yutaka', 'initials': 'Y', 'last_name': 'Sashida', 'id': 645}, 'first_author': None, 'id': 1197}, {'author': {'first_name': 'John', 'initials': 'JA', 'last_name': 'Beutler', 'id': 710}, 'first_author': None, 'id': 1198}], 'id': 340}]

>  <classifications>  (399) 
[{'classification': 'Cholestane', 'id': 761}, {'classification': 'Glycoside', 'id': 781}, {'classification': 'Steroids and steroid derivatives (Classyfire)', 'id': 942}]

>  <molecular_mass>  (399) 
1095.22

$$$$
SANC00502_minRM1.pdb
     RDKit          3D

159166  0  0  1  0  0  0  0  0999 V2000
   10.0960    1.4050   -0.4220 H   0  0  0  0  0  0  0  0  0  0  0  0
   10.8480    0.5860   -0.2180 C   0  0  2  0  0  0  0  0  0  0  0  0
   10.3230   -0.4870    0.5030 O   0  0  0  0  0  0  0  0  0  0  0  0
    9.0440   -0.9220    0.0750 C   0  0  1  0  0  0  0  0  0  0  0  0
    9.0600   -1.2110   -1.0080 H   0  0  0  0  0  0  0  0  0  0  0  0
    8.7270   -2.1320    0.9560 C   0  0  0  0  0  0  0  0  0  0  0  0
    7.3390   -2.6500    0.6080 C   0  0  0  0  0  0  0  0  0  0  0  0
    6.2390   -1.5920    0.7830 C   0  0  1  0  0  0  0  0  0  0  0  0
    6.0760   -1.2500    2.2660 C   0  0  0  0  0  0  0  0  0  0  0  0
    6.6290   -0.3290    0.0730 C   0  0  0  0  0  0  0  0  0  0  0  0
    5.7980    0.3760   -0.6950 C   0  0  0  0  0  0  0  0  0  0  0  0
    4.3830    0.0020   -0.9330 C   0  0  0  0  0  0  0  0  0  0  0  0
    3.8930   -1.0160    0.0960 C   0  0  2  0  0  0  0  0  0  0  0  0
    3.7870   -0.5130    1.0920 H   0  0  0  0  0  0  0  0  0  0  0  0
    4.9160   -2.1540    0.1970 C   0  0  2  0  0  0  0  0  0  0  0  0
    5.1180   -2.5250   -0.8430 H   0  0  0  0  0  0  0  0  0  0  0  0
    4.3930   -3.3410    1.0160 C   0  0  0  0  0  0  0  0  0  0  0  0
    2.9860   -3.7880    0.6180 C   0  0  0  0  0  0  0  0  0  0  0  0
    2.0200   -2.6090    0.6660 C   0  0  1  0  0  0  0  0  0  0  0  0
    1.9410   -2.0460    2.0830 C   0  0  0  0  0  0  0  0  0  0  0  0
    2.5470   -1.5770   -0.3420 C   0  0  1  0  0  0  0  0  0  0  0  0
    2.6710   -2.0630   -1.3470 H   0  0  0  0  0  0  0  0  0  0  0  0
    1.4200   -0.5560   -0.4290 C   0  0  0  0  0  0  0  0  0  0  0  0
    0.1260   -1.3940   -0.3230 C   0  0  2  0  0  0  0  0  0  0  0  0
   -0.3880   -1.4320   -1.3200 H   0  0  0  0  0  0  0  0  0  0  0  0
   -0.8190   -0.9130    0.6040 O   0  0  0  0  0  0  0  0  0  0  0  0
   -1.0100    0.4700    0.6190 C   0  0  2  0  0  0  0  0  0  0  0  0
   -0.6200    1.0130   -0.2910 H   0  0  0  0  0  0  0  0  0  0  0  0
   -0.3240    0.8420    1.7950 O   0  0  0  0  0  0  0  0  0  0  0  0
   -0.4130    2.2040    2.0930 C   0  0  0  0  0  0  0  0  0  0  0  0
   -1.8800    2.6260    2.3310 C   0  0  2  0  0  0  0  0  0  0  0  0
   -1.9260    3.7290    2.5320 H   0  0  0  0  0  0  0  0  0  0  0  0
   -2.4530    1.8930    3.3670 O   0  0  0  0  0  0  0  0  0  0  0  0
   -2.6810    2.2660    1.0580 C   0  0  2  0  0  0  0  0  0  0  0  0
   -2.2700    2.8530    0.1920 H   0  0  0  0  0  0  0  0  0  0  0  0
   -4.0460    2.5000    1.2870 O   0  0  0  0  0  0  0  0  0  0  0  0
   -4.5560    3.6580    0.6900 C   0  0  2  0  0  0  0  0  0  0  0  0
   -4.3830    3.7040   -0.4240 H   0  0  0  0  0  0  0  0  0  0  0  0
   -3.8920    4.7050    1.3610 O   0  0  0  0  0  0  0  0  0  0  0  0
   -4.3430    5.9760    0.9970 C   0  0  0  0  0  0  0  0  0  0  0  0
   -5.8290    6.1350    1.3860 C   0  0  1  0  0  0  0  0  0  0  0  0
   -5.9590    6.0360    2.4980 H   0  0  0  0  0  0  0  0  0  0  0  0
   -6.3150    7.3480    0.8930 O   0  0  0  0  0  0  0  0  0  0  0  0
   -6.6490    5.0460    0.6520 C   0  0  2  0  0  0  0  0  0  0  0  0
   -6.5930    5.1970   -0.4620 H   0  0  0  0  0  0  0  0  0  0  0  0
   -7.9650    5.0290    1.1060 O   0  0  0  0  0  0  0  0  0  0  0  0
   -6.0690    3.6670    1.0480 C   0  0  1  0  0  0  0  0  0  0  0  0
   -6.2240    3.4540    2.1410 H   0  0  0  0  0  0  0  0  0  0  0  0
   -6.6300    2.7130    0.1820 O   0  0  0  0  0  0  0  0  0  0  0  0
   -7.6840    1.9600    0.5970 C   0  0  0  0  0  0  0  0  0  0  0  0
   -8.1140    2.0390    1.7290 O   0  0  0  0  0  0  0  0  0  0  0  0
   -8.1680    1.0670   -0.4780 C   0  0  0  0  0  0  0  0  0  0  0  0
   -8.1470    1.4830   -1.8040 C   0  0  0  0  0  0  0  0  0  0  0  0
   -8.6350    0.6120   -2.7790 C   0  0  0  0  0  0  0  0  0  0  0  0
   -8.6380    0.8460   -4.1200 O   0  0  0  0  0  0  0  0  0  0  0  0
   -8.3120    2.1450   -4.5420 C   0  0  0  0  0  0  0  0  0  0  0  0
   -9.1580   -0.6350   -2.4180 C   0  0  0  0  0  0  0  0  0  0  0  0
   -9.7640   -1.4130   -3.3620 O   0  0  0  0  0  0  0  0  0  0  0  0
   -8.8970   -2.3920   -3.8880 C   0  0  0  0  0  0  0  0  0  0  0  0
   -9.1480   -1.0310   -1.0740 C   0  0  0  0  0  0  0  0  0  0  0  0
   -9.6340   -2.2790   -0.8670 O   0  0  0  0  0  0  0  0  0  0  0  0
   -9.7940   -2.6980    0.4660 C   0  0  0  0  0  0  0  0  0  0  0  0
   -8.6510   -0.1770   -0.0900 C   0  0  0  0  0  0  0  0  0  0  0  0
   -2.5340    0.7460    0.7940 C   0  0  1  0  0  0  0  0  0  0  0  0
   -2.9640    0.1360    1.6320 H   0  0  0  0  0  0  0  0  0  0  0  0
   -3.0990    0.5110   -0.4760 O   0  0  0  0  0  0  0  0  0  0  0  0
   -4.2100   -0.2690   -0.5910 C   0  0  0  0  0  0  0  0  0  0  0  0
   -4.6800   -0.3430   -2.0070 C   0  0  0  0  0  0  0  0  0  0  0  0
   -4.7030   -0.8190    0.3710 O   0  0  0  0  0  0  0  0  0  0  0  0
    0.5750   -2.8430    0.1310 C   0  0  1  0  0  0  0  0  0  0  0  0
    0.7080   -3.6310   -1.0080 O   0  0  0  0  0  0  0  0  0  0  0  0
   -0.4100   -3.5040    1.1160 C   0  0  2  0  0  0  0  0  0  0  0  0
   -0.4640   -2.9110    2.0620 H   0  0  0  0  0  0  0  0  0  0  0  0
   -0.0030   -4.9360    1.4360 C   0  0  0  0  0  0  0  0  0  0  0  0
   -1.7960   -3.5680    0.5040 C   0  0  0  0  0  0  0  0  0  0  0  0
   -1.9320   -3.5990   -0.7100 O   0  0  0  0  0  0  0  0  0  0  0  0
   -2.9640   -3.5980    1.4490 C   0  0  0  0  0  0  0  0  0  0  0  0
   -4.1500   -4.3490    0.8520 C   0  0  0  0  0  0  0  0  0  0  0  0
   -5.3570   -4.3430    1.7960 C   0  0  1  0  0  0  0  0  0  0  0  0
   -6.5720   -4.9050    1.0620 C   0  0  0  0  0  0  0  0  0  0  0  0
   -5.0910   -5.1790    3.0420 C   0  0  0  0  0  0  0  0  0  0  0  0
    8.0080    0.1780    0.3250 C   0  0  0  0  0  0  0  0  0  0  0  0
   11.3280   -0.0000   -1.4050 O   0  0  0  0  0  0  0  0  0  0  0  0
   11.9480    0.9330   -2.2520 C   0  0  2  0  0  0  0  0  0  0  0  0
   11.2580    1.7810   -2.5160 H   0  0  0  0  0  0  0  0  0  0  0  0
   12.3170    0.1430   -3.5260 C   0  0  0  0  0  0  0  0  0  0  0  0
   11.1220   -0.1260   -4.1970 O   0  0  0  0  0  0  0  0  0  0  0  0
   13.2260    1.4710   -1.5560 C   0  0  1  0  0  0  0  0  0  0  0  0
   13.9500    0.6330   -1.3620 H   0  0  0  0  0  0  0  0  0  0  0  0
   13.7510    2.4240   -2.4260 O   0  0  0  0  0  0  0  0  0  0  0  0
   12.8160    2.1430   -0.2200 C   0  0  2  0  0  0  0  0  0  0  0  0
   12.1810    3.0500   -0.4150 H   0  0  0  0  0  0  0  0  0  0  0  0
   14.0130    2.4880    0.4000 O   0  0  0  0  0  0  0  0  0  0  0  0
   12.0440    1.1060    0.6300 C   0  0  1  0  0  0  0  0  0  0  0  0
   12.7200    0.2600    0.9280 H   0  0  0  0  0  0  0  0  0  0  0  0
   11.5660    1.8120    1.7330 O   0  0  0  0  0  0  0  0  0  0  0  0
    9.4870   -2.9280    0.8080 H   0  0  0  0  0  0  0  0  0  0  0  0
    8.8110   -1.8750    2.0330 H   0  0  0  0  0  0  0  0  0  0  0  0
    7.3410   -3.0310   -0.4370 H   0  0  0  0  0  0  0  0  0  0  0  0
    7.1190   -3.5410    1.2330 H   0  0  0  0  0  0  0  0  0  0  0  0
    7.0190   -0.9620    2.7500 H   0  0  0  0  0  0  0  0  0  0  0  0
    5.3820   -0.4130    2.4260 H   0  0  0  0  0  0  0  0  0  0  0  0
    5.6820   -2.0990    2.8490 H   0  0  0  0  0  0  0  0  0  0  0  0
    6.1260    1.2870   -1.2090 H   0  0  0  0  0  0  0  0  0  0  0  0
    3.7460    0.9130   -0.9070 H   0  0  0  0  0  0  0  0  0  0  0  0
    4.2820   -0.3800   -1.9720 H   0  0  0  0  0  0  0  0  0  0  0  0
    5.0820   -4.2060    0.8980 H   0  0  0  0  0  0  0  0  0  0  0  0
    4.4330   -3.1230    2.1060 H   0  0  0  0  0  0  0  0  0  0  0  0
    3.0080   -4.2530   -0.3900 H   0  0  0  0  0  0  0  0  0  0  0  0
    2.6390   -4.6090    1.2860 H   0  0  0  0  0  0  0  0  0  0  0  0
    2.8460   -1.4890    2.3720 H   0  0  0  0  0  0  0  0  0  0  0  0
    1.1170   -1.3320    2.2290 H   0  0  0  0  0  0  0  0  0  0  0  0
    1.8120   -2.8360    2.8370 H   0  0  0  0  0  0  0  0  0  0  0  0
    1.5350    0.2020    0.3690 H   0  0  0  0  0  0  0  0  0  0  0  0
    1.4500    0.0220   -1.3730 H   0  0  0  0  0  0  0  0  0  0  0  0
    0.2120    2.3150    3.0040 H   0  0  0  0  0  0  0  0  0  0  0  0
    0.0590    2.8390    1.3080 H   0  0  0  0  0  0  0  0  0  0  0  0
   -1.9650    2.0990    4.1710 H   0  0  0  0  0  0  0  0  0  0  0  0
   -3.6870    6.6690    1.5650 H   0  0  0  0  0  0  0  0  0  0  0  0
   -4.1760    6.1960   -0.0830 H   0  0  0  0  0  0  0  0  0  0  0  0
   -5.9650    8.0440    1.4570 H   0  0  0  0  0  0  0  0  0  0  0  0
   -8.3800    5.8540    0.8420 H   0  0  0  0  0  0  0  0  0  0  0  0
   -7.7610    2.4730   -2.0570 H   0  0  0  0  0  0  0  0  0  0  0  0
   -8.4760    2.1040   -5.6300 H   0  0  0  0  0  0  0  0  0  0  0  0
   -8.9620    2.9260   -4.1120 H   0  0  0  0  0  0  0  0  0  0  0  0
   -7.2570    2.4070   -4.3530 H   0  0  0  0  0  0  0  0  0  0  0  0
   -8.0250   -1.9590   -4.4060 H   0  0  0  0  0  0  0  0  0  0  0  0
   -8.5320   -3.1030   -3.1280 H   0  0  0  0  0  0  0  0  0  0  0  0
   -9.5160   -2.9350   -4.6160 H   0  0  0  0  0  0  0  0  0  0  0  0
  -10.2670   -3.6880    0.3630 H   0  0  0  0  0  0  0  0  0  0  0  0
   -8.8370   -2.8250    0.9940 H   0  0  0  0  0  0  0  0  0  0  0  0
  -10.4530   -2.0420    1.0540 H   0  0  0  0  0  0  0  0  0  0  0  0
   -8.6340   -0.4530    0.9680 H   0  0  0  0  0  0  0  0  0  0  0  0
   -4.1140    0.2910   -2.7040 H   0  0  0  0  0  0  0  0  0  0  0  0
   -4.6040   -1.3790   -2.3750 H   0  0  0  0  0  0  0  0  0  0  0  0
   -5.7360   -0.0440   -2.0710 H   0  0  0  0  0  0  0  0  0  0  0  0
   -0.1700   -3.7770   -1.3960 H   0  0  0  0  0  0  0  0  0  0  0  0
   -0.0300   -5.5920    0.5540 H   0  0  0  0  0  0  0  0  0  0  0  0
    1.0240   -4.9930    1.8320 H   0  0  0  0  0  0  0  0  0  0  0  0
   -0.6570   -5.3930    2.1940 H   0  0  0  0  0  0  0  0  0  0  0  0
   -2.6640   -4.0370    2.4230 H   0  0  0  0  0  0  0  0  0  0  0  0
   -3.2350   -2.5450    1.6880 H   0  0  0  0  0  0  0  0  0  0  0  0
   -4.4310   -3.8890   -0.1190 H   0  0  0  0  0  0  0  0  0  0  0  0
   -3.8560   -5.3890    0.5980 H   0  0  0  0  0  0  0  0  0  0  0  0
   -5.5780   -3.2880    2.1020 H   0  0  0  0  0  0  0  0  0  0  0  0
   -6.4110   -5.9360    0.7150 H   0  0  0  0  0  0  0  0  0  0  0  0
   -7.4670   -4.9220    1.7010 H   0  0  0  0  0  0  0  0  0  0  0  0
   -6.8340   -4.3090    0.1760 H   0  0  0  0  0  0  0  0  0  0  0  0
   -4.8030   -6.2130    2.8010 H   0  0  0  0  0  0  0  0  0  0  0  0
   -4.2890   -4.7620    3.6680 H   0  0  0  0  0  0  0  0  0  0  0  0
   -5.9770   -5.2430    3.6900 H   0  0  0  0  0  0  0  0  0  0  0  0
    8.0800    0.5650    1.3650 H   0  0  0  0  0  0  0  0  0  0  0  0
    8.2470    1.0660   -0.3010 H   0  0  0  0  0  0  0  0  0  0  0  0
   12.9430    0.7740   -4.1970 H   0  0  0  0  0  0  0  0  0  0  0  0
   12.9180   -0.7600   -3.2810 H   0  0  0  0  0  0  0  0  0  0  0  0
   11.0510   -1.0860   -4.2950 H   0  0  0  0  0  0  0  0  0  0  0  0
   14.5690    2.7540   -2.0380 H   0  0  0  0  0  0  0  0  0  0  0  0
   13.8020    2.9380    1.2250 H   0  0  0  0  0  0  0  0  0  0  0  0
   11.1430    1.1820    2.3220 H   0  0  0  0  0  0  0  0  0  0  0  0
  2  1  1  6
  2 83  1  0
  2  3  1  0
  2 94  1  0
  3  4  1  0
  4  5  1  6
  4 82  1  0
  4  6  1  0
  6  7  1  0
  6 97  1  0
  6 98  1  0
  7 99  1  0
  7  8  1  0
  7100  1  0
  8 10  1  0
  8 15  1  0
  8  9  1  1
  9102  1  0
  9101  1  0
  9103  1  0
 10 11  2  0
 10 82  1  0
 11104  1  0
 11 12  1  0
 12106  1  0
 12105  1  0
 12 13  1  0
 13 21  1  0
 13 15  1  0
 13 14  1  1
 15 16  1  6
 15 17  1  0
 17 18  1  0
 17107  1  0
 17108  1  0
 18109  1  0
 18 19  1  0
 18110  1  0
 19 21  1  0
 19 70  1  0
 19 20  1  1
 20112  1  0
 20111  1  0
 20113  1  0
 21 22  1  6
 21 23  1  0
 23115  1  0
 23 24  1  0
 23114  1  0
 24 25  1  6
 24 70  1  0
 24 26  1  0
 26 27  1  0
 27 28  1  6
 27 64  1  0
 27 29  1  0
 29 30  1  0
 30117  1  0
 30 31  1  0
 30116  1  0
 31 34  1  0
 31 32  1  1
 31 33  1  0
 33118  1  0
 34 35  1  6
 34 64  1  0
 34 36  1  0
 36 37  1  0
 37 38  1  6
 37 47  1  0
 37 39  1  0
 39 40  1  0
 40120  1  0
 40 41  1  0
 40119  1  0
 41 44  1  0
 41 43  1  0
 41 42  1  1
 43121  1  0
 44 45  1  6
 44 47  1  0
 44 46  1  0
 46122  1  0
 47 49  1  0
 47 48  1  1
 49 50  1  0
 50 52  1  0
 50 51  2  0
 52 53  2  0
 52 63  1  0
 53 54  1  0
 53123  1  0
 54 55  1  0
 54 57  2  0
 55 56  1  0
 56124  1  0
 56126  1  0
 56125  1  0
 57 58  1  0
 57 60  1  0
 58 59  1  0
 59129  1  0
 59127  1  0
 59128  1  0
 60 61  1  0
 60 63  2  0
 61 62  1  0
 62130  1  0
 62131  1  0
 62132  1  0
 63133  1  0
 64 66  1  0
 64 65  1  1
 66 67  1  0
 67 68  1  0
 67 69  2  0
 68134  1  0
 68135  1  0
 68136  1  0
 70 71  1  6
 70 72  1  0
 71137  1  0
 72 75  1  0
 72 74  1  0
 72 73  1  1
 74138  1  0
 74139  1  0
 74140  1  0
 75 76  2  0
 75 77  1  0
 77 78  1  0
 77142  1  0
 77141  1  0
 78143  1  0
 78144  1  0
 78 79  1  0
 79 80  1  0
 79145  1  1
 79 81  1  0
 80148  1  0
 80146  1  0
 80147  1  0
 81149  1  0
 81150  1  0
 81151  1  0
 82153  1  0
 82152  1  0
 83 84  1  0
 84 86  1  0
 84 85  1  6
 84 88  1  0
 86 87  1  0
 86154  1  0
 86155  1  0
 87156  1  0
 88 90  1  0
 88 89  1  1
 88 91  1  0
 90157  1  0
 91 92  1  6
 91 93  1  0
 91 94  1  0
 93158  1  0
 94 95  1  1
 94 96  1  0
 96159  1  0
M  END
>  <id>  (400) 
502

>  <scaffolds>  (400) 
['c1ccccc1', 'C1=C2CCCCC2C2CCC3CCCC3C2C1', 'C1=CCCCC1', 'C1=CCC2CCCCC2C1', 'C1=C2CCCCC2C2CCC3CC(OC4CCCCO4)CC3C2C1', 'C1CCOCC1', 'C1=C2CC(OC3CCCCO3)CCC2C2CCC3CCCC3C2C1', 'O=C(OC1CCCOC1OC1CCOC(OC2CC3CCC4C5CCC(OC6CCCCO6)CC5=CCC4C3C2)C1)c1ccccc1', 'C1=C2CC(OC3CCCCO3)CCC2C2CCC3CC(OC4CCCCO4)CC3C2C1', 'C1CCCCC1', 'O=C(OC1CCCOC1OC1CCOC(OC2CC3CCC4C5CCCCC5=CCC4C3C2)C1)c1ccccc1', 'C1=C2CCCCC2C2CCC3CC(OC4CC(OC5CCCCO5)CCO4)CC3C2C1', 'C1=C2CCCCC2CCC1', 'C1=C2CC(OC3CCCCO3)CCC2C2CCC3CC(OC4CC(OC5CCCCO5)CCO4)CC3C2C1']

>  <name>  (400) 
3[beta]-[([beta]-D-glucopyranosyl)oxy)]-17[alpha]-hydroxy-16[beta]-[(O-(2-O-3,4,5-trimethoxybenzoyl-[beta]-D-xylopyranosyl)-(1[to]3)-2-O-acetyl-[alpha]-L-arabinopyranosyl)oxy]cholest-5-en-22-one

>  <formula>  (400) 
C55H82O22

>  <SMILES>  (400) 
[H][C@@]8(O[C@H]7CC[C@@]1(C)C(=CC[C@]2([H])[C@]1([H])CC[C@@]6(C)[C@@]2([H])C[C@H](O[C@]5([H])OC[C@H](O)[C@H](O[C@]3([H])OC[C@@H](O)[C@H](O)[C@H]3OC(=O)c4cc(OC)c(OC)c(OC)c4)[C@H]5OC(C)=O)[C@]6(O)[C@H](C)C(=O)CCC(C)C)C7)O[C@H](CO)[C@@H](O)[C@H](O)[C@H]8O

>  <ChEMBL_id>  (400) 


>  <ZINC_id>  (400) 


>  <PubChem_id>  (400) 


>  <DrugBank_id>  (400) 


>  <CAS_no>  (400) 
474125-90-1

>  <references>  (400) 
[{'journal': {'name': 'Journal of Natural Products', 'id': 5}, 'title': 'Cholestane Glycosides from the Bulbs of Ornithogalum thyrsoides and Their Cytotoxic Activity against HL-60 Leukemia Cells', 'year': 2002, 'start_page': 1417, 'volume': 65, 'issue': 10, 'doi': '10.1021/np020114j', 'isbn': '', 'despositor': {'code': 'NFA', 'first_name': 'Ngonidzashe', 'last_name': 'Faya', 'id': 21}, 'refauthors_set': [{'author': {'first_name': 'Minpei', 'initials': 'M', 'last_name': 'Kuroda', 'id': 644}, 'first_author': True, 'id': 1199}, {'author': {'first_name': 'Yoshihiro ', 'initials': 'Y', 'last_name': 'Mimaki', 'id': 643}, 'first_author': None, 'id': 1200}, {'author': {'first_name': 'Akihito ', 'initials': 'A', 'last_name': 'Yokosuka', 'id': 650}, 'first_author': None, 'id': 1201}, {'author': {'first_name': 'Fusako', 'initials': 'F', 'last_name': 'Hasegawa', 'id': 711}, 'first_author': None, 'id': 1202}, {'author': {'first_name': 'Yutaka', 'initials': 'Y', 'last_name': 'Sashida', 'id': 645}, 'first_author': None, 'id': 1203}], 'id': 341}]

>  <classifications>  (400) 
[{'classification': 'Cholestane', 'id': 761}, {'classification': 'Glycoside', 'id': 781}, {'classification': 'Steroids and steroid derivatives (Classyfire)', 'id': 942}]

>  <molecular_mass>  (400) 
1095.22

$$$$
SANC00503_minRM1.pdb
     RDKit          3D

176184  0  0  1  0  0  0  0  0999 V2000
    7.7920    3.5480    0.0870 H   0  0  0  0  0  0  0  0  0  0  0  0
    7.6510    3.5120   -1.0330 C   0  0  2  0  0  0  0  0  0  0  0  0
    6.5350    2.7760   -1.4350 O   0  0  0  0  0  0  0  0  0  0  0  0
    5.3310    3.0990   -0.7910 C   0  0  1  0  0  0  0  0  0  0  0  0
    5.4630    3.7880    0.0890 H   0  0  0  0  0  0  0  0  0  0  0  0
    4.3830    3.7730   -1.8100 C   0  0  1  0  0  0  0  0  0  0  0  0
    4.7890    4.7780   -2.1080 H   0  0  0  0  0  0  0  0  0  0  0  0
    4.3080    2.9050   -2.8950 O   0  0  0  0  0  0  0  0  0  0  0  0
    3.0020    3.9430   -1.1350 C   0  0  0  0  0  0  0  0  0  0  0  0
    2.4940    2.7220   -0.6780 O   0  0  0  0  0  0  0  0  0  0  0  0
    3.3150    2.0920    0.2790 C   0  0  1  0  0  0  0  0  0  0  0  0
    3.4110    2.7190    1.2130 H   0  0  0  0  0  0  0  0  0  0  0  0
    2.7040    0.8570    0.5090 O   0  0  0  0  0  0  0  0  0  0  0  0
    1.4250    0.9110    1.0780 C   0  0  1  0  0  0  0  0  0  0  0  0
    1.2040    1.9220    1.5230 H   0  0  0  0  0  0  0  0  0  0  0  0
    0.3520    0.6160    0.0100 C   0  0  0  0  0  0  0  0  0  0  0  0
   -0.7520   -0.0190    0.8470 C   0  0  1  0  0  0  0  0  0  0  0  0
   -1.1970    0.7860    1.4930 H   0  0  0  0  0  0  0  0  0  0  0  0
   -1.8840   -0.7130    0.1050 C   0  0  2  0  0  0  0  0  0  0  0  0
   -1.4710   -1.5420   -0.5270 H   0  0  0  0  0  0  0  0  0  0  0  0
   -2.6130    0.2780   -0.8000 C   0  0  0  0  0  0  0  0  0  0  0  0
   -3.8810   -0.2920   -1.3210 C   0  0  0  0  0  0  0  0  0  0  0  0
   -4.4910   -1.3540   -0.7940 C   0  0  0  0  0  0  0  0  0  0  0  0
   -5.7110   -1.9150   -1.4460 C   0  0  0  0  0  0  0  0  0  0  0  0
   -6.8230   -2.1560   -0.4200 C   0  0  1  0  0  0  0  0  0  0  0  0
   -7.2030   -1.1790   -0.0190 H   0  0  0  0  0  0  0  0  0  0  0  0
   -7.8540   -2.9240   -1.0120 O   0  0  0  0  0  0  0  0  0  0  0  0
   -8.7140   -2.2430   -1.8720 C   0  0  2  0  0  0  0  0  0  0  0  0
   -8.1870   -1.6020   -2.6330 H   0  0  0  0  0  0  0  0  0  0  0  0
   -9.5340   -1.4860   -1.0150 O   0  0  0  0  0  0  0  0  0  0  0  0
  -10.5370   -0.7810   -1.7020 C   0  0  2  0  0  0  0  0  0  0  0  0
  -10.1060   -0.0880   -2.4760 H   0  0  0  0  0  0  0  0  0  0  0  0
  -11.2740    0.0260   -0.6140 C   0  0  0  0  0  0  0  0  0  0  0  0
  -10.3130    0.9600   -0.1710 O   0  0  0  0  0  0  0  0  0  0  0  0
  -10.7090    1.7280    0.9260 C   0  0  2  0  0  0  0  0  0  0  0  0
  -11.1440    1.1190    1.7700 H   0  0  0  0  0  0  0  0  0  0  0  0
  -11.6380    2.6370    0.3880 O   0  0  0  0  0  0  0  0  0  0  0  0
  -12.1030    3.5680    1.3320 C   0  0  2  0  0  0  0  0  0  0  0  0
  -12.5750    3.0660    2.2200 H   0  0  0  0  0  0  0  0  0  0  0  0
  -13.1540    4.4070    0.5740 C   0  0  0  0  0  0  0  0  0  0  0  0
  -14.2660    3.5740    0.4140 O   0  0  0  0  0  0  0  0  0  0  0  0
  -10.9160    4.4610    1.7790 C   0  0  1  0  0  0  0  0  0  0  0  0
  -10.4950    5.0230    0.9020 H   0  0  0  0  0  0  0  0  0  0  0  0
  -11.4380    5.3190    2.7450 O   0  0  0  0  0  0  0  0  0  0  0  0
   -9.8270    3.5520    2.4080 C   0  0  2  0  0  0  0  0  0  0  0  0
  -10.2120    3.0680    3.3470 H   0  0  0  0  0  0  0  0  0  0  0  0
   -8.7540    4.4020    2.6740 O   0  0  0  0  0  0  0  0  0  0  0  0
   -9.4220    2.4840    1.3660 C   0  0  1  0  0  0  0  0  0  0  0  0
   -8.9230    2.9670    0.4820 H   0  0  0  0  0  0  0  0  0  0  0  0
   -8.5680    1.6120    2.0380 O   0  0  0  0  0  0  0  0  0  0  0  0
  -11.5090   -1.7940   -2.3610 C   0  0  1  0  0  0  0  0  0  0  0  0
  -12.0050   -2.4280   -1.5770 H   0  0  0  0  0  0  0  0  0  0  0  0
  -12.4270   -1.0230   -3.0680 O   0  0  0  0  0  0  0  0  0  0  0  0
  -10.7030   -2.6880   -3.3400 C   0  0  2  0  0  0  0  0  0  0  0  0
  -10.2960   -2.0740   -4.1900 H   0  0  0  0  0  0  0  0  0  0  0  0
  -11.6120   -3.6440   -3.7900 O   0  0  0  0  0  0  0  0  0  0  0  0
   -9.5580   -3.3610   -2.5510 C   0  0  1  0  0  0  0  0  0  0  0  0
   -9.9750   -4.0660   -1.7800 H   0  0  0  0  0  0  0  0  0  0  0  0
   -8.7850   -4.0210   -3.5040 O   0  0  0  0  0  0  0  0  0  0  0  0
   -6.3100   -3.0420    0.7190 C   0  0  0  0  0  0  0  0  0  0  0  0
   -5.1100   -2.3810    1.3780 C   0  0  0  0  0  0  0  0  0  0  0  0
   -3.9630   -2.1050    0.3930 C   0  0  1  0  0  0  0  0  0  0  0  0
   -3.3820   -3.4230   -0.1230 C   0  0  0  0  0  0  0  0  0  0  0  0
   -2.8800   -1.2740    1.1300 C   0  0  1  0  0  0  0  0  0  0  0  0
   -3.3800   -0.3970    1.6220 H   0  0  0  0  0  0  0  0  0  0  0  0
   -2.2120   -2.0980    2.2400 C   0  0  0  0  0  0  0  0  0  0  0  0
   -0.9630   -1.4470    2.8360 C   0  0  0  0  0  0  0  0  0  0  0  0
    0.0050   -1.0250    1.7310 C   0  0  1  0  0  0  0  0  0  0  0  0
    0.4220   -2.2600    0.9410 C   0  0  0  0  0  0  0  0  0  0  0  0
    1.2570   -0.1970    2.1920 C   0  0  2  0  0  0  0  0  0  0  0  0
    0.8330    0.4430    3.3650 O   0  0  0  0  0  0  0  0  0  0  0  0
    2.4840   -1.0590    2.5750 C   0  0  2  0  0  0  0  0  0  0  0  0
    2.0910   -1.8050    3.3170 H   0  0  0  0  0  0  0  0  0  0  0  0
    3.5800   -0.2380    3.2570 C   0  0  0  0  0  0  0  0  0  0  0  0
    3.1940   -1.8040    1.4590 C   0  0  0  0  0  0  0  0  0  0  0  0
    3.4610   -1.3050    0.3880 O   0  0  0  0  0  0  0  0  0  0  0  0
    3.6750   -3.2010    1.8040 C   0  0  0  0  0  0  0  0  0  0  0  0
    3.9870   -4.0020    0.5440 C   0  0  0  0  0  0  0  0  0  0  0  0
    4.3300   -5.4620    0.8520 C   0  0  1  0  0  0  0  0  0  0  0  0
    4.4620   -6.2330   -0.4590 C   0  0  0  0  0  0  0  0  0  0  0  0
    5.6340   -5.5720    1.6340 C   0  0  0  0  0  0  0  0  0  0  0  0
    4.7030    1.7580   -0.3420 C   0  0  2  0  0  0  0  0  0  0  0  0
    4.5910    1.0420   -1.2020 H   0  0  0  0  0  0  0  0  0  0  0  0
    5.4870    1.2830    0.7260 O   0  0  0  0  0  0  0  0  0  0  0  0
    6.2380    0.1570    0.5650 C   0  0  0  0  0  0  0  0  0  0  0  0
    6.9030   -0.2250    1.8510 C   0  0  0  0  0  0  0  0  0  0  0  0
    6.3260   -0.4130   -0.5010 O   0  0  0  0  0  0  0  0  0  0  0  0
    7.4100    4.7980   -1.5620 O   0  0  0  0  0  0  0  0  0  0  0  0
    8.4850    5.6770   -1.4000 C   0  0  0  0  0  0  0  0  0  0  0  0
    9.7170    5.1520   -2.1660 C   0  0  1  0  0  0  0  0  0  0  0  0
    9.4950    5.0770   -3.2650 H   0  0  0  0  0  0  0  0  0  0  0  0
   10.8220    5.9620   -1.8980 O   0  0  0  0  0  0  0  0  0  0  0  0
   10.0920    3.7590   -1.6030 C   0  0  2  0  0  0  0  0  0  0  0  0
   10.4030    3.8450   -0.5250 H   0  0  0  0  0  0  0  0  0  0  0  0
   11.0830    3.1670   -2.3780 O   0  0  0  0  0  0  0  0  0  0  0  0
    8.8580    2.8370   -1.7460 C   0  0  1  0  0  0  0  0  0  0  0  0
    8.6210    2.6380   -2.8270 H   0  0  0  0  0  0  0  0  0  0  0  0
    9.1210    1.6880   -0.9780 O   0  0  0  0  0  0  0  0  0  0  0  0
    9.4390    0.5160   -1.5920 C   0  0  0  0  0  0  0  0  0  0  0  0
    9.4710    0.4160   -2.7990 O   0  0  0  0  0  0  0  0  0  0  0  0
    9.7010   -0.5380   -0.5970 C   0  0  0  0  0  0  0  0  0  0  0  0
   10.4930   -0.2920    0.5100 C   0  0  0  0  0  0  0  0  0  0  0  0
   10.7430   -1.3110    1.4300 C   0  0  0  0  0  0  0  0  0  0  0  0
   10.1980   -2.5660    1.2160 C   0  0  0  0  0  0  0  0  0  0  0  0
   10.3540   -3.6550    2.0130 O   0  0  0  0  0  0  0  0  0  0  0  0
   11.2030   -3.5180    3.1250 C   0  0  0  0  0  0  0  0  0  0  0  0
    9.3800   -2.8070    0.0830 C   0  0  0  0  0  0  0  0  0  0  0  0
    8.8830   -4.0740    0.0250 O   0  0  0  0  0  0  0  0  0  0  0  0
    8.3070   -4.4690   -1.1950 C   0  0  0  0  0  0  0  0  0  0  0  0
    9.1280   -1.7920   -0.8250 C   0  0  0  0  0  0  0  0  0  0  0  0
    3.7460    3.3170   -3.5580 H   0  0  0  0  0  0  0  0  0  0  0  0
    3.0540    4.7040   -0.3220 H   0  0  0  0  0  0  0  0  0  0  0  0
    2.2280    4.2970   -1.8480 H   0  0  0  0  0  0  0  0  0  0  0  0
    0.0320    1.5360   -0.5170 H   0  0  0  0  0  0  0  0  0  0  0  0
    0.7270   -0.0460   -0.7950 H   0  0  0  0  0  0  0  0  0  0  0  0
   -2.8350    1.2300   -0.2700 H   0  0  0  0  0  0  0  0  0  0  0  0
   -1.9580    0.5790   -1.6460 H   0  0  0  0  0  0  0  0  0  0  0  0
   -4.2930    0.2280   -2.1910 H   0  0  0  0  0  0  0  0  0  0  0  0
   -6.0770   -1.2510   -2.2580 H   0  0  0  0  0  0  0  0  0  0  0  0
   -5.4480   -2.8580   -1.9730 H   0  0  0  0  0  0  0  0  0  0  0  0
  -12.1690    0.5310   -1.0410 H   0  0  0  0  0  0  0  0  0  0  0  0
  -11.6320   -0.6320    0.2100 H   0  0  0  0  0  0  0  0  0  0  0  0
  -13.4500    5.2920    1.1810 H   0  0  0  0  0  0  0  0  0  0  0  0
  -12.7420    4.8020   -0.3810 H   0  0  0  0  0  0  0  0  0  0  0  0
  -14.6170    3.7280   -0.4720 H   0  0  0  0  0  0  0  0  0  0  0  0
  -10.7320    5.9050    3.0290 H   0  0  0  0  0  0  0  0  0  0  0  0
   -8.0630    3.8760    3.0910 H   0  0  0  0  0  0  0  0  0  0  0  0
   -8.2740    0.9460    1.4070 H   0  0  0  0  0  0  0  0  0  0  0  0
  -13.0740   -1.6210   -3.4560 H   0  0  0  0  0  0  0  0  0  0  0  0
  -11.1540   -4.2110   -4.4200 H   0  0  0  0  0  0  0  0  0  0  0  0
   -8.1070   -4.5170   -3.0350 H   0  0  0  0  0  0  0  0  0  0  0  0
   -7.1170   -3.2140    1.4640 H   0  0  0  0  0  0  0  0  0  0  0  0
   -6.0600   -4.0600    0.3520 H   0  0  0  0  0  0  0  0  0  0  0  0
   -5.4310   -1.4370    1.8690 H   0  0  0  0  0  0  0  0  0  0  0  0
   -4.7570   -3.0240    2.2110 H   0  0  0  0  0  0  0  0  0  0  0  0
   -4.1450   -4.1010   -0.5310 H   0  0  0  0  0  0  0  0  0  0  0  0
   -2.6500   -3.2670   -0.9280 H   0  0  0  0  0  0  0  0  0  0  0  0
   -2.8660   -3.9910    0.6670 H   0  0  0  0  0  0  0  0  0  0  0  0
   -2.9420   -2.2660    3.0640 H   0  0  0  0  0  0  0  0  0  0  0  0
   -1.9780   -3.1290    1.8940 H   0  0  0  0  0  0  0  0  0  0  0  0
   -1.2740   -0.5890    3.4680 H   0  0  0  0  0  0  0  0  0  0  0  0
   -0.4670   -2.1410    3.5470 H   0  0  0  0  0  0  0  0  0  0  0  0
   -0.4210   -2.7280    0.4080 H   0  0  0  0  0  0  0  0  0  0  0  0
    1.1450   -2.0520    0.1420 H   0  0  0  0  0  0  0  0  0  0  0  0
    0.8350   -3.0480    1.5830 H   0  0  0  0  0  0  0  0  0  0  0  0
    1.4670    1.1260    3.6000 H   0  0  0  0  0  0  0  0  0  0  0  0
    3.8280    0.6850    2.7150 H   0  0  0  0  0  0  0  0  0  0  0  0
    3.3180    0.0440    4.2880 H   0  0  0  0  0  0  0  0  0  0  0  0
    4.5310   -0.7960    3.3410 H   0  0  0  0  0  0  0  0  0  0  0  0
    4.5730   -3.0950    2.4490 H   0  0  0  0  0  0  0  0  0  0  0  0
    2.9380   -3.7400    2.4350 H   0  0  0  0  0  0  0  0  0  0  0  0
    3.1150   -3.9550   -0.1440 H   0  0  0  0  0  0  0  0  0  0  0  0
    4.8120   -3.5190   -0.0230 H   0  0  0  0  0  0  0  0  0  0  0  0
    3.5030   -5.9190    1.4540 H   0  0  0  0  0  0  0  0  0  0  0  0
    5.2640   -5.8350   -1.0970 H   0  0  0  0  0  0  0  0  0  0  0  0
    4.6890   -7.2960   -0.2910 H   0  0  0  0  0  0  0  0  0  0  0  0
    3.5380   -6.2040   -1.0550 H   0  0  0  0  0  0  0  0  0  0  0  0
    6.4700   -5.0660    1.1300 H   0  0  0  0  0  0  0  0  0  0  0  0
    5.5600   -5.1440    2.6430 H   0  0  0  0  0  0  0  0  0  0  0  0
    5.9410   -6.6190    1.7720 H   0  0  0  0  0  0  0  0  0  0  0  0
    7.2600    0.6440    2.4230 H   0  0  0  0  0  0  0  0  0  0  0  0
    6.1960   -0.7750    2.4970 H   0  0  0  0  0  0  0  0  0  0  0  0
    7.7710   -0.8770    1.6620 H   0  0  0  0  0  0  0  0  0  0  0  0
    8.1140    6.6400   -1.8120 H   0  0  0  0  0  0  0  0  0  0  0  0
    8.7250    5.8660   -0.3270 H   0  0  0  0  0  0  0  0  0  0  0  0
   10.7150    6.7710   -2.4060 H   0  0  0  0  0  0  0  0  0  0  0  0
   11.8890    3.6810   -2.2620 H   0  0  0  0  0  0  0  0  0  0  0  0
   10.9290    0.6980    0.6700 H   0  0  0  0  0  0  0  0  0  0  0  0
   11.3720   -1.0910    2.2940 H   0  0  0  0  0  0  0  0  0  0  0  0
   12.2380   -3.2580    2.8550 H   0  0  0  0  0  0  0  0  0  0  0  0
   10.8300   -2.8010    3.8710 H   0  0  0  0  0  0  0  0  0  0  0  0
   11.2020   -4.5260    3.5650 H   0  0  0  0  0  0  0  0  0  0  0  0
    7.3380   -3.9780   -1.3920 H   0  0  0  0  0  0  0  0  0  0  0  0
    8.9690   -4.3270   -2.0660 H   0  0  0  0  0  0  0  0  0  0  0  0
    8.1330   -5.5500   -1.0490 H   0  0  0  0  0  0  0  0  0  0  0  0
    8.4870   -1.9320   -1.7020 H   0  0  0  0  0  0  0  0  0  0  0  0
  2  1  1  1
  2 96  1  0
  2 88  1  0
  2  3  1  0
  3  4  1  0
  4  6  1  0
  4 82  1  0
  4  5  1  1
  6  8  1  0
  6  7  1  6
  6  9  1  0
  8111  1  0
  9113  1  0
  9 10  1  0
  9112  1  0
 10 11  1  0
 11 82  1  0
 11 13  1  0
 11 12  1  1
 13 14  1  0
 14 16  1  0
 14 15  1  1
 14 70  1  0
 16115  1  0
 16114  1  0
 16 17  1  0
 17 19  1  0
 17 18  1  1
 17 68  1  0
 19 21  1  0
 19 20  1  6
 19 64  1  0
 21117  1  0
 21 22  1  0
 21116  1  0
 22118  1  0
 22 23  2  0
 23 24  1  0
 23 62  1  0
 24119  1  0
 24120  1  0
 24 25  1  0
 25 27  1  0
 25 26  1  1
 25 60  1  0
 27 28  1  0
 28 29  1  6
 28 57  1  0
 28 30  1  0
 30 31  1  0
 31 32  1  6
 31 51  1  0
 31 33  1  0
 33121  1  0
 33 34  1  0
 33122  1  0
 34 35  1  0
 35 37  1  0
 35 48  1  0
 35 36  1  1
 37 38  1  0
 38 40  1  0
 38 42  1  0
 38 39  1  1
 40124  1  0
 40 41  1  0
 40123  1  0
 41125  1  0
 42 43  1  6
 42 45  1  0
 42 44  1  0
 44126  1  0
 45 48  1  0
 45 47  1  0
 45 46  1  1
 47127  1  0
 48 49  1  6
 48 50  1  0
 50128  1  0
 51 54  1  0
 51 53  1  0
 51 52  1  1
 53129  1  0
 54 55  1  6
 54 56  1  0
 54 57  1  0
 56130  1  0
 57 59  1  0
 57 58  1  1
 59131  1  0
 60133  1  0
 60 61  1  0
 60132  1  0
 61 62  1  0
 61134  1  0
 61135  1  0
 62 63  1  6
 62 64  1  0
 63137  1  0
 63136  1  0
 63138  1  0
 64 65  1  1
 64 66  1  0
 66140  1  0
 66 67  1  0
 66139  1  0
 67 68  1  0
 67141  1  0
 67142  1  0
 68 69  1  6
 68 70  1  0
 69144  1  0
 69143  1  0
 69145  1  0
 70 72  1  0
 70 71  1  1
 71146  1  0
 72 75  1  0
 72 74  1  0
 72 73  1  1
 74147  1  0
 74149  1  0
 74148  1  0
 75 76  2  0
 75 77  1  0
 77 78  1  0
 77151  1  0
 77150  1  0
 78152  1  0
 78153  1  0
 78 79  1  0
 79 80  1  0
 79154  1  1
 79 81  1  0
 80155  1  0
 80157  1  0
 80156  1  0
 81158  1  0
 81160  1  0
 81159  1  0
 82 83  1  6
 82 84  1  0
 84 85  1  0
 85 87  2  0
 85 86  1  0
 86163  1  0
 86161  1  0
 86162  1  0
 88 89  1  0
 89 90  1  0
 89164  1  0
 89165  1  0
 90 91  1  6
 90 92  1  0
 90 93  1  0
 92166  1  0
 93 95  1  0
 93 96  1  0
 93 94  1  1
 95167  1  0
 96 97  1  6
 96 98  1  0
 98 99  1  0
 99100  2  0
 99101  1  0
101110  2  0
101102  1  0
102168  1  0
102103  2  0
103104  1  0
103169  1  0
104107  2  0
104105  1  0
105106  1  0
106170  1  0
106172  1  0
106171  1  0
107110  1  0
107108  1  0
108109  1  0
109174  1  0
109173  1  0
109175  1  0
110176  1  0
M  END
>  <id>  (401) 
503

>  <scaffolds>  (401) 
['c1ccccc1', 'C1=C2CCCCC2C2CCC3CCCC3C2C1', 'C1=CCCCC1', 'C1=CCC2CCCCC2C1', 'C1=C2CCCCC2C2CCC3CC(OC4CCCCO4)CC3C2C1', 'C1CCOCC1', 'C1=C2CC(OC3CCCCO3)CCC2C2CCC3CCCC3C2C1', 'O=C(OC1CCCOC1OC1CCOC(OC2CC3CCC4C5CCC(OC6CCCCO6)CC5=CCC4C3C2)C1)c1ccccc1', 'C1=C2CC(OC3CCCCO3)CCC2C2CCC3CC(OC4CCCCO4)CC3C2C1', 'C1CCCCC1', 'O=C(OC1CCCOC1OC1CCOC(OC2CC3CCC4C5CCCCC5=CCC4C3C2)C1)c1ccccc1', 'O=C(OC1CCCOC1OC1CCOC(OC2CC3CCC4C5CCC(OC6CCCC(COC7CCCCO7)O6)CC5=CCC4C3C2)C1)c1ccccc1', 'C1=C2CC(OC3CCCC(COC4CCCCO4)O3)CCC2C2CCC3CC(OC4CC(OC5CCCCO5)CCO4)CC3C2C1', 'C1=C2CCCCC2C2CCC3CC(OC4CC(OC5CCCCO5)CCO4)CC3C2C1', 'C1=C2CCCCC2CCC1', 'C1=C2CC(OC3CCCCO3)CCC2C2CCC3CC(OC4CC(OC5CCCCO5)CCO4)CC3C2C1']

>  <name>  (401) 
3[beta]-[(O-[beta]-D-Glucopyranosyl-(1[to]6)-[beta]-D-glucopyranosyl)oxy)]-17[alpha]-hydroxy-16[beta]-[(O-(2-O-3,4-dimethoxybenzoyl-[beta]-D-xylopyranosyl)-(1[to]3)-2-O-acetyl-[alpha]-L-arabinopyranosyl)oxy]cholest-5-en-22-one

>  <formula>  (401) 
C60H90O26

>  <SMILES>  (401) 
[H][C@@]8(O[C@H]7[C@@H](O)CO[C@@]([H])(O[C@H]6C[C@@]5([H])[C@]4([H])CC=C3C[C@@H](O[C@]2([H])O[C@H](CO[C@@H]1O[C@H](CO)[C@@H](O)[C@H](O)[C@H]1O)[C@@H](O)[C@H](O)[C@H]2O)CC[C@]3(C)[C@@]4([H])CC[C@]5(C)[C@@]6(O)[C@H](C)C(=O)CCC(C)C)[C@@H]7OC(C)=O)OC[C@@H](O)[C@H](O)[C@H]8OC(=O)c9ccc(OC)c(OC)c9

>  <ChEMBL_id>  (401) 


>  <ZINC_id>  (401) 


>  <PubChem_id>  (401) 


>  <DrugBank_id>  (401) 


>  <CAS_no>  (401) 
474125-92-3

>  <references>  (401) 
[{'journal': {'name': 'Journal of Natural Products', 'id': 5}, 'title': 'Cholestane Glycosides from the Bulbs of Ornithogalum thyrsoides and Their Cytotoxic Activity against HL-60 Leukemia Cells', 'year': 2002, 'start_page': 1417, 'volume': 65, 'issue': 10, 'doi': '10.1021/np020114j', 'isbn': '', 'despositor': {'code': 'NFA', 'first_name': 'Ngonidzashe', 'last_name': 'Faya', 'id': 21}, 'refauthors_set': [{'author': {'first_name': 'Minpei', 'initials': 'M', 'last_name': 'Kuroda', 'id': 644}, 'first_author': True, 'id': 1199}, {'author': {'first_name': 'Yoshihiro ', 'initials': 'Y', 'last_name': 'Mimaki', 'id': 643}, 'first_author': None, 'id': 1200}, {'author': {'first_name': 'Akihito ', 'initials': 'A', 'last_name': 'Yokosuka', 'id': 650}, 'first_author': None, 'id': 1201}, {'author': {'first_name': 'Fusako', 'initials': 'F', 'last_name': 'Hasegawa', 'id': 711}, 'first_author': None, 'id': 1202}, {'author': {'first_name': 'Yutaka', 'initials': 'Y', 'last_name': 'Sashida', 'id': 645}, 'first_author': None, 'id': 1203}], 'id': 341}]

>  <classifications>  (401) 
[{'classification': 'Cholestane', 'id': 761}, {'classification': 'Glycoside', 'id': 781}, {'classification': 'Steroids and steroid derivatives (Classyfire)', 'id': 942}]

>  <molecular_mass>  (401) 
1227.34

$$$$
SANC00504_minRM1.pdb
     RDKit          3D

180188  0  0  1  0  0  0  0  0999 V2000
   -2.9510    2.6970   -1.2210 H   0  0  0  0  0  0  0  0  0  0  0  0
   -2.9310    2.0080   -0.3260 C   0  0  2  0  0  0  0  0  0  0  0  0
   -2.4220    0.7400   -0.6220 O   0  0  0  0  0  0  0  0  0  0  0  0
   -1.1220    0.7170   -1.1480 C   0  0  1  0  0  0  0  0  0  0  0  0
   -0.8660    1.6920   -1.6530 H   0  0  0  0  0  0  0  0  0  0  0  0
   -0.0750    0.4580   -0.0460 C   0  0  0  0  0  0  0  0  0  0  0  0
    1.0400   -0.2040   -0.8450 C   0  0  1  0  0  0  0  0  0  0  0  0
    1.4710    0.5790   -1.5310 H   0  0  0  0  0  0  0  0  0  0  0  0
    2.1950   -0.8180   -0.0700 C   0  0  2  0  0  0  0  0  0  0  0  0
    1.8220   -1.5950    0.6440 H   0  0  0  0  0  0  0  0  0  0  0  0
    2.9190    0.2530    0.7480 C   0  0  0  0  0  0  0  0  0  0  0  0
    4.1990   -0.2620    1.2990 C   0  0  0  0  0  0  0  0  0  0  0  0
    4.8180   -1.3530    0.8460 C   0  0  0  0  0  0  0  0  0  0  0  0
    6.0470   -1.8500    1.5310 C   0  0  0  0  0  0  0  0  0  0  0  0
    7.1540   -2.1660    0.5190 C   0  0  1  0  0  0  0  0  0  0  0  0
    7.5280   -1.2220    0.0420 H   0  0  0  0  0  0  0  0  0  0  0  0
    8.1930   -2.8830    1.1590 O   0  0  0  0  0  0  0  0  0  0  0  0
    9.0310   -2.1400    1.9900 C   0  0  2  0  0  0  0  0  0  0  0  0
    8.4840   -1.4660    2.7090 H   0  0  0  0  0  0  0  0  0  0  0  0
    9.8490   -1.4170    1.1020 O   0  0  0  0  0  0  0  0  0  0  0  0
   10.8260   -0.6520    1.7610 C   0  0  2  0  0  0  0  0  0  0  0  0
   10.3680    0.0750    2.4870 H   0  0  0  0  0  0  0  0  0  0  0  0
   11.5650    0.1040    0.6390 C   0  0  0  0  0  0  0  0  0  0  0  0
   10.5980    0.9980    0.1290 O   0  0  0  0  0  0  0  0  0  0  0  0
   10.9670    1.6370   -1.0560 C   0  0  2  0  0  0  0  0  0  0  0  0
   11.3760    0.9360   -1.8390 H   0  0  0  0  0  0  0  0  0  0  0  0
   11.9150    2.5910   -0.6450 O   0  0  0  0  0  0  0  0  0  0  0  0
   12.3610    3.4050   -1.6990 C   0  0  2  0  0  0  0  0  0  0  0  0
   12.8070    2.7980   -2.5320 H   0  0  0  0  0  0  0  0  0  0  0  0
   13.4420    4.3140   -1.0740 C   0  0  0  0  0  0  0  0  0  0  0  0
   14.5490    3.5050   -0.8080 O   0  0  0  0  0  0  0  0  0  0  0  0
   11.1720    4.2540   -2.2150 C   0  0  1  0  0  0  0  0  0  0  0  0
   10.7770    4.9160   -1.3980 H   0  0  0  0  0  0  0  0  0  0  0  0
   11.6800    4.9890   -3.2840 O   0  0  0  0  0  0  0  0  0  0  0  0
   10.0610    3.2920   -2.7100 C   0  0  2  0  0  0  0  0  0  0  0  0
   10.4190    2.7010   -3.5960 H   0  0  0  0  0  0  0  0  0  0  0  0
    8.9910    4.1180   -3.0450 O   0  0  0  0  0  0  0  0  0  0  0  0
    9.6760    2.3520   -1.5450 C   0  0  1  0  0  0  0  0  0  0  0  0
    9.2020    2.9360   -0.7100 H   0  0  0  0  0  0  0  0  0  0  0  0
    8.8000    1.4180   -2.0950 O   0  0  0  0  0  0  0  0  0  0  0  0
   11.8070   -1.6050    2.4930 C   0  0  1  0  0  0  0  0  0  0  0  0
   12.3310   -2.2720    1.7550 H   0  0  0  0  0  0  0  0  0  0  0  0
   12.6980   -0.7740    3.1680 O   0  0  0  0  0  0  0  0  0  0  0  0
   11.0040   -2.4590    3.5090 C   0  0  2  0  0  0  0  0  0  0  0  0
   10.5690   -1.8070    4.3150 H   0  0  0  0  0  0  0  0  0  0  0  0
   11.9270   -3.3700    4.0250 O   0  0  0  0  0  0  0  0  0  0  0  0
    9.8870   -3.2020    2.7410 C   0  0  1  0  0  0  0  0  0  0  0  0
   10.3300   -3.9380    2.0160 H   0  0  0  0  0  0  0  0  0  0  0  0
    9.1130   -3.8260    3.7170 O   0  0  0  0  0  0  0  0  0  0  0  0
    6.6380   -3.1370   -0.5480 C   0  0  0  0  0  0  0  0  0  0  0  0
    5.4360   -2.5240   -1.2500 C   0  0  0  0  0  0  0  0  0  0  0  0
    4.2910   -2.1910   -0.2830 C   0  0  1  0  0  0  0  0  0  0  0  0
    3.7170   -3.4750    0.3200 C   0  0  0  0  0  0  0  0  0  0  0  0
    3.1970   -1.4210   -1.0670 C   0  0  1  0  0  0  0  0  0  0  0  0
    3.6860   -0.5690   -1.6110 H   0  0  0  0  0  0  0  0  0  0  0  0
    2.5340   -2.3160   -2.1210 C   0  0  0  0  0  0  0  0  0  0  0  0
    1.2980   -1.6920   -2.7750 C   0  0  0  0  0  0  0  0  0  0  0  0
    0.3060   -1.2590   -1.6920 C   0  0  1  0  0  0  0  0  0  0  0  0
   -0.0770   -2.4950   -0.8860 C   0  0  0  0  0  0  0  0  0  0  0  0
   -0.9650   -0.4670   -2.1810 C   0  0  2  0  0  0  0  0  0  0  0  0
   -0.5660    0.0800   -3.4080 O   0  0  0  0  0  0  0  0  0  0  0  0
   -2.2170   -1.3360   -2.4550 C   0  0  2  0  0  0  0  0  0  0  0  0
   -1.8710   -2.1480   -3.1510 H   0  0  0  0  0  0  0  0  0  0  0  0
   -3.3190   -0.5520   -3.1710 C   0  0  0  0  0  0  0  0  0  0  0  0
   -2.8650   -1.9820   -1.2420 C   0  0  0  0  0  0  0  0  0  0  0  0
   -2.8400   -1.4990   -0.1310 O   0  0  0  0  0  0  0  0  0  0  0  0
   -3.6000   -3.2810   -1.5160 C   0  0  0  0  0  0  0  0  0  0  0  0
   -3.9590   -4.0010   -0.2200 C   0  0  0  0  0  0  0  0  0  0  0  0
   -4.5340   -5.3980   -0.4710 C   0  0  1  0  0  0  0  0  0  0  0  0
   -4.8040   -6.0730    0.8720 C   0  0  0  0  0  0  0  0  0  0  0  0
   -5.8270   -5.3370   -1.2730 C   0  0  0  0  0  0  0  0  0  0  0  0
   -2.0800    2.5080    0.6790 O   0  0  0  0  0  0  0  0  0  0  0  0
   -2.5040    3.7250    1.2190 C   0  0  0  0  0  0  0  0  0  0  0  0
   -3.8770    3.5740    1.9090 C   0  0  2  0  0  0  0  0  0  0  0  0
   -4.2120    4.5620    2.3260 H   0  0  0  0  0  0  0  0  0  0  0  0
   -3.8500    2.5920    2.8960 O   0  0  0  0  0  0  0  0  0  0  0  0
   -4.8850    3.0730    0.8480 C   0  0  2  0  0  0  0  0  0  0  0  0
   -4.9960    3.8590    0.0520 H   0  0  0  0  0  0  0  0  0  0  0  0
   -6.0850    2.7500    1.5030 O   0  0  0  0  0  0  0  0  0  0  0  0
   -7.1720    3.5810    1.2190 C   0  0  2  0  0  0  0  0  0  0  0  0
   -7.3810    3.6930    0.1170 H   0  0  0  0  0  0  0  0  0  0  0  0
   -6.8180    4.8120    1.8070 O   0  0  0  0  0  0  0  0  0  0  0  0
   -7.8430    5.7610    1.7770 C   0  0  0  0  0  0  0  0  0  0  0  0
   -9.0510    5.2640    2.5930 C   0  0  1  0  0  0  0  0  0  0  0  0
   -8.7600    5.1060    3.6660 H   0  0  0  0  0  0  0  0  0  0  0  0
  -10.1160    6.1550    2.4590 O   0  0  0  0  0  0  0  0  0  0  0  0
   -9.5480    3.9350    1.9750 C   0  0  2  0  0  0  0  0  0  0  0  0
   -9.9220    4.1080    0.9300 H   0  0  0  0  0  0  0  0  0  0  0  0
  -10.5220    3.3500    2.7750 O   0  0  0  0  0  0  0  0  0  0  0  0
   -8.3660    2.9380    1.9810 C   0  0  1  0  0  0  0  0  0  0  0  0
   -8.0680    2.6660    3.0290 H   0  0  0  0  0  0  0  0  0  0  0  0
   -8.7420    1.8440    1.1800 O   0  0  0  0  0  0  0  0  0  0  0  0
   -9.2040    0.7070    1.7720 C   0  0  0  0  0  0  0  0  0  0  0  0
   -9.2640    0.5930    2.9810 O   0  0  0  0  0  0  0  0  0  0  0  0
   -9.5720   -0.3110    0.7650 C   0  0  0  0  0  0  0  0  0  0  0  0
  -10.1920    0.0610   -0.4230 C   0  0  0  0  0  0  0  0  0  0  0  0
  -10.5170   -0.9370   -1.3400 C   0  0  0  0  0  0  0  0  0  0  0  0
  -11.0710   -0.7320   -2.5670 O   0  0  0  0  0  0  0  0  0  0  0  0
  -11.6440    0.5320   -2.7960 C   0  0  0  0  0  0  0  0  0  0  0  0
  -10.2440   -2.2810   -1.0560 C   0  0  0  0  0  0  0  0  0  0  0  0
  -10.6840   -3.2560   -1.9050 O   0  0  0  0  0  0  0  0  0  0  0  0
   -9.6770   -3.6830   -2.7960 C   0  0  0  0  0  0  0  0  0  0  0  0
   -9.6020   -2.6210    0.1430 C   0  0  0  0  0  0  0  0  0  0  0  0
   -9.3400   -3.9520    0.2650 O   0  0  0  0  0  0  0  0  0  0  0  0
   -8.8600   -4.3920    1.5130 C   0  0  0  0  0  0  0  0  0  0  0  0
   -9.2690   -1.6330    1.0690 C   0  0  0  0  0  0  0  0  0  0  0  0
   -4.3590    1.7500    0.2380 C   0  0  1  0  0  0  0  0  0  0  0  0
   -4.3400    0.9260    1.0050 H   0  0  0  0  0  0  0  0  0  0  0  0
   -5.1550    1.4940   -0.8980 O   0  0  0  0  0  0  0  0  0  0  0  0
   -6.0230    0.4460   -0.8990 C   0  0  0  0  0  0  0  0  0  0  0  0
   -6.7290    0.3390   -2.2150 C   0  0  0  0  0  0  0  0  0  0  0  0
   -6.1630   -0.2780    0.0640 O   0  0  0  0  0  0  0  0  0  0  0  0
    0.2410    1.3910    0.4570 H   0  0  0  0  0  0  0  0  0  0  0  0
   -0.4730   -0.1770    0.7690 H   0  0  0  0  0  0  0  0  0  0  0  0
    3.1260    1.1640    0.1430 H   0  0  0  0  0  0  0  0  0  0  0  0
    2.2690    0.6130    1.5750 H   0  0  0  0  0  0  0  0  0  0  0  0
    4.6100    0.3240    2.1270 H   0  0  0  0  0  0  0  0  0  0  0  0
    6.4150   -1.1160    2.2810 H   0  0  0  0  0  0  0  0  0  0  0  0
    5.7990   -2.7470    2.1390 H   0  0  0  0  0  0  0  0  0  0  0  0
   12.4420    0.6530    1.0500 H   0  0  0  0  0  0  0  0  0  0  0  0
   11.9520   -0.5960   -0.1360 H   0  0  0  0  0  0  0  0  0  0  0  0
   13.7650    5.0800   -1.8150 H   0  0  0  0  0  0  0  0  0  0  0  0
   13.0490    4.8660   -0.1930 H   0  0  0  0  0  0  0  0  0  0  0  0
   14.7260    3.5540    0.1420 H   0  0  0  0  0  0  0  0  0  0  0  0
   10.9680    5.5560   -3.6040 H   0  0  0  0  0  0  0  0  0  0  0  0
    8.2910    3.5540   -3.3880 H   0  0  0  0  0  0  0  0  0  0  0  0
    8.5150    0.8300   -1.3880 H   0  0  0  0  0  0  0  0  0  0  0  0
   13.3490   -1.3310    3.6040 H   0  0  0  0  0  0  0  0  0  0  0  0
   11.4710   -3.8990    4.6890 H   0  0  0  0  0  0  0  0  0  0  0  0
    8.4550   -4.3650    3.2680 H   0  0  0  0  0  0  0  0  0  0  0  0
    7.4430   -3.3630   -1.2810 H   0  0  0  0  0  0  0  0  0  0  0  0
    6.3910   -4.1250   -0.1060 H   0  0  0  0  0  0  0  0  0  0  0  0
    5.7540   -1.6110   -1.7990 H   0  0  0  0  0  0  0  0  0  0  0  0
    5.0840   -3.2190   -2.0420 H   0  0  0  0  0  0  0  0  0  0  0  0
    4.4650   -4.0800    0.8500 H   0  0  0  0  0  0  0  0  0  0  0  0
    2.9180   -3.2680    1.0480 H   0  0  0  0  0  0  0  0  0  0  0  0
    3.2810   -4.1360   -0.4470 H   0  0  0  0  0  0  0  0  0  0  0  0
    3.2680   -2.5700   -2.9160 H   0  0  0  0  0  0  0  0  0  0  0  0
    2.2590   -3.3020   -1.6770 H   0  0  0  0  0  0  0  0  0  0  0  0
    1.6150   -0.8470   -3.4220 H   0  0  0  0  0  0  0  0  0  0  0  0
    0.8230   -2.4100   -3.4750 H   0  0  0  0  0  0  0  0  0  0  0  0
    0.7930   -3.1260   -0.6250 H   0  0  0  0  0  0  0  0  0  0  0  0
   -0.5550   -2.2660    0.0740 H   0  0  0  0  0  0  0  0  0  0  0  0
   -0.7280   -3.1850   -1.4420 H   0  0  0  0  0  0  0  0  0  0  0  0
   -1.2220    0.7210   -3.7000 H   0  0  0  0  0  0  0  0  0  0  0  0
   -3.4820    0.4570   -2.7660 H   0  0  0  0  0  0  0  0  0  0  0  0
   -3.1160   -0.4380   -4.2460 H   0  0  0  0  0  0  0  0  0  0  0  0
   -4.3000   -1.0510   -3.1170 H   0  0  0  0  0  0  0  0  0  0  0  0
   -4.5140   -3.0510   -2.1030 H   0  0  0  0  0  0  0  0  0  0  0  0
   -2.9970   -3.9390   -2.1740 H   0  0  0  0  0  0  0  0  0  0  0  0
   -3.0560   -4.0790    0.4230 H   0  0  0  0  0  0  0  0  0  0  0  0
   -4.6690   -3.3860    0.3720 H   0  0  0  0  0  0  0  0  0  0  0  0
   -3.7850   -6.0110   -1.0360 H   0  0  0  0  0  0  0  0  0  0  0  0
   -5.5480   -5.5270    1.4710 H   0  0  0  0  0  0  0  0  0  0  0  0
   -5.1870   -7.0970    0.7510 H   0  0  0  0  0  0  0  0  0  0  0  0
   -3.8970   -6.1510    1.4880 H   0  0  0  0  0  0  0  0  0  0  0  0
   -5.6790   -4.9310   -2.2840 H   0  0  0  0  0  0  0  0  0  0  0  0
   -6.2690   -6.3350   -1.4100 H   0  0  0  0  0  0  0  0  0  0  0  0
   -6.5950   -4.7160   -0.7880 H   0  0  0  0  0  0  0  0  0  0  0  0
   -1.6980    3.9940    1.9330 H   0  0  0  0  0  0  0  0  0  0  0  0
   -2.5320    4.5390    0.4580 H   0  0  0  0  0  0  0  0  0  0  0  0
   -3.1460    2.8190    3.5130 H   0  0  0  0  0  0  0  0  0  0  0  0
   -7.3870    6.6760    2.2130 H   0  0  0  0  0  0  0  0  0  0  0  0
   -8.1450    6.0270    0.7370 H   0  0  0  0  0  0  0  0  0  0  0  0
   -9.9190    6.9260    2.9990 H   0  0  0  0  0  0  0  0  0  0  0  0
  -11.2880    3.9320    2.7700 H   0  0  0  0  0  0  0  0  0  0  0  0
  -10.4080    1.1140   -0.6130 H   0  0  0  0  0  0  0  0  0  0  0  0
  -12.1670    0.3970   -3.7570 H   0  0  0  0  0  0  0  0  0  0  0  0
  -12.3730    0.8400   -2.0310 H   0  0  0  0  0  0  0  0  0  0  0  0
  -10.8870    1.3290   -2.9070 H   0  0  0  0  0  0  0  0  0  0  0  0
   -9.3390   -2.8810   -3.4720 H   0  0  0  0  0  0  0  0  0  0  0  0
   -8.7970   -4.1130   -2.2900 H   0  0  0  0  0  0  0  0  0  0  0  0
  -10.1680   -4.4680   -3.3910 H   0  0  0  0  0  0  0  0  0  0  0  0
   -7.8330   -4.0440    1.7230 H   0  0  0  0  0  0  0  0  0  0  0  0
   -9.5150   -4.1300    2.3610 H   0  0  0  0  0  0  0  0  0  0  0  0
   -8.8420   -5.4850    1.4110 H   0  0  0  0  0  0  0  0  0  0  0  0
   -8.7670   -1.8630    2.0140 H   0  0  0  0  0  0  0  0  0  0  0  0
   -6.1340   -0.2740   -2.9120 H   0  0  0  0  0  0  0  0  0  0  0  0
   -7.7090   -0.1500   -2.0940 H   0  0  0  0  0  0  0  0  0  0  0  0
   -6.9050    1.3130   -2.6950 H   0  0  0  0  0  0  0  0  0  0  0  0
  2  1  1  6
  2  3  1  0
  2107  1  0
  2 72  1  0
  3  4  1  0
  4 60  1  0
  4  5  1  6
  4  6  1  0
  6  7  1  0
  6113  1  0
  6114  1  0
  7 58  1  0
  7  8  1  6
  7  9  1  0
  9 54  1  0
  9 10  1  1
  9 11  1  0
 11115  1  0
 11 12  1  0
 11116  1  0
 12 13  2  0
 12117  1  0
 13 52  1  0
 13 14  1  0
 14 15  1  0
 14119  1  0
 14118  1  0
 15 50  1  0
 15 16  1  6
 15 17  1  0
 17 18  1  0
 18 20  1  0
 18 19  1  1
 18 47  1  0
 20 21  1  0
 21 23  1  0
 21 22  1  1
 21 41  1  0
 23121  1  0
 23 24  1  0
 23120  1  0
 24 25  1  0
 25 26  1  6
 25 38  1  0
 25 27  1  0
 27 28  1  0
 28 29  1  6
 28 32  1  0
 28 30  1  0
 30122  1  0
 30 31  1  0
 30123  1  0
 31124  1  0
 32 34  1  0
 32 35  1  0
 32 33  1  1
 34125  1  0
 35 36  1  6
 35 37  1  0
 35 38  1  0
 37126  1  0
 38 40  1  0
 38 39  1  1
 40127  1  0
 41 42  1  6
 41 43  1  0
 41 44  1  0
 43128  1  0
 44 47  1  0
 44 46  1  0
 44 45  1  1
 46129  1  0
 47 48  1  6
 47 49  1  0
 49130  1  0
 50131  1  0
 50 51  1  0
 50132  1  0
 51134  1  0
 51133  1  0
 51 52  1  0
 52 54  1  0
 52 53  1  1
 53137  1  0
 53135  1  0
 53136  1  0
 54 56  1  0
 54 55  1  6
 56138  1  0
 56 57  1  0
 56139  1  0
 57141  1  0
 57140  1  0
 57 58  1  0
 58 60  1  0
 58 59  1  1
 59144  1  0
 59142  1  0
 59143  1  0
 60 61  1  6
 60 62  1  0
 61145  1  0
 62 64  1  0
 62 63  1  6
 62 65  1  0
 64147  1  0
 64148  1  0
 64146  1  0
 65 67  1  0
 65 66  2  0
 67150  1  0
 67149  1  0
 67 68  1  0
 68 69  1  0
 68152  1  0
 68151  1  0
 69 71  1  0
 69153  1  6
 69 70  1  0
 70155  1  0
 70154  1  0
 70156  1  0
 71157  1  0
 71158  1  0
 71159  1  0
 72 73  1  0
 73161  1  0
 73 74  1  0
 73160  1  0
 74 77  1  0
 74 75  1  1
 74 76  1  0
 76162  1  0
 77 78  1  6
 77107  1  0
 77 79  1  0
 79 80  1  0
 80 81  1  6
 80 82  1  0
 80 90  1  0
 82 83  1  0
 83164  1  0
 83163  1  0
 83 84  1  0
 84 87  1  0
 84 86  1  0
 84 85  1  1
 86165  1  0
 87 88  1  6
 87 90  1  0
 87 89  1  0
 89166  1  0
 90 92  1  0
 90 91  1  1
 92 93  1  0
 93 95  1  0
 93 94  2  0
 95 96  2  0
 95106  1  0
 96 97  1  0
 96167  1  0
 97 98  1  0
 97100  2  0
 98 99  1  0
 99168  1  0
 99170  1  0
 99169  1  0
100101  1  0
100103  1  0
101102  1  0
102171  1  0
102173  1  0
102172  1  0
103104  1  0
103106  2  0
104105  1  0
105176  1  0
105174  1  0
105175  1  0
106177  1  0
107109  1  0
107108  1  1
109110  1  0
110111  1  0
110112  2  0
111178  1  0
111180  1  0
111179  1  0
M  END
>  <id>  (402) 
504

>  <scaffolds>  (402) 
['c1ccccc1', 'C1=C2CCCCC2C2CCC3CCCC3C2C1', 'C1=CCCCC1', 'C1=CCC2CCCCC2C1', 'C1=C2CCCCC2C2CCC3CC(OC4CCCCO4)CC3C2C1', 'C1CCOCC1', 'C1=C2CC(OC3CCCCO3)CCC2C2CCC3CCCC3C2C1', 'O=C(OC1CCCOC1OC1CCOC(OC2CC3CCC4C5CCC(OC6CCCCO6)CC5=CCC4C3C2)C1)c1ccccc1', 'C1=C2CC(OC3CCCCO3)CCC2C2CCC3CC(OC4CCCCO4)CC3C2C1', 'C1CCCCC1', 'O=C(OC1CCCOC1OC1CCOC(OC2CC3CCC4C5CCCCC5=CCC4C3C2)C1)c1ccccc1', 'O=C(OC1CCCOC1OC1CCOC(OC2CC3CCC4C5CCC(OC6CCCC(COC7CCCCO7)O6)CC5=CCC4C3C2)C1)c1ccccc1', 'C1=C2CC(OC3CCCC(COC4CCCCO4)O3)CCC2C2CCC3CC(OC4CC(OC5CCCCO5)CCO4)CC3C2C1', 'C1=C2CCCCC2C2CCC3CC(OC4CC(OC5CCCCO5)CCO4)CC3C2C1', 'C1=C2CCCCC2CCC1', 'C1=C2CC(OC3CCCCO3)CCC2C2CCC3CC(OC4CC(OC5CCCCO5)CCO4)CC3C2C1']

>  <name>  (402) 
3[beta]-[(O-[beta]-D-glucopyranosyl-(1[to]6)-[beta]-D-glucopyranosyl)oxy)]-17[alpha]-hydroxy-16[beta]-[(O-(2-O-3,4,5-trimethoxybenzoyl-[beta]-D-xylopyranosyl)-(1[to]3)-2-O-acetyl-[alpha]-L-arabinopyranosyl)oxy]cholest-5-en-22-one

>  <formula>  (402) 
C61H92O27

>  <SMILES>  (402) 
[H][C@@]9(O[C@H]6C[C@@]5([H])[C@]4([H])CC=C3C[C@@H](O[C@]2([H])O[C@H](CO[C@@H]1O[C@H](CO)[C@@H](O)[C@H](O)[C@H]1O)[C@@H](O)[C@H](O)[C@H]2O)CC[C@]3(C)[C@@]4([H])CC[C@]5(C)[C@@]6(O)[C@H](C)C(=O)CCC(C)C)OC[C@H](O)[C@H](O[C@]7([H])OC[C@@H](O)[C@H](O)[C@H]7OC(=O)c8cc(OC)c(OC)c(OC)c8)[C@H]9OC(C)=O

>  <ChEMBL_id>  (402) 


>  <ZINC_id>  (402) 


>  <PubChem_id>  (402) 


>  <DrugBank_id>  (402) 


>  <CAS_no>  (402) 
474125-93-4

>  <references>  (402) 
[{'journal': {'name': 'Journal of Natural Products', 'id': 5}, 'title': 'Cholestane Glycosides from the Bulbs of Ornithogalum thyrsoides and Their Cytotoxic Activity against HL-60 Leukemia Cells', 'year': 2002, 'start_page': 1417, 'volume': 65, 'issue': 10, 'doi': '10.1021/np020114j', 'isbn': '', 'despositor': {'code': 'NFA', 'first_name': 'Ngonidzashe', 'last_name': 'Faya', 'id': 21}, 'refauthors_set': [{'author': {'first_name': 'Minpei', 'initials': 'M', 'last_name': 'Kuroda', 'id': 644}, 'first_author': True, 'id': 1199}, {'author': {'first_name': 'Yoshihiro ', 'initials': 'Y', 'last_name': 'Mimaki', 'id': 643}, 'first_author': None, 'id': 1200}, {'author': {'first_name': 'Akihito ', 'initials': 'A', 'last_name': 'Yokosuka', 'id': 650}, 'first_author': None, 'id': 1201}, {'author': {'first_name': 'Fusako', 'initials': 'F', 'last_name': 'Hasegawa', 'id': 711}, 'first_author': None, 'id': 1202}, {'author': {'first_name': 'Yutaka', 'initials': 'Y', 'last_name': 'Sashida', 'id': 645}, 'first_author': None, 'id': 1203}], 'id': 341}]

>  <classifications>  (402) 
[{'classification': 'Cholestane', 'id': 761}, {'classification': 'Glycoside', 'id': 781}, {'classification': 'Steroids and steroid derivatives (Classyfire)', 'id': 942}]

>  <molecular_mass>  (402) 
1257.36

$$$$
SANC00505_minRM1.pdb
     RDKit          3D

201210  0  0  1  0  0  0  0  0999 V2000
   -3.7470    2.6790   -0.1060 H   0  0  0  0  0  0  0  0  0  0  0  0
   -3.8850    1.7240    0.4810 C   0  0  2  0  0  0  0  0  0  0  0  0
   -3.5530    0.5820   -0.2500 O   0  0  0  0  0  0  0  0  0  0  0  0
   -2.2360    0.5170   -0.7280 C   0  0  1  0  0  0  0  0  0  0  0  0
   -1.8030    1.5480   -0.8660 H   0  0  0  0  0  0  0  0  0  0  0  0
   -1.3300   -0.2720    0.2350 C   0  0  0  0  0  0  0  0  0  0  0  0
   -0.2650   -0.7950   -0.7200 C   0  0  1  0  0  0  0  0  0  0  0  0
    0.3320    0.0920   -1.0720 H   0  0  0  0  0  0  0  0  0  0  0  0
    0.7120   -1.8280   -0.1850 C   0  0  2  0  0  0  0  0  0  0  0  0
    0.1670   -2.7310    0.1850 H   0  0  0  0  0  0  0  0  0  0  0  0
    1.5080   -1.2540    0.9870 C   0  0  0  0  0  0  0  0  0  0  0  0
    2.6270   -2.1570    1.3600 C   0  0  0  0  0  0  0  0  0  0  0  0
    3.1060   -3.1110    0.5600 C   0  0  0  0  0  0  0  0  0  0  0  0
    4.1490   -4.0520    1.0600 C   0  0  0  0  0  0  0  0  0  0  0  0
    5.2990   -4.1670    0.0530 C   0  0  1  0  0  0  0  0  0  0  0  0
    5.8510   -3.1920   -0.0250 H   0  0  0  0  0  0  0  0  0  0  0  0
    6.1530   -5.2290    0.4360 O   0  0  0  0  0  0  0  0  0  0  0  0
    7.0220   -4.9530    1.4910 C   0  0  2  0  0  0  0  0  0  0  0  0
    6.5280   -4.4570    2.3740 H   0  0  0  0  0  0  0  0  0  0  0  0
    8.0150   -4.1410    0.9090 O   0  0  0  0  0  0  0  0  0  0  0  0
    9.0370   -3.8020    1.8120 C   0  0  2  0  0  0  0  0  0  0  0  0
    8.6380   -3.2770    2.7220 H   0  0  0  0  0  0  0  0  0  0  0  0
    9.9640   -2.8590    1.0180 C   0  0  0  0  0  0  0  0  0  0  0  0
    9.1660   -1.7180    0.7930 O   0  0  0  0  0  0  0  0  0  0  0  0
    9.7440   -0.7420   -0.0180 C   0  0  2  0  0  0  0  0  0  0  0  0
   10.2020   -1.1510   -0.9640 H   0  0  0  0  0  0  0  0  0  0  0  0
   10.7030   -0.1330    0.8120 O   0  0  0  0  0  0  0  0  0  0  0  0
   11.3450    0.9540    0.2020 C   0  0  2  0  0  0  0  0  0  0  0  0
   11.8610    0.6460   -0.7500 H   0  0  0  0  0  0  0  0  0  0  0  0
   12.3930    1.4290    1.2340 C   0  0  0  0  0  0  0  0  0  0  0  0
   13.4840    0.5620    1.1670 O   0  0  0  0  0  0  0  0  0  0  0  0
   10.3120    2.0810   -0.0860 C   0  0  1  0  0  0  0  0  0  0  0  0
    9.8840    2.4760    0.8730 H   0  0  0  0  0  0  0  0  0  0  0  0
   11.0310    3.0310   -0.8350 O   0  0  0  0  0  0  0  0  0  0  0  0
   10.8090    4.3750   -0.5200 C   0  0  2  0  0  0  0  0  0  0  0  0
   10.7820    4.5790    0.5890 H   0  0  0  0  0  0  0  0  0  0  0  0
    9.5930    4.6800   -1.1540 O   0  0  0  0  0  0  0  0  0  0  0  0
    9.2390    6.0350   -1.0200 C   0  0  2  0  0  0  0  0  0  0  0  0
    9.1570    6.3400    0.0590 H   0  0  0  0  0  0  0  0  0  0  0  0
    7.8570    6.1580   -1.7030 C   0  0  0  0  0  0  0  0  0  0  0  0
    6.8750    5.6500   -0.8530 O   0  0  0  0  0  0  0  0  0  0  0  0
   10.2840    6.9100   -1.7570 C   0  0  1  0  0  0  0  0  0  0  0  0
   10.3030    6.6580   -2.8520 H   0  0  0  0  0  0  0  0  0  0  0  0
    9.8960    8.2280   -1.5300 O   0  0  0  0  0  0  0  0  0  0  0  0
   11.6750    6.6530   -1.1220 C   0  0  2  0  0  0  0  0  0  0  0  0
   11.6900    6.9980   -0.0520 H   0  0  0  0  0  0  0  0  0  0  0  0
   12.5750    7.3740   -1.9040 O   0  0  0  0  0  0  0  0  0  0  0  0
   11.9740    5.1390   -1.2160 C   0  0  1  0  0  0  0  0  0  0  0  0
   12.0690    4.8240   -2.2910 H   0  0  0  0  0  0  0  0  0  0  0  0
   13.1530    4.9460   -0.5010 O   0  0  0  0  0  0  0  0  0  0  0  0
    9.1870    1.5200   -0.9890 C   0  0  2  0  0  0  0  0  0  0  0  0
    9.5940    1.2740   -2.0080 H   0  0  0  0  0  0  0  0  0  0  0  0
    8.1920    2.4990   -1.0250 O   0  0  0  0  0  0  0  0  0  0  0  0
    8.5920    0.2570   -0.3160 C   0  0  1  0  0  0  0  0  0  0  0  0
    8.0570    0.5350    0.6340 H   0  0  0  0  0  0  0  0  0  0  0  0
    7.7330   -0.2910   -1.2670 O   0  0  0  0  0  0  0  0  0  0  0  0
    9.8000   -5.0910    2.2160 C   0  0  1  0  0  0  0  0  0  0  0  0
   10.2720   -5.5680    1.3140 H   0  0  0  0  0  0  0  0  0  0  0  0
   10.7490   -4.6800    3.1500 O   0  0  0  0  0  0  0  0  0  0  0  0
    8.7920   -6.0700    2.8750 C   0  0  2  0  0  0  0  0  0  0  0  0
    8.4000   -5.6420    3.8390 H   0  0  0  0  0  0  0  0  0  0  0  0
    9.5160   -7.2410    3.0950 O   0  0  0  0  0  0  0  0  0  0  0  0
    7.6380   -6.3290    1.8780 C   0  0  1  0  0  0  0  0  0  0  0  0
    8.0190   -6.8660    0.9670 H   0  0  0  0  0  0  0  0  0  0  0  0
    6.7020   -7.0830    2.5820 O   0  0  0  0  0  0  0  0  0  0  0  0
    4.7600   -4.5860   -1.3170 C   0  0  0  0  0  0  0  0  0  0  0  0
    3.7460   -3.5580   -1.7960 C   0  0  0  0  0  0  0  0  0  0  0  0
    2.5730   -3.3850   -0.8190 C   0  0  1  0  0  0  0  0  0  0  0  0
    1.7560   -4.6750   -0.7590 C   0  0  0  0  0  0  0  0  0  0  0  0
    1.7010   -2.1970   -1.3030 C   0  0  1  0  0  0  0  0  0  0  0  0
    2.3660   -1.3090   -1.4700 H   0  0  0  0  0  0  0  0  0  0  0  0
    1.0290   -2.5120   -2.6460 C   0  0  0  0  0  0  0  0  0  0  0  0
   -0.0660   -1.5210   -3.0500 C   0  0  0  0  0  0  0  0  0  0  0  0
   -1.0690   -1.3600   -1.9030 C   0  0  1  0  0  0  0  0  0  0  0  0
   -1.6520   -2.7390   -1.6080 C   0  0  0  0  0  0  0  0  0  0  0  0
   -2.1830   -0.2650   -2.1030 C   0  0  2  0  0  0  0  0  0  0  0  0
   -1.6410    0.5960   -3.0660 O   0  0  0  0  0  0  0  0  0  0  0  0
   -3.5240   -0.8010   -2.6600 C   0  0  2  0  0  0  0  0  0  0  0  0
   -3.2600   -1.3810   -3.5860 H   0  0  0  0  0  0  0  0  0  0  0  0
   -4.4740    0.3240   -3.0740 C   0  0  0  0  0  0  0  0  0  0  0  0
   -4.2870   -1.7100   -1.7140 C   0  0  0  0  0  0  0  0  0  0  0  0
   -4.2110   -1.6230   -0.5070 O   0  0  0  0  0  0  0  0  0  0  0  0
   -5.1920   -2.7400   -2.3640 C   0  0  0  0  0  0  0  0  0  0  0  0
   -5.6630   -3.7700   -1.3400 C   0  0  0  0  0  0  0  0  0  0  0  0
   -6.4050   -4.9430   -1.9870 C   0  0  1  0  0  0  0  0  0  0  0  0
   -6.8040   -5.9410   -0.9020 C   0  0  0  0  0  0  0  0  0  0  0  0
   -7.6520   -4.4730   -2.7240 C   0  0  0  0  0  0  0  0  0  0  0  0
   -3.0450    1.6920    1.6100 O   0  0  0  0  0  0  0  0  0  0  0  0
   -3.3260    2.6930    2.5470 C   0  0  0  0  0  0  0  0  0  0  0  0
   -4.7600    2.5550    3.1070 C   0  0  2  0  0  0  0  0  0  0  0  0
   -4.9750    3.3920    3.8260 H   0  0  0  0  0  0  0  0  0  0  0  0
   -4.9570    1.3110    3.6990 O   0  0  0  0  0  0  0  0  0  0  0  0
   -5.7430    2.6150    1.9140 C   0  0  2  0  0  0  0  0  0  0  0  0
   -5.6700    3.6290    1.4340 H   0  0  0  0  0  0  0  0  0  0  0  0
   -7.0280    2.2970    2.3830 O   0  0  0  0  0  0  0  0  0  0  0  0
   -7.9600    3.3360    2.3430 C   0  0  2  0  0  0  0  0  0  0  0  0
   -8.0320    3.8460    1.3400 H   0  0  0  0  0  0  0  0  0  0  0  0
   -7.5060    4.2200    3.3440 O   0  0  0  0  0  0  0  0  0  0  0  0
   -8.3760    5.2870    3.5830 C   0  0  0  0  0  0  0  0  0  0  0  0
   -9.7330    4.7630    4.0910 C   0  0  1  0  0  0  0  0  0  0  0  0
   -9.6030    4.2170    5.0620 H   0  0  0  0  0  0  0  0  0  0  0  0
  -10.6410    5.8180    4.1920 O   0  0  0  0  0  0  0  0  0  0  0  0
  -10.3300    3.8140    3.0230 C   0  0  2  0  0  0  0  0  0  0  0  0
  -10.5440    4.3800    2.0760 H   0  0  0  0  0  0  0  0  0  0  0  0
  -11.4660    3.1820    3.5060 O   0  0  0  0  0  0  0  0  0  0  0  0
   -9.3060    2.6820    2.7670 C   0  0  1  0  0  0  0  0  0  0  0  0
   -9.1680    2.0400    3.6790 H   0  0  0  0  0  0  0  0  0  0  0  0
   -9.7410    1.9830    1.6270 O   0  0  0  0  0  0  0  0  0  0  0  0
  -10.4020    0.8080    1.7650 C   0  0  0  0  0  0  0  0  0  0  0  0
  -10.5950    0.3120    2.8540 O   0  0  0  0  0  0  0  0  0  0  0  0
  -10.8140    0.2520    0.4580 C   0  0  0  0  0  0  0  0  0  0  0  0
  -11.2430    1.0940   -0.5620 C   0  0  0  0  0  0  0  0  0  0  0  0
  -11.6660    0.5210   -1.7580 C   0  0  0  0  0  0  0  0  0  0  0  0
  -12.0670    1.2020   -2.8650 O   0  0  0  0  0  0  0  0  0  0  0  0
  -12.2980    2.5720   -2.7350 C   0  0  0  0  0  0  0  0  0  0  0  0
  -11.6660   -0.8710   -1.9220 C   0  0  0  0  0  0  0  0  0  0  0  0
  -12.2320   -1.4210   -3.0360 O   0  0  0  0  0  0  0  0  0  0  0  0
  -11.2790   -1.7250   -4.0290 C   0  0  0  0  0  0  0  0  0  0  0  0
  -11.1800   -1.6890   -0.8950 C   0  0  0  0  0  0  0  0  0  0  0  0
  -11.1480   -3.0100   -1.2190 O   0  0  0  0  0  0  0  0  0  0  0  0
  -10.9410   -3.9200   -0.1550 C   0  0  0  0  0  0  0  0  0  0  0  0
  -10.7620   -1.1300    0.3160 C   0  0  0  0  0  0  0  0  0  0  0  0
   -5.3680    1.5060    0.9040 C   0  0  1  0  0  0  0  0  0  0  0  0
   -5.5030    0.4820    1.3550 H   0  0  0  0  0  0  0  0  0  0  0  0
   -6.1240    1.7490   -0.2600 O   0  0  0  0  0  0  0  0  0  0  0  0
   -7.1040    0.8780   -0.6270 C   0  0  0  0  0  0  0  0  0  0  0  0
   -7.7020    1.2690   -1.9420 C   0  0  0  0  0  0  0  0  0  0  0  0
   -7.4030   -0.0810    0.0550 O   0  0  0  0  0  0  0  0  0  0  0  0
   -0.9180    0.3670    1.0390 H   0  0  0  0  0  0  0  0  0  0  0  0
   -1.8800   -1.0700    0.7690 H   0  0  0  0  0  0  0  0  0  0  0  0
    1.9130   -0.2430    0.7620 H   0  0  0  0  0  0  0  0  0  0  0  0
    0.8390   -1.1000    1.8640 H   0  0  0  0  0  0  0  0  0  0  0  0
    3.0400   -1.9920    2.3600 H   0  0  0  0  0  0  0  0  0  0  0  0
    4.5400   -3.7350    2.0520 H   0  0  0  0  0  0  0  0  0  0  0  0
    3.6970   -5.0480    1.2610 H   0  0  0  0  0  0  0  0  0  0  0  0
   10.8760   -2.6180    1.6080 H   0  0  0  0  0  0  0  0  0  0  0  0
   10.3060   -3.3260    0.0660 H   0  0  0  0  0  0  0  0  0  0  0  0
   12.7600    2.4580    0.9820 H   0  0  0  0  0  0  0  0  0  0  0  0
   11.9370    1.5080    2.2560 H   0  0  0  0  0  0  0  0  0  0  0  0
   13.5060    0.0500    1.9850 H   0  0  0  0  0  0  0  0  0  0  0  0
    7.5910    7.2320   -1.8380 H   0  0  0  0  0  0  0  0  0  0  0  0
    7.8640    5.7010   -2.7200 H   0  0  0  0  0  0  0  0  0  0  0  0
    6.8080    4.6820   -1.0210 H   0  0  0  0  0  0  0  0  0  0  0  0
   10.5030    8.7990   -2.0120 H   0  0  0  0  0  0  0  0  0  0  0  0
   13.4490    7.2770   -1.5120 H   0  0  0  0  0  0  0  0  0  0  0  0
   13.4720    4.0600   -0.6850 H   0  0  0  0  0  0  0  0  0  0  0  0
    7.6500    2.3110   -1.7970 H   0  0  0  0  0  0  0  0  0  0  0  0
    7.2880   -1.0400   -0.8550 H   0  0  0  0  0  0  0  0  0  0  0  0
   11.2590   -5.4580    3.4030 H   0  0  0  0  0  0  0  0  0  0  0  0
    8.9290   -7.8710    3.5250 H   0  0  0  0  0  0  0  0  0  0  0  0
    6.0000   -7.3200    1.9670 H   0  0  0  0  0  0  0  0  0  0  0  0
    5.5940   -4.6810   -2.0460 H   0  0  0  0  0  0  0  0  0  0  0  0
    4.3160   -5.6040   -1.2780 H   0  0  0  0  0  0  0  0  0  0  0  0
    4.2540   -2.5860   -1.9730 H   0  0  0  0  0  0  0  0  0  0  0  0
    3.3720   -3.8630   -2.7970 H   0  0  0  0  0  0  0  0  0  0  0  0
    2.3540   -5.5520   -0.4750 H   0  0  0  0  0  0  0  0  0  0  0  0
    0.9360   -4.6110   -0.0260 H   0  0  0  0  0  0  0  0  0  0  0  0
    1.2960   -4.9220   -1.7300 H   0  0  0  0  0  0  0  0  0  0  0  0
    1.7950   -2.5370   -3.4510 H   0  0  0  0  0  0  0  0  0  0  0  0
    0.6080   -3.5440   -2.6410 H   0  0  0  0  0  0  0  0  0  0  0  0
    0.4020   -0.5580   -3.3420 H   0  0  0  0  0  0  0  0  0  0  0  0
   -0.5820   -1.8640   -3.9710 H   0  0  0  0  0  0  0  0  0  0  0  0
   -0.8790   -3.5260   -1.5540 H   0  0  0  0  0  0  0  0  0  0  0  0
   -2.1790   -2.8100   -0.6490 H   0  0  0  0  0  0  0  0  0  0  0  0
   -2.3210   -3.1000   -2.4010 H   0  0  0  0  0  0  0  0  0  0  0  0
   -2.1950    1.3780   -3.1460 H   0  0  0  0  0  0  0  0  0  0  0  0
   -4.4790    1.1780   -2.3810 H   0  0  0  0  0  0  0  0  0  0  0  0
   -4.2380    0.7250   -4.0700 H   0  0  0  0  0  0  0  0  0  0  0  0
   -5.5280    0.0010   -3.1340 H   0  0  0  0  0  0  0  0  0  0  0  0
   -6.0530   -2.2120   -2.8230 H   0  0  0  0  0  0  0  0  0  0  0  0
   -4.6780   -3.2380   -3.2110 H   0  0  0  0  0  0  0  0  0  0  0  0
   -4.7890   -4.1510   -0.7680 H   0  0  0  0  0  0  0  0  0  0  0  0
   -6.3010   -3.2780   -0.5740 H   0  0  0  0  0  0  0  0  0  0  0  0
   -5.7220   -5.4580   -2.7140 H   0  0  0  0  0  0  0  0  0  0  0  0
   -7.5090   -5.5060   -0.1760 H   0  0  0  0  0  0  0  0  0  0  0  0
   -7.2920   -6.8330   -1.3210 H   0  0  0  0  0  0  0  0  0  0  0  0
   -5.9400   -6.3000   -0.3260 H   0  0  0  0  0  0  0  0  0  0  0  0
   -8.2890   -3.8300   -2.0970 H   0  0  0  0  0  0  0  0  0  0  0  0
   -7.4140   -3.9040   -3.6360 H   0  0  0  0  0  0  0  0  0  0  0  0
   -8.2800   -5.3160   -3.0510 H   0  0  0  0  0  0  0  0  0  0  0  0
   -2.5520    2.5430    3.3290 H   0  0  0  0  0  0  0  0  0  0  0  0
   -3.1610    3.7150    2.1320 H   0  0  0  0  0  0  0  0  0  0  0  0
   -4.3310    1.2330    4.4250 H   0  0  0  0  0  0  0  0  0  0  0  0
   -7.8530    5.9020    4.3450 H   0  0  0  0  0  0  0  0  0  0  0  0
   -8.5040    5.9380    2.6870 H   0  0  0  0  0  0  0  0  0  0  0  0
  -10.4150    6.3170    4.9820 H   0  0  0  0  0  0  0  0  0  0  0  0
  -12.1400    3.8570    3.6370 H   0  0  0  0  0  0  0  0  0  0  0  0
  -11.2340    2.1750   -0.4110 H   0  0  0  0  0  0  0  0  0  0  0  0
  -13.0250    2.8190   -1.9470 H   0  0  0  0  0  0  0  0  0  0  0  0
  -11.3820    3.1550   -2.5690 H   0  0  0  0  0  0  0  0  0  0  0  0
  -12.7270    2.8580   -3.7070 H   0  0  0  0  0  0  0  0  0  0  0  0
  -10.5220   -2.4550   -3.6990 H   0  0  0  0  0  0  0  0  0  0  0  0
  -11.8710   -2.1720   -4.8400 H   0  0  0  0  0  0  0  0  0  0  0  0
  -10.7560   -0.8320   -4.4100 H   0  0  0  0  0  0  0  0  0  0  0  0
  -11.1260   -4.8940   -0.6480 H   0  0  0  0  0  0  0  0  0  0  0  0
   -9.9010   -3.8990    0.2190 H   0  0  0  0  0  0  0  0  0  0  0  0
  -11.6430   -3.8020    0.6880 H   0  0  0  0  0  0  0  0  0  0  0  0
  -10.3930   -1.7410    1.1460 H   0  0  0  0  0  0  0  0  0  0  0  0
   -7.1300    0.8090   -2.7650 H   0  0  0  0  0  0  0  0  0  0  0  0
   -8.7450    0.9230   -2.0140 H   0  0  0  0  0  0  0  0  0  0  0  0
   -7.7060    2.3520   -2.1130 H   0  0  0  0  0  0  0  0  0  0  0  0
  2  1  1  6
  2  3  1  0
  2123  1  0
  2 88  1  0
  3  4  1  0
  4 76  1  0
  4  5  1  6
  4  6  1  0
  6  7  1  0
  6130  1  0
  6129  1  0
  7 74  1  0
  7  8  1  6
  7  9  1  0
  9 70  1  0
  9 10  1  1
  9 11  1  0
 11131  1  0
 11 12  1  0
 11132  1  0
 12 13  2  0
 12133  1  0
 13 68  1  0
 13 14  1  0
 14 15  1  0
 14135  1  0
 14134  1  0
 15 66  1  0
 15 16  1  6
 15 17  1  0
 17 18  1  0
 18 20  1  0
 18 63  1  0
 18 19  1  1
 20 21  1  0
 21 23  1  0
 21 57  1  0
 21 22  1  1
 23137  1  0
 23 24  1  0
 23136  1  0
 24 25  1  0
 25 26  1  6
 25 54  1  0
 25 27  1  0
 27 28  1  0
 28 29  1  6
 28 32  1  0
 28 30  1  0
 30138  1  0
 30 31  1  0
 30139  1  0
 31140  1  0
 32 51  1  0
 32 34  1  0
 32 33  1  1
 34 35  1  0
 35 48  1  0
 35 37  1  0
 35 36  1  1
 37 38  1  0
 38 42  1  0
 38 40  1  0
 38 39  1  1
 40142  1  0
 40141  1  0
 40 41  1  0
 41143  1  0
 42 43  1  6
 42 44  1  0
 42 45  1  0
 44144  1  0
 45 47  1  0
 45 48  1  0
 45 46  1  1
 47145  1  0
 48 49  1  6
 48 50  1  0
 50146  1  0
 51 52  1  6
 51 53  1  0
 51 54  1  0
 53147  1  0
 54 56  1  0
 54 55  1  1
 56148  1  0
 57 58  1  6
 57 60  1  0
 57 59  1  0
 59149  1  0
 60 63  1  0
 60 62  1  0
 60 61  1  1
 62150  1  0
 63 64  1  6
 63 65  1  0
 65151  1  0
 66152  1  0
 66 67  1  0
 66153  1  0
 67155  1  0
 67154  1  0
 67 68  1  0
 68 70  1  0
 68 69  1  1
 69158  1  0
 69156  1  0
 69157  1  0
 70 72  1  0
 70 71  1  6
 72159  1  0
 72 73  1  0
 72160  1  0
 73162  1  0
 73161  1  0
 73 74  1  0
 74 76  1  0
 74 75  1  1
 75165  1  0
 75163  1  0
 75164  1  0
 76 77  1  6
 76 78  1  0
 77166  1  0
 78 79  1  6
 78 80  1  0
 78 81  1  0
 80168  1  0
 80169  1  0
 80167  1  0
 81 83  1  0
 81 82  2  0
 83171  1  0
 83170  1  0
 83 84  1  0
 84 85  1  0
 84172  1  0
 84173  1  0
 85 87  1  0
 85174  1  6
 85 86  1  0
 86176  1  0
 86177  1  0
 86175  1  0
 87179  1  0
 87180  1  0
 87178  1  0
 88 89  1  0
 89182  1  0
 89 90  1  0
 89181  1  0
 90 93  1  0
 90 92  1  0
 90 91  1  1
 92183  1  0
 93123  1  0
 93 94  1  6
 93 95  1  0
 95 96  1  0
 96 97  1  6
 96106  1  0
 96 98  1  0
 98 99  1  0
 99185  1  0
 99100  1  0
 99184  1  0
100103  1  0
100102  1  0
100101  1  1
102186  1  0
103104  1  6
103106  1  0
103105  1  0
105187  1  0
106108  1  0
106107  1  1
108109  1  0
109111  1  0
109110  2  0
111112  2  0
111122  1  0
112113  1  0
112188  1  0
113114  1  0
113116  2  0
114115  1  0
115191  1  0
115190  1  0
115189  1  0
116117  1  0
116119  1  0
117118  1  0
118193  1  0
118194  1  0
118192  1  0
119120  1  0
119122  2  0
120121  1  0
121195  1  0
121196  1  0
121197  1  0
122198  1  0
123125  1  0
123124  1  1
125126  1  0
126127  1  0
126128  2  0
127199  1  0
127201  1  0
127200  1  0
M  END
>  <id>  (403) 
505

>  <scaffolds>  (403) 
['c1ccccc1', 'C1=C2CCCCC2C2CCC3CCCC3C2C1', 'C1=CCCCC1', 'C1=CCC2CCCCC2C1', 'C1=C2CCCCC2C2CCC3CC(OC4CCCCO4)CC3C2C1', 'C1CCOCC1', 'C1=C2CC(OC3CCCCO3)CCC2C2CCC3CCCC3C2C1', 'O=C(OC1CCCOC1OC1CCOC(OC2CC3CCC4C5CCC(OC6CCCCO6)CC5=CCC4C3C2)C1)c1ccccc1', 'C1=C2CC(OC3CCCCO3)CCC2C2CCC3CC(OC4CCCCO4)CC3C2C1', 'C1CCCCC1', 'O=C(OC1CCCOC1OC1CCOC(OC2CC3CCC4C5CCC(OC6CCCC(COC7CCC(OC8CCCCO8)CO7)O6)CC5=CCC4C3C2)C1)c1ccccc1', 'O=C(OC1CCCOC1OC1CCOC(OC2CC3CCC4C5CCCCC5=CCC4C3C2)C1)c1ccccc1', 'O=C(OC1CCCOC1OC1CCOC(OC2CC3CCC4C5CCC(OC6CCCC(COC7CCCCO7)O6)CC5=CCC4C3C2)C1)c1ccccc1', 'C1=C2CC(OC3CCCC(COC4CCCCO4)O3)CCC2C2CCC3CC(OC4CC(OC5CCCCO5)CCO4)CC3C2C1', 'C1=C2CCCCC2C2CCC3CC(OC4CC(OC5CCCCO5)CCO4)CC3C2C1', 'C1=C2CCCCC2CCC1', 'C1=C2CC(OC3CCCCO3)CCC2C2CCC3CC(OC4CC(OC5CCCCO5)CCO4)CC3C2C1', 'C1CCC(OC2CCCOC2)OC1', 'C1=C2CC(OC3CCCC(COC4CCC(OC5CCCCO5)CO4)O3)CCC2C2CCC3CC(OC4CC(OC5CCCCO5)CCO4)CC3C2C1']

>  <name>  (403) 
3[beta]-[(O-[beta]-D-glucopyranosyl-(1[to]4)-O-[beta]-D-glucopyranosyl-(1[to]6)-[beta]-D-glucopyranosyl)oxy)]-17[alpha]-hydroxy-16[beta]-[(O-(2-O-3,4,5-trimethoxybenzoyl-[beta]-D-xylopyranosyl)-(1[to]3)-2-O-acetyl-[alpha]-L-arabinopyranosyl)oxy]cholest...

>  <formula>  (403) 
C67H102O32

>  <SMILES>  (403) 
[H][C@@]%10(O[C@H]7C[C@@]6([H])[C@]5([H])CC=C4C[C@@H](O[C@]3([H])O[C@H](CO[C@@H]2O[C@H](CO)[C@@H](O[C@]1([H])O[C@H](CO)[C@@H](O)[C@H](O)[C@H]1O)[C@H](O)[C@H]2O)[C@@H](O)[C@H](O)[C@H]3O)CC[C@]4(C)[C@@]5([H])CC[C@]6(C)[C@@]7(O)[C@H](C)C(=O)CCC(C)C)OC[C@H](O)[C@H](O[C@]8([H])OC[C@@H](O)[C@H](O)[C@H]8OC(=O)c9cc(OC)c(OC)c(OC)c9)[C@H]%10OC(C)=O

>  <ChEMBL_id>  (403) 


>  <ZINC_id>  (403) 


>  <PubChem_id>  (403) 


>  <DrugBank_id>  (403) 


>  <CAS_no>  (403) 
474125-96-7

>  <references>  (403) 
[{'journal': {'name': 'Journal of Natural Products', 'id': 5}, 'title': 'Cholestane Glycosides from the Bulbs of Ornithogalum thyrsoides and Their Cytotoxic Activity against HL-60 Leukemia Cells', 'year': 2002, 'start_page': 1417, 'volume': 65, 'issue': 10, 'doi': '10.1021/np020114j', 'isbn': '', 'despositor': {'code': 'NFA', 'first_name': 'Ngonidzashe', 'last_name': 'Faya', 'id': 21}, 'refauthors_set': [{'author': {'first_name': 'Minpei', 'initials': 'M', 'last_name': 'Kuroda', 'id': 644}, 'first_author': True, 'id': 1199}, {'author': {'first_name': 'Yoshihiro ', 'initials': 'Y', 'last_name': 'Mimaki', 'id': 643}, 'first_author': None, 'id': 1200}, {'author': {'first_name': 'Akihito ', 'initials': 'A', 'last_name': 'Yokosuka', 'id': 650}, 'first_author': None, 'id': 1201}, {'author': {'first_name': 'Fusako', 'initials': 'F', 'last_name': 'Hasegawa', 'id': 711}, 'first_author': None, 'id': 1202}, {'author': {'first_name': 'Yutaka', 'initials': 'Y', 'last_name': 'Sashida', 'id': 645}, 'first_author': None, 'id': 1203}], 'id': 341}]

>  <classifications>  (403) 
[{'classification': 'Cholestane', 'id': 761}, {'classification': 'Glycoside', 'id': 781}, {'classification': 'Steroids and steroid derivatives (Classyfire)', 'id': 942}]

>  <molecular_mass>  (403) 
1419.5

$$$$
SANC00506_minRM1.pdb
     RDKit          3D

194203  0  0  1  0  0  0  0  0999 V2000
    4.0800    2.5790    0.0190 H   0  0  0  0  0  0  0  0  0  0  0  0
    4.2980    1.5680   -0.4320 C   0  0  2  0  0  0  0  0  0  0  0  0
    3.9800    0.5110    0.4220 O   0  0  0  0  0  0  0  0  0  0  0  0
    2.6480    0.4290    0.8520 C   0  0  1  0  0  0  0  0  0  0  0  0
    2.2150    1.4600    0.9950 H   0  0  0  0  0  0  0  0  0  0  0  0
    1.7510   -0.3490   -0.1290 C   0  0  0  0  0  0  0  0  0  0  0  0
    0.6670   -0.8680    0.8070 C   0  0  1  0  0  0  0  0  0  0  0  0
    0.0700    0.0240    1.1470 H   0  0  0  0  0  0  0  0  0  0  0  0
   -0.3120   -1.8920    0.2610 C   0  0  2  0  0  0  0  0  0  0  0  0
    0.2260   -2.8080   -0.0880 H   0  0  0  0  0  0  0  0  0  0  0  0
   -1.0750   -1.3210   -0.9350 C   0  0  0  0  0  0  0  0  0  0  0  0
   -2.1890   -2.2220   -1.3270 C   0  0  0  0  0  0  0  0  0  0  0  0
   -2.6960   -3.1620   -0.5270 C   0  0  0  0  0  0  0  0  0  0  0  0
   -3.7420   -4.0920   -1.0440 C   0  0  0  0  0  0  0  0  0  0  0  0
   -4.9200   -4.1660   -0.0670 C   0  0  1  0  0  0  0  0  0  0  0  0
   -5.4430   -3.1740   -0.0100 H   0  0  0  0  0  0  0  0  0  0  0  0
   -5.7940   -5.2050   -0.4670 O   0  0  0  0  0  0  0  0  0  0  0  0
   -6.6350   -4.9020   -1.5390 C   0  0  2  0  0  0  0  0  0  0  0  0
   -6.1120   -4.4030   -2.4030 H   0  0  0  0  0  0  0  0  0  0  0  0
   -7.6260   -4.0810   -0.9660 O   0  0  0  0  0  0  0  0  0  0  0  0
   -8.6220   -3.7120   -1.8860 C   0  0  2  0  0  0  0  0  0  0  0  0
   -8.1950   -3.1810   -2.7800 H   0  0  0  0  0  0  0  0  0  0  0  0
   -9.5510   -2.7670   -1.0970 C   0  0  0  0  0  0  0  0  0  0  0  0
   -8.7410   -1.6400   -0.8390 O   0  0  0  0  0  0  0  0  0  0  0  0
   -9.3280   -0.6670   -0.0270 C   0  0  2  0  0  0  0  0  0  0  0  0
   -9.8150   -1.0830    0.9010 H   0  0  0  0  0  0  0  0  0  0  0  0
  -10.2550   -0.0360   -0.8790 O   0  0  0  0  0  0  0  0  0  0  0  0
  -10.9010    1.0500   -0.2680 C   0  0  2  0  0  0  0  0  0  0  0  0
  -11.4330    0.7380    0.6730 H   0  0  0  0  0  0  0  0  0  0  0  0
  -11.9230    1.5370   -1.3220 C   0  0  0  0  0  0  0  0  0  0  0  0
  -13.0130    0.6710   -1.2810 O   0  0  0  0  0  0  0  0  0  0  0  0
   -9.8600    2.1630    0.0390 C   0  0  1  0  0  0  0  0  0  0  0  0
   -9.4050    2.5520   -0.9100 H   0  0  0  0  0  0  0  0  0  0  0  0
  -10.5850    3.1230    0.7710 O   0  0  0  0  0  0  0  0  0  0  0  0
  -10.3180    4.4630    0.4680 C   0  0  2  0  0  0  0  0  0  0  0  0
  -10.2580    4.6740   -0.6380 H   0  0  0  0  0  0  0  0  0  0  0  0
   -9.1130    4.7340    1.1370 O   0  0  0  0  0  0  0  0  0  0  0  0
   -8.7140    6.0770    1.0130 C   0  0  2  0  0  0  0  0  0  0  0  0
   -8.5990    6.3800   -0.0640 H   0  0  0  0  0  0  0  0  0  0  0  0
   -7.3470    6.1650    1.7290 C   0  0  0  0  0  0  0  0  0  0  0  0
   -6.3650    5.6570    0.8840 O   0  0  0  0  0  0  0  0  0  0  0  0
   -9.7540    6.9800    1.7230 C   0  0  1  0  0  0  0  0  0  0  0  0
   -9.8050    6.7320    2.8180 H   0  0  0  0  0  0  0  0  0  0  0  0
   -9.3280    8.2890    1.5020 O   0  0  0  0  0  0  0  0  0  0  0  0
  -11.1370    6.7600    1.0560 C   0  0  2  0  0  0  0  0  0  0  0  0
  -11.1180    7.1070   -0.0130 H   0  0  0  0  0  0  0  0  0  0  0  0
  -12.0350    7.5030    1.8200 O   0  0  0  0  0  0  0  0  0  0  0  0
  -11.4790    5.2540    1.1420 C   0  0  1  0  0  0  0  0  0  0  0  0
  -11.6060    4.9420    2.2130 H   0  0  0  0  0  0  0  0  0  0  0  0
  -12.6440    5.0950    0.3910 O   0  0  0  0  0  0  0  0  0  0  0  0
   -8.7650    1.5870    0.9680 C   0  0  2  0  0  0  0  0  0  0  0  0
   -9.1960    1.3500    1.9780 H   0  0  0  0  0  0  0  0  0  0  0  0
   -7.7530    2.5480    1.0170 O   0  0  0  0  0  0  0  0  0  0  0  0
   -8.1720    0.3140    0.3100 C   0  0  1  0  0  0  0  0  0  0  0  0
   -7.6000    0.5850   -0.6200 H   0  0  0  0  0  0  0  0  0  0  0  0
   -7.3550   -0.2510    1.2890 O   0  0  0  0  0  0  0  0  0  0  0  0
   -9.3960   -4.9810   -2.3270 C   0  0  1  0  0  0  0  0  0  0  0  0
   -9.8980   -5.4650   -1.4450 H   0  0  0  0  0  0  0  0  0  0  0  0
  -10.3170   -4.5420   -3.2760 O   0  0  0  0  0  0  0  0  0  0  0  0
   -8.3910   -5.9680   -2.9780 C   0  0  2  0  0  0  0  0  0  0  0  0
   -7.9680   -5.5320   -3.9240 H   0  0  0  0  0  0  0  0  0  0  0  0
   -9.1280   -7.1230   -3.2350 O   0  0  0  0  0  0  0  0  0  0  0  0
   -7.2660   -6.2600   -1.9570 C   0  0  1  0  0  0  0  0  0  0  0  0
   -7.6780   -6.8010   -1.0620 H   0  0  0  0  0  0  0  0  0  0  0  0
   -6.3270   -7.0250   -2.6460 O   0  0  0  0  0  0  0  0  0  0  0  0
   -4.4260   -4.5890    1.3190 C   0  0  0  0  0  0  0  0  0  0  0  0
   -3.3970   -3.5850    1.8200 C   0  0  0  0  0  0  0  0  0  0  0  0
   -2.2020   -3.4230    0.8680 C   0  0  1  0  0  0  0  0  0  0  0  0
   -1.3820   -4.7140    0.8330 C   0  0  0  0  0  0  0  0  0  0  0  0
   -1.3320   -2.2360    1.3600 C   0  0  1  0  0  0  0  0  0  0  0  0
   -1.9950   -1.3400    1.4950 H   0  0  0  0  0  0  0  0  0  0  0  0
   -0.6960   -2.5350    2.7240 C   0  0  0  0  0  0  0  0  0  0  0  0
    0.4150   -1.5630    3.1350 C   0  0  0  0  0  0  0  0  0  0  0  0
    1.4430   -1.4400    2.0050 C   0  0  1  0  0  0  0  0  0  0  0  0
    1.9970   -2.8390    1.7380 C   0  0  0  0  0  0  0  0  0  0  0  0
    2.5810   -0.3720    2.2150 C   0  0  2  0  0  0  0  0  0  0  0  0
    2.0800    0.4840    3.2030 O   0  0  0  0  0  0  0  0  0  0  0  0
    3.9080   -0.9660    2.7470 C   0  0  2  0  0  0  0  0  0  0  0  0
    3.6220   -1.6060    3.6270 H   0  0  0  0  0  0  0  0  0  0  0  0
    4.8650    0.0990    3.2750 C   0  0  0  0  0  0  0  0  0  0  0  0
    4.6600   -1.8280    1.7470 C   0  0  0  0  0  0  0  0  0  0  0  0
    4.5220   -1.7300    0.5460 O   0  0  0  0  0  0  0  0  0  0  0  0
    5.6050   -2.8560    2.3370 C   0  0  0  0  0  0  0  0  0  0  0  0
    5.9980   -3.8960    1.2900 C   0  0  0  0  0  0  0  0  0  0  0  0
    6.8970   -4.9870    1.8770 C   0  0  1  0  0  0  0  0  0  0  0  0
    6.1100   -5.9050    2.8050 C   0  0  0  0  0  0  0  0  0  0  0  0
    7.4990   -5.8070    0.7400 C   0  0  0  0  0  0  0  0  0  0  0  0
    3.5300    1.3500   -1.5910 O   0  0  0  0  0  0  0  0  0  0  0  0
    3.8210    2.2330   -2.6370 C   0  0  0  0  0  0  0  0  0  0  0  0
    5.2880    2.0900   -3.1000 C   0  0  2  0  0  0  0  0  0  0  0  0
    5.5040    2.8310   -3.9160 H   0  0  0  0  0  0  0  0  0  0  0  0
    5.5750    0.7890   -3.5050 O   0  0  0  0  0  0  0  0  0  0  0  0
    6.1950    2.3590   -1.8780 C   0  0  2  0  0  0  0  0  0  0  0  0
    6.0530    3.4230   -1.5460 H   0  0  0  0  0  0  0  0  0  0  0  0
    7.5220    2.0500   -2.2200 O   0  0  0  0  0  0  0  0  0  0  0  0
    8.3710    3.1440   -2.3930 C   0  0  2  0  0  0  0  0  0  0  0  0
    8.3620    3.8640   -1.5270 H   0  0  0  0  0  0  0  0  0  0  0  0
    7.9030    3.7470   -3.5760 O   0  0  0  0  0  0  0  0  0  0  0  0
    8.7040    4.8040   -4.0180 C   0  0  0  0  0  0  0  0  0  0  0  0
   10.1200    4.2950   -4.3560 C   0  0  1  0  0  0  0  0  0  0  0  0
   10.0800    3.5440   -5.1890 H   0  0  0  0  0  0  0  0  0  0  0  0
   10.9520    5.3750   -4.6520 O   0  0  0  0  0  0  0  0  0  0  0  0
   10.7310    3.6520   -3.0870 C   0  0  2  0  0  0  0  0  0  0  0  0
   10.8610    4.4220   -2.2800 H   0  0  0  0  0  0  0  0  0  0  0  0
   11.9300    3.0180   -3.3940 O   0  0  0  0  0  0  0  0  0  0  0  0
    9.7790    2.5230   -2.6270 C   0  0  1  0  0  0  0  0  0  0  0  0
    9.7290    1.6970   -3.3870 H   0  0  0  0  0  0  0  0  0  0  0  0
   10.2000    2.1190   -1.3470 O   0  0  0  0  0  0  0  0  0  0  0  0
   10.8350    0.9230   -1.1950 C   0  0  0  0  0  0  0  0  0  0  0  0
   11.0320    0.1770   -2.1300 O   0  0  0  0  0  0  0  0  0  0  0  0
   11.1950    0.6940    0.2150 C   0  0  0  0  0  0  0  0  0  0  0  0
   11.7770    1.7030    0.9720 C   0  0  0  0  0  0  0  0  0  0  0  0
   12.1320    1.4570    2.2930 C   0  0  0  0  0  0  0  0  0  0  0  0
   11.8980    0.1980    2.8410 C   0  0  0  0  0  0  0  0  0  0  0  0
   12.2500    0.0580    4.1390 O   0  0  0  0  0  0  0  0  0  0  0  0
   11.2980   -0.8130    2.0640 C   0  0  0  0  0  0  0  0  0  0  0  0
   11.0900   -1.9830    2.7420 O   0  0  0  0  0  0  0  0  0  0  0  0
   10.7390   -3.1050    1.9720 C   0  0  0  0  0  0  0  0  0  0  0  0
   10.9460   -0.5710    0.7470 C   0  0  0  0  0  0  0  0  0  0  0  0
    5.8140    1.3780   -0.7420 C   0  0  1  0  0  0  0  0  0  0  0  0
    6.0270    0.3120   -1.0380 H   0  0  0  0  0  0  0  0  0  0  0  0
    6.5050    1.8380    0.3970 O   0  0  0  0  0  0  0  0  0  0  0  0
    7.3540    1.0120    1.0660 C   0  0  0  0  0  0  0  0  0  0  0  0
    8.0630    1.7340    2.1670 C   0  0  0  0  0  0  0  0  0  0  0  0
    7.4800   -0.1590    0.7720 O   0  0  0  0  0  0  0  0  0  0  0  0
    1.3480    0.2970   -0.9330 H   0  0  0  0  0  0  0  0  0  0  0  0
    2.3020   -1.1470   -0.6620 H   0  0  0  0  0  0  0  0  0  0  0  0
   -1.4790   -0.3070   -0.7260 H   0  0  0  0  0  0  0  0  0  0  0  0
   -0.3870   -1.1750   -1.7960 H   0  0  0  0  0  0  0  0  0  0  0  0
   -2.5670   -2.0720   -2.3410 H   0  0  0  0  0  0  0  0  0  0  0  0
   -4.0940   -3.7880   -2.0530 H   0  0  0  0  0  0  0  0  0  0  0  0
   -3.3020   -5.0990   -1.2130 H   0  0  0  0  0  0  0  0  0  0  0  0
  -10.4450   -2.5010   -1.7030 H   0  0  0  0  0  0  0  0  0  0  0  0
   -9.9220   -3.2420   -0.1600 H   0  0  0  0  0  0  0  0  0  0  0  0
  -12.3050    2.5420   -1.0470 H   0  0  0  0  0  0  0  0  0  0  0  0
  -11.4600    1.6460   -2.3230 H   0  0  0  0  0  0  0  0  0  0  0  0
  -13.0560    0.2000   -2.1180 H   0  0  0  0  0  0  0  0  0  0  0  0
   -7.0700    7.2290    1.9040 H   0  0  0  0  0  0  0  0  0  0  0  0
   -7.3840    5.6730    2.7290 H   0  0  0  0  0  0  0  0  0  0  0  0
   -6.2090    4.7250    1.1150 H   0  0  0  0  0  0  0  0  0  0  0  0
   -9.9280    8.8740    1.9760 H   0  0  0  0  0  0  0  0  0  0  0  0
  -12.9000    7.4340    1.4040 H   0  0  0  0  0  0  0  0  0  0  0  0
  -12.9930    4.2180    0.5930 H   0  0  0  0  0  0  0  0  0  0  0  0
   -7.2640    2.3950    1.8250 H   0  0  0  0  0  0  0  0  0  0  0  0
   -6.8970   -0.9980    0.8870 H   0  0  0  0  0  0  0  0  0  0  0  0
  -10.8360   -5.3030   -3.5550 H   0  0  0  0  0  0  0  0  0  0  0  0
   -8.5440   -7.7590   -3.6590 H   0  0  0  0  0  0  0  0  0  0  0  0
   -5.6430   -7.2810   -2.0200 H   0  0  0  0  0  0  0  0  0  0  0  0
   -5.2800   -4.6550    2.0270 H   0  0  0  0  0  0  0  0  0  0  0  0
   -4.0120   -5.6190    1.2980 H   0  0  0  0  0  0  0  0  0  0  0  0
   -3.8900   -2.6050    1.9920 H   0  0  0  0  0  0  0  0  0  0  0  0
   -3.0490   -3.9050    2.8240 H   0  0  0  0  0  0  0  0  0  0  0  0
   -1.9720   -5.5970    0.5550 H   0  0  0  0  0  0  0  0  0  0  0  0
   -0.5550   -4.6540    0.1090 H   0  0  0  0  0  0  0  0  0  0  0  0
   -0.9310   -4.9470    1.8110 H   0  0  0  0  0  0  0  0  0  0  0  0
   -1.4780   -2.5210    3.5130 H   0  0  0  0  0  0  0  0  0  0  0  0
   -0.2990   -3.5760    2.7500 H   0  0  0  0  0  0  0  0  0  0  0  0
   -0.0350   -0.5840    3.4020 H   0  0  0  0  0  0  0  0  0  0  0  0
    0.9040   -1.9030    4.0710 H   0  0  0  0  0  0  0  0  0  0  0  0
    1.2070   -3.6100    1.7020 H   0  0  0  0  0  0  0  0  0  0  0  0
    2.5190   -2.9420    0.7800 H   0  0  0  0  0  0  0  0  0  0  0  0
    2.6620   -3.2020    2.5330 H   0  0  0  0  0  0  0  0  0  0  0  0
    2.6140    1.2820    3.2290 H   0  0  0  0  0  0  0  0  0  0  0  0
    4.9660    0.9770    2.6240 H   0  0  0  0  0  0  0  0  0  0  0  0
    4.5590    0.4700    4.2660 H   0  0  0  0  0  0  0  0  0  0  0  0
    5.8840   -0.2910    3.4150 H   0  0  0  0  0  0  0  0  0  0  0  0
    6.5090   -2.3390    2.7220 H   0  0  0  0  0  0  0  0  0  0  0  0
    5.1460   -3.3370    3.2240 H   0  0  0  0  0  0  0  0  0  0  0  0
    5.0890   -4.3420    0.8330 H   0  0  0  0  0  0  0  0  0  0  0  0
    6.5120   -3.3910    0.4440 H   0  0  0  0  0  0  0  0  0  0  0  0
    7.7300   -4.5100    2.4550 H   0  0  0  0  0  0  0  0  0  0  0  0
    5.2170   -6.3250    2.3200 H   0  0  0  0  0  0  0  0  0  0  0  0
    6.7120   -6.7610    3.1460 H   0  0  0  0  0  0  0  0  0  0  0  0
    5.7650   -5.3920    3.7140 H   0  0  0  0  0  0  0  0  0  0  0  0
    8.1210   -5.1940    0.0700 H   0  0  0  0  0  0  0  0  0  0  0  0
    8.1450   -6.6170    1.1090 H   0  0  0  0  0  0  0  0  0  0  0  0
    6.7290   -6.2770    0.1120 H   0  0  0  0  0  0  0  0  0  0  0  0
    3.0990    1.9450   -3.4290 H   0  0  0  0  0  0  0  0  0  0  0  0
    3.5930    3.2910   -2.3720 H   0  0  0  0  0  0  0  0  0  0  0  0
    4.9760    0.5720   -4.2270 H   0  0  0  0  0  0  0  0  0  0  0  0
    8.1760    5.1880   -4.9150 H   0  0  0  0  0  0  0  0  0  0  0  0
    8.7380    5.6430   -3.2880 H   0  0  0  0  0  0  0  0  0  0  0  0
   10.7190    5.6860   -5.5310 H   0  0  0  0  0  0  0  0  0  0  0  0
   12.5710    3.6940   -3.6370 H   0  0  0  0  0  0  0  0  0  0  0  0
   11.9680    2.6870    0.5300 H   0  0  0  0  0  0  0  0  0  0  0  0
   12.5920    2.2400    2.9030 H   0  0  0  0  0  0  0  0  0  0  0  0
   12.1950   -0.8660    4.4010 H   0  0  0  0  0  0  0  0  0  0  0  0
    9.7170   -3.0380    1.5690 H   0  0  0  0  0  0  0  0  0  0  0  0
   11.4420   -3.3160    1.1520 H   0  0  0  0  0  0  0  0  0  0  0  0
   10.7730   -3.9320    2.6990 H   0  0  0  0  0  0  0  0  0  0  0  0
   10.4770   -1.3340    0.1170 H   0  0  0  0  0  0  0  0  0  0  0  0
    7.8800    2.8170    2.1860 H   0  0  0  0  0  0  0  0  0  0  0  0
    7.7600    1.3340    3.1460 H   0  0  0  0  0  0  0  0  0  0  0  0
    9.1500    1.5820    2.0760 H   0  0  0  0  0  0  0  0  0  0  0  0
  2  1  1  1
  2 88  1  0
  2120  1  0
  2  3  1  0
  3  4  1  0
  4  6  1  0
  4  5  1  1
  4 76  1  0
  6126  1  0
  6127  1  0
  6  7  1  0
  7  9  1  0
  7  8  1  1
  7 74  1  0
  9 11  1  0
  9 10  1  6
  9 70  1  0
 11129  1  0
 11 12  1  0
 11128  1  0
 12130  1  0
 12 13  2  0
 13 14  1  0
 13 68  1  0
 14131  1  0
 14132  1  0
 14 15  1  0
 15 17  1  0
 15 16  1  1
 15 66  1  0
 17 18  1  0
 18 19  1  6
 18 63  1  0
 18 20  1  0
 20 21  1  0
 21 22  1  6
 21 57  1  0
 21 23  1  0
 23133  1  0
 23 24  1  0
 23134  1  0
 24 25  1  0
 25 27  1  0
 25 54  1  0
 25 26  1  1
 27 28  1  0
 28 30  1  0
 28 32  1  0
 28 29  1  1
 30136  1  0
 30 31  1  0
 30135  1  0
 31137  1  0
 32 33  1  6
 32 34  1  0
 32 51  1  0
 34 35  1  0
 35 36  1  6
 35 37  1  0
 35 48  1  0
 37 38  1  0
 38 39  1  6
 38 42  1  0
 38 40  1  0
 40 41  1  0
 40138  1  0
 40139  1  0
 41140  1  0
 42 45  1  0
 42 44  1  0
 42 43  1  1
 44141  1  0
 45 46  1  6
 45 48  1  0
 45 47  1  0
 47142  1  0
 48 50  1  0
 48 49  1  1
 50143  1  0
 51 54  1  0
 51 53  1  0
 51 52  1  1
 53144  1  0
 54 55  1  6
 54 56  1  0
 56145  1  0
 57 59  1  0
 57 60  1  0
 57 58  1  1
 59146  1  0
 60 61  1  6
 60 62  1  0
 60 63  1  0
 62147  1  0
 63 65  1  0
 63 64  1  1
 65148  1  0
 66150  1  0
 66 67  1  0
 66149  1  0
 67 68  1  0
 67151  1  0
 67152  1  0
 68 69  1  6
 68 70  1  0
 69154  1  0
 69153  1  0
 69155  1  0
 70 71  1  1
 70 72  1  0
 72157  1  0
 72 73  1  0
 72156  1  0
 73 74  1  0
 73158  1  0
 73159  1  0
 74 75  1  6
 74 76  1  0
 75161  1  0
 75160  1  0
 75162  1  0
 76 78  1  0
 76 77  1  1
 77163  1  0
 78 81  1  0
 78 80  1  0
 78 79  1  1
 80164  1  0
 80166  1  0
 80165  1  0
 81 82  2  0
 81 83  1  0
 83 84  1  0
 83167  1  0
 83168  1  0
 84170  1  0
 84169  1  0
 84 85  1  0
 85 87  1  0
 85171  1  1
 85 86  1  0
 86172  1  0
 86173  1  0
 86174  1  0
 87175  1  0
 87177  1  0
 87176  1  0
 88 89  1  0
 89178  1  0
 89 90  1  0
 89179  1  0
 90 91  1  6
 90 92  1  0
 90 93  1  0
 92180  1  0
 93 95  1  0
 93 94  1  1
 93120  1  0
 95 96  1  0
 96 98  1  0
 96106  1  0
 96 97  1  1
 98 99  1  0
 99181  1  0
 99100  1  0
 99182  1  0
100101  1  6
100102  1  0
100103  1  0
102183  1  0
103105  1  0
103106  1  0
103104  1  1
105184  1  0
106107  1  6
106108  1  0
108109  1  0
109110  2  0
109111  1  0
111119  2  0
111112  1  0
112185  1  0
112113  2  0
113114  1  0
113186  1  0
114116  2  0
114115  1  0
115187  1  0
116119  1  0
116117  1  0
117118  1  0
118189  1  0
118188  1  0
118190  1  0
119191  1  0
120121  1  6
120122  1  0
122123  1  0
123125  2  0
123124  1  0
124194  1  0
124192  1  0
124193  1  0
M  END
>  <id>  (404) 
506

>  <scaffolds>  (404) 
['c1ccccc1', 'C1=C2CCCCC2C2CCC3CCCC3C2C1', 'C1=CCCCC1', 'C1=CCC2CCCCC2C1', 'C1=C2CCCCC2C2CCC3CC(OC4CCCCO4)CC3C2C1', 'C1CCOCC1', 'C1=C2CC(OC3CCCCO3)CCC2C2CCC3CCCC3C2C1', 'O=C(OC1CCCOC1OC1CCOC(OC2CC3CCC4C5CCC(OC6CCCCO6)CC5=CCC4C3C2)C1)c1ccccc1', 'C1=C2CC(OC3CCCCO3)CCC2C2CCC3CC(OC4CCCCO4)CC3C2C1', 'C1CCCCC1', 'O=C(OC1CCCOC1OC1CCOC(OC2CC3CCC4C5CCC(OC6CCCC(COC7CCC(OC8CCCCO8)CO7)O6)CC5=CCC4C3C2)C1)c1ccccc1', 'O=C(OC1CCCOC1OC1CCOC(OC2CC3CCC4C5CCCCC5=CCC4C3C2)C1)c1ccccc1', 'O=C(OC1CCCOC1OC1CCOC(OC2CC3CCC4C5CCC(OC6CCCC(COC7CCCCO7)O6)CC5=CCC4C3C2)C1)c1ccccc1', 'C1=C2CC(OC3CCCC(COC4CCCCO4)O3)CCC2C2CCC3CC(OC4CC(OC5CCCCO5)CCO4)CC3C2C1', 'C1=C2CCCCC2C2CCC3CC(OC4CC(OC5CCCCO5)CCO4)CC3C2C1', 'C1=C2CCCCC2CCC1', 'C1=C2CC(OC3CCCCO3)CCC2C2CCC3CC(OC4CC(OC5CCCCO5)CCO4)CC3C2C1', 'C1CCC(OC2CCCOC2)OC1', 'C1=C2CC(OC3CCCC(COC4CCC(OC5CCCCO5)CO4)O3)CCC2C2CCC3CC(OC4CC(OC5CCCCO5)CCO4)CC3C2C1']

>  <name>  (404) 
3[beta]-[(O-[beta]-D-glucopyranosyl-(1[to]4)-O-[beta]-D-glucopyranosyl-(1[to]6)-[beta]-D-glucopyranosyl)oxy)]-17[alpha]-hydroxy-16[beta]-[(O-(2-O-4-hydroxy-3-methoxybenzoyl-[beta]-D-xylopyranosyl)-(1[to]3)-2-O-acetyl-[alpha]-L-arabinopyranosyl)oxy]chol...

>  <formula>  (404) 
C65H98O31

>  <SMILES>  (404) 
[H][C@@]%10(O[C@H]7C[C@@]6([H])[C@]5([H])CC=C4C[C@@H](O[C@]3([H])O[C@H](CO[C@@H]2O[C@H](CO)[C@@H](O[C@]1([H])O[C@H](CO)[C@@H](O)[C@H](O)[C@H]1O)[C@H](O)[C@H]2O)[C@@H](O)[C@H](O)[C@H]3O)CC[C@]4(C)[C@@]5([H])CC[C@]6(C)[C@@]7(O)[C@H](C)C(=O)CCC(C)C)OC[C@H](O)[C@H](O[C@]8([H])OC[C@@H](O)[C@H](O)[C@H]8OC(=O)c9ccc(O)c(OC)c9)[C@H]%10OC(C)=O

>  <ChEMBL_id>  (404) 


>  <ZINC_id>  (404) 


>  <PubChem_id>  (404) 


>  <DrugBank_id>  (404) 


>  <CAS_no>  (404) 
474125-97-8

>  <references>  (404) 
[{'journal': {'name': 'Journal of Natural Products', 'id': 5}, 'title': 'Cholestane Glycosides from the Bulbs of Ornithogalum thyrsoides and Their Cytotoxic Activity against HL-60 Leukemia Cells', 'year': 2002, 'start_page': 1417, 'volume': 65, 'issue': 10, 'doi': '10.1021/np020114j', 'isbn': '', 'despositor': {'code': 'NFA', 'first_name': 'Ngonidzashe', 'last_name': 'Faya', 'id': 21}, 'refauthors_set': [{'author': {'first_name': 'Minpei', 'initials': 'M', 'last_name': 'Kuroda', 'id': 644}, 'first_author': True, 'id': 1199}, {'author': {'first_name': 'Yoshihiro ', 'initials': 'Y', 'last_name': 'Mimaki', 'id': 643}, 'first_author': None, 'id': 1200}, {'author': {'first_name': 'Akihito ', 'initials': 'A', 'last_name': 'Yokosuka', 'id': 650}, 'first_author': None, 'id': 1201}, {'author': {'first_name': 'Fusako', 'initials': 'F', 'last_name': 'Hasegawa', 'id': 711}, 'first_author': None, 'id': 1202}, {'author': {'first_name': 'Yutaka', 'initials': 'Y', 'last_name': 'Sashida', 'id': 645}, 'first_author': None, 'id': 1203}], 'id': 341}]

>  <classifications>  (404) 
[{'classification': 'Cholestane', 'id': 761}, {'classification': 'Glycoside', 'id': 781}, {'classification': 'Steroids and steroid derivatives (Classyfire)', 'id': 942}]

>  <molecular_mass>  (404) 
1375.45

$$$$
SANC00507_minRM1.pdb
     RDKit          3D

197206  0  0  1  0  0  0  0  0999 V2000
   -8.1680    2.4470   -0.2600 H   0  0  0  0  0  0  0  0  0  0  0  0
   -8.2200    1.9550    0.7570 C   0  0  2  0  0  0  0  0  0  0  0  0
   -7.2080    1.0150    0.9580 O   0  0  0  0  0  0  0  0  0  0  0  0
   -5.9200    1.4530    0.6090 C   0  0  1  0  0  0  0  0  0  0  0  0
   -5.9350    2.3240   -0.1040 H   0  0  0  0  0  0  0  0  0  0  0  0
   -5.1220    1.8630    1.8680 C   0  0  1  0  0  0  0  0  0  0  0  0
   -5.5730    2.7790    2.3370 H   0  0  0  0  0  0  0  0  0  0  0  0
   -5.1670    0.7710    2.7280 O   0  0  0  0  0  0  0  0  0  0  0  0
   -3.6680    2.1720    1.4300 C   0  0  0  0  0  0  0  0  0  0  0  0
   -3.0790    1.1000    0.7500 O   0  0  0  0  0  0  0  0  0  0  0  0
   -3.7710    0.7250   -0.4170 C   0  0  1  0  0  0  0  0  0  0  0  0
   -3.7850    1.5630   -1.1740 H   0  0  0  0  0  0  0  0  0  0  0  0
   -3.1200   -0.4170   -0.8780 O   0  0  0  0  0  0  0  0  0  0  0  0
   -1.7840   -0.2710   -1.2790 C   0  0  1  0  0  0  0  0  0  0  0  0
   -1.4890    0.8110   -1.3720 H   0  0  0  0  0  0  0  0  0  0  0  0
   -0.8480   -0.9480   -0.2560 C   0  0  0  0  0  0  0  0  0  0  0  0
    0.3520   -1.3030   -1.1270 C   0  0  1  0  0  0  0  0  0  0  0  0
    0.8550   -0.3380   -1.4130 H   0  0  0  0  0  0  0  0  0  0  0  0
    1.4110   -2.2240   -0.5430 C   0  0  2  0  0  0  0  0  0  0  0  0
    0.9520   -3.2000   -0.2420 H   0  0  0  0  0  0  0  0  0  0  0  0
    2.0420   -1.6040    0.7030 C   0  0  0  0  0  0  0  0  0  0  0  0
    3.2070   -2.4080    1.1540 C   0  0  0  0  0  0  0  0  0  0  0  0
    3.8470   -3.2820    0.3760 C   0  0  0  0  0  0  0  0  0  0  0  0
    4.9440   -4.1220    0.9400 C   0  0  0  0  0  0  0  0  0  0  0  0
    6.1940   -4.0240    0.0590 C   0  0  1  0  0  0  0  0  0  0  0  0
    6.6050   -2.9790    0.0770 H   0  0  0  0  0  0  0  0  0  0  0  0
    7.1460   -4.9790    0.4910 O   0  0  0  0  0  0  0  0  0  0  0  0
    7.8860   -4.6180    1.6160 C   0  0  2  0  0  0  0  0  0  0  0  0
    7.2620   -4.2000    2.4570 H   0  0  0  0  0  0  0  0  0  0  0  0
    8.8170   -3.6830    1.1260 O   0  0  0  0  0  0  0  0  0  0  0  0
    9.7040   -3.2300    2.1160 C   0  0  2  0  0  0  0  0  0  0  0  0
    9.1620   -2.7620    2.9840 H   0  0  0  0  0  0  0  0  0  0  0  0
   10.5810   -2.1790    1.4060 C   0  0  0  0  0  0  0  0  0  0  0  0
    9.6810   -1.1360    1.1060 O   0  0  0  0  0  0  0  0  0  0  0  0
   10.2220   -0.0820    0.3700 C   0  0  2  0  0  0  0  0  0  0  0  0
   10.8150   -0.4180   -0.5290 H   0  0  0  0  0  0  0  0  0  0  0  0
   11.0210    0.6100    1.3020 O   0  0  0  0  0  0  0  0  0  0  0  0
   11.5880    1.7790    0.7740 C   0  0  2  0  0  0  0  0  0  0  0  0
   12.2160    1.5600   -0.1330 H   0  0  0  0  0  0  0  0  0  0  0  0
   12.4740    2.3370    1.9150 C   0  0  0  0  0  0  0  0  0  0  0  0
   13.6700    1.6140    1.9140 O   0  0  0  0  0  0  0  0  0  0  0  0
   10.4610    2.7880    0.4220 C   0  0  1  0  0  0  0  0  0  0  0  0
    9.9020    3.0930    1.3460 H   0  0  0  0  0  0  0  0  0  0  0  0
   11.1250    3.8470   -0.2240 O   0  0  0  0  0  0  0  0  0  0  0  0
   10.6690    5.1360    0.0630 C   0  0  2  0  0  0  0  0  0  0  0  0
   10.4900    5.3130    1.1640 H   0  0  0  0  0  0  0  0  0  0  0  0
    9.5010    5.2720   -0.7050 O   0  0  0  0  0  0  0  0  0  0  0  0
    8.9240    6.5500   -0.5860 C   0  0  2  0  0  0  0  0  0  0  0  0
    8.6830    6.8050    0.4820 H   0  0  0  0  0  0  0  0  0  0  0  0
    7.6240    6.4840   -1.4260 C   0  0  0  0  0  0  0  0  0  0  0  0
    6.6290    5.8880   -0.6610 O   0  0  0  0  0  0  0  0  0  0  0  0
    9.8960    7.5970   -1.1860 C   0  0  1  0  0  0  0  0  0  0  0  0
   10.0680    7.3920   -2.2790 H   0  0  0  0  0  0  0  0  0  0  0  0
    9.2930    8.8340   -0.9830 O   0  0  0  0  0  0  0  0  0  0  0  0
   11.2400    7.5310   -0.4150 C   0  0  2  0  0  0  0  0  0  0  0  0
   11.0910    7.8420    0.6570 H   0  0  0  0  0  0  0  0  0  0  0  0
   12.0950    8.4010   -1.0830 O   0  0  0  0  0  0  0  0  0  0  0  0
   11.7740    6.0820   -0.4920 C   0  0  1  0  0  0  0  0  0  0  0  0
   12.0240    5.8150   -1.5550 H   0  0  0  0  0  0  0  0  0  0  0  0
   12.8860    6.0470    0.3480 O   0  0  0  0  0  0  0  0  0  0  0  0
    9.4980    2.1380   -0.6000 C   0  0  2  0  0  0  0  0  0  0  0  0
   10.0200    1.9900   -1.5820 H   0  0  0  0  0  0  0  0  0  0  0  0
    8.3960    2.9810   -0.6960 O   0  0  0  0  0  0  0  0  0  0  0  0
    9.0000    0.7860   -0.0340 C   0  0  1  0  0  0  0  0  0  0  0  0
    8.3340    0.9590    0.8560 H   0  0  0  0  0  0  0  0  0  0  0  0
    8.3220    0.1780   -1.0860 O   0  0  0  0  0  0  0  0  0  0  0  0
   10.5780   -4.4170    2.5990 C   0  0  1  0  0  0  0  0  0  0  0  0
   11.1960   -4.8240    1.7520 H   0  0  0  0  0  0  0  0  0  0  0  0
   11.3710   -3.9000    3.6200 O   0  0  0  0  0  0  0  0  0  0  0  0
    9.6450   -5.5250    3.1550 C   0  0  2  0  0  0  0  0  0  0  0  0
    9.1080   -5.1610    4.0750 H   0  0  0  0  0  0  0  0  0  0  0  0
   10.4840   -6.5960    3.4480 O   0  0  0  0  0  0  0  0  0  0  0  0
    8.6340   -5.9120    2.0500 C   0  0  1  0  0  0  0  0  0  0  0  0
    9.1670   -6.3740    1.1750 H   0  0  0  0  0  0  0  0  0  0  0  0
    7.7440   -6.7970    2.6500 O   0  0  0  0  0  0  0  0  0  0  0  0
    5.8550   -4.4380   -1.3760 C   0  0  0  0  0  0  0  0  0  0  0  0
    4.7590   -3.5330   -1.9200 C   0  0  0  0  0  0  0  0  0  0  0  0
    3.4870   -3.5420   -1.0580 C   0  0  1  0  0  0  0  0  0  0  0  0
    2.8270   -4.9200   -1.1170 C   0  0  0  0  0  0  0  0  0  0  0  0
    2.5230   -2.4430   -1.5840 C   0  0  1  0  0  0  0  0  0  0  0  0
    3.0930   -1.4790   -1.6670 H   0  0  0  0  0  0  0  0  0  0  0  0
    2.0070   -2.7790   -2.9900 C   0  0  0  0  0  0  0  0  0  0  0  0
    0.8190   -1.9300   -3.4470 C   0  0  0  0  0  0  0  0  0  0  0  0
   -0.2780   -1.9410   -2.3770 C   0  0  1  0  0  0  0  0  0  0  0  0
   -0.6800   -3.3940   -2.1360 C   0  0  0  0  0  0  0  0  0  0  0  0
   -1.5190   -1.0120   -2.6520 C   0  0  2  0  0  0  0  0  0  0  0  0
   -1.0410   -0.0710   -3.5720 O   0  0  0  0  0  0  0  0  0  0  0  0
   -2.7230   -1.7340   -3.3070 C   0  0  2  0  0  0  0  0  0  0  0  0
   -2.3070   -2.2820   -4.1960 H   0  0  0  0  0  0  0  0  0  0  0  0
   -3.7720   -0.7550   -3.8300 C   0  0  0  0  0  0  0  0  0  0  0  0
   -3.4260   -2.7330   -2.4080 C   0  0  0  0  0  0  0  0  0  0  0  0
   -3.4400   -2.6470   -1.1950 O   0  0  0  0  0  0  0  0  0  0  0  0
   -4.1340   -3.8840   -3.0970 C   0  0  0  0  0  0  0  0  0  0  0  0
   -4.5820   -4.9250   -2.0730 C   0  0  0  0  0  0  0  0  0  0  0  0
   -5.2190   -6.1560   -2.7210 C   0  0  1  0  0  0  0  0  0  0  0  0
   -5.4110   -7.2290   -1.6530 C   0  0  0  0  0  0  0  0  0  0  0  0
   -6.5660   -5.8120   -3.3440 C   0  0  0  0  0  0  0  0  0  0  0  0
   -5.2070    0.2480   -0.0410 C   0  0  2  0  0  0  0  0  0  0  0  0
   -5.1600   -0.6390    0.6510 H   0  0  0  0  0  0  0  0  0  0  0  0
   -5.8340   -0.0220   -1.2720 O   0  0  0  0  0  0  0  0  0  0  0  0
   -6.7580   -1.0220   -1.3360 C   0  0  0  0  0  0  0  0  0  0  0  0
   -7.1900   -1.2640   -2.7480 C   0  0  0  0  0  0  0  0  0  0  0  0
   -7.1740   -1.5910   -0.3340 O   0  0  0  0  0  0  0  0  0  0  0  0
   -8.0360    2.8860    1.7980 O   0  0  0  0  0  0  0  0  0  0  0  0
   -9.0080    3.8930    1.8170 C   0  0  0  0  0  0  0  0  0  0  0  0
  -10.4160    3.2820    1.9930 C   0  0  1  0  0  0  0  0  0  0  0  0
  -10.4910    2.7590    2.9870 H   0  0  0  0  0  0  0  0  0  0  0  0
  -11.3830    4.2660    1.8460 O   0  0  0  0  0  0  0  0  0  0  0  0
  -10.6660    2.2810    0.8420 C   0  0  2  0  0  0  0  0  0  0  0  0
  -10.6060    2.7970   -0.1570 H   0  0  0  0  0  0  0  0  0  0  0  0
  -11.9080    1.6690    1.0820 O   0  0  0  0  0  0  0  0  0  0  0  0
  -12.9990    2.1570    0.4200 C   0  0  0  0  0  0  0  0  0  0  0  0
  -12.8600    2.9480   -0.4970 O   0  0  0  0  0  0  0  0  0  0  0  0
  -14.2810    1.6240    0.9100 C   0  0  0  0  0  0  0  0  0  0  0  0
  -14.3680    0.5070    1.7210 C   0  0  0  0  0  0  0  0  0  0  0  0
  -15.6160    0.0130    2.1040 C   0  0  0  0  0  0  0  0  0  0  0  0
  -16.7670    0.6520    1.6690 C   0  0  0  0  0  0  0  0  0  0  0  0
  -18.0440    0.2910    1.9510 O   0  0  0  0  0  0  0  0  0  0  0  0
  -18.2330   -0.9080    2.6610 C   0  0  0  0  0  0  0  0  0  0  0  0
  -16.6720    1.8050    0.8480 C   0  0  0  0  0  0  0  0  0  0  0  0
  -17.8840    2.3310    0.5080 O   0  0  0  0  0  0  0  0  0  0  0  0
  -17.8680    3.4530   -0.3380 C   0  0  0  0  0  0  0  0  0  0  0  0
  -15.4360    2.2940    0.4780 C   0  0  0  0  0  0  0  0  0  0  0  0
   -9.5720    1.1950    0.9320 C   0  0  1  0  0  0  0  0  0  0  0  0
   -9.6040    0.6560    1.9170 H   0  0  0  0  0  0  0  0  0  0  0  0
   -9.7600    0.3490   -0.1500 O   0  0  0  0  0  0  0  0  0  0  0  0
   -4.7150    1.0230    3.5390 H   0  0  0  0  0  0  0  0  0  0  0  0
   -3.6360    3.1110    0.8300 H   0  0  0  0  0  0  0  0  0  0  0  0
   -2.9970    2.3310    2.2990 H   0  0  0  0  0  0  0  0  0  0  0  0
   -0.6010   -0.2700    0.5830 H   0  0  0  0  0  0  0  0  0  0  0  0
   -1.3200   -1.8280    0.2240 H   0  0  0  0  0  0  0  0  0  0  0  0
    2.3690   -0.5570    0.5230 H   0  0  0  0  0  0  0  0  0  0  0  0
    1.2940   -1.5210    1.5200 H   0  0  0  0  0  0  0  0  0  0  0  0
    3.5290   -2.2200    2.1900 H   0  0  0  0  0  0  0  0  0  0  0  0
    5.1840   -3.8310    1.9870 H   0  0  0  0  0  0  0  0  0  0  0  0
    4.6020   -5.1760    1.0330 H   0  0  0  0  0  0  0  0  0  0  0  0
   11.4070   -1.8390    2.0720 H   0  0  0  0  0  0  0  0  0  0  0  0
   11.0580   -2.5950    0.4880 H   0  0  0  0  0  0  0  0  0  0  0  0
   12.7510    3.3900    1.7030 H   0  0  0  0  0  0  0  0  0  0  0  0
   11.9340    2.3400    2.8850 H   0  0  0  0  0  0  0  0  0  0  0  0
   13.6860    1.0920    2.7400 H   0  0  0  0  0  0  0  0  0  0  0  0
    7.2470    7.5040   -1.6070 H   0  0  0  0  0  0  0  0  0  0  0  0
    7.7910    6.0130   -2.4120 H   0  0  0  0  0  0  0  0  0  0  0  0
    6.6420    4.8880   -0.8570 H   0  0  0  0  0  0  0  0  0  0  0  0
    9.8510    9.5060   -1.3830 H   0  0  0  0  0  0  0  0  0  0  0  0
   12.9270    8.4270   -0.6010 H   0  0  0  0  0  0  0  0  0  0  0  0
   13.3550    5.2220    0.1560 H   0  0  0  0  0  0  0  0  0  0  0  0
    8.0150    2.8430   -1.5670 H   0  0  0  0  0  0  0  0  0  0  0  0
    7.9090   -0.6230   -0.7480 H   0  0  0  0  0  0  0  0  0  0  0  0
   11.9470   -4.6050    3.9320 H   0  0  0  0  0  0  0  0  0  0  0  0
    9.9480   -7.3030    3.8180 H   0  0  0  0  0  0  0  0  0  0  0  0
    7.1450   -7.1150    1.9680 H   0  0  0  0  0  0  0  0  0  0  0  0
    6.7600   -4.3800   -2.0180 H   0  0  0  0  0  0  0  0  0  0  0  0
    5.5620   -5.5080   -1.4260 H   0  0  0  0  0  0  0  0  0  0  0  0
    5.1490   -2.4990   -2.0210 H   0  0  0  0  0  0  0  0  0  0  0  0
    4.5240   -3.8450   -2.9580 H   0  0  0  0  0  0  0  0  0  0  0  0
    3.5090   -5.7410   -0.8520 H   0  0  0  0  0  0  0  0  0  0  0  0
    1.9740   -5.0000   -0.4290 H   0  0  0  0  0  0  0  0  0  0  0  0
    2.4510   -5.1590   -2.1240 H   0  0  0  0  0  0  0  0  0  0  0  0
    2.8300   -2.6530   -3.7280 H   0  0  0  0  0  0  0  0  0  0  0  0
    1.7420   -3.8590   -3.0690 H   0  0  0  0  0  0  0  0  0  0  0  0
    1.1730   -0.9020   -3.6720 H   0  0  0  0  0  0  0  0  0  0  0  0
    0.4240   -2.3010   -4.4150 H   0  0  0  0  0  0  0  0  0  0  0  0
    0.1850   -4.0500   -1.9430 H   0  0  0  0  0  0  0  0  0  0  0  0
   -1.3190   -3.5460   -1.2580 H   0  0  0  0  0  0  0  0  0  0  0  0
   -1.1610   -3.8620   -3.0080 H   0  0  0  0  0  0  0  0  0  0  0  0
   -1.6870    0.6380   -3.6640 H   0  0  0  0  0  0  0  0  0  0  0  0
   -3.9900    0.0700   -3.1380 H   0  0  0  0  0  0  0  0  0  0  0  0
   -3.4750   -0.2990   -4.7870 H   0  0  0  0  0  0  0  0  0  0  0  0
   -4.7460   -1.2360   -4.0270 H   0  0  0  0  0  0  0  0  0  0  0  0
   -4.9950   -3.4950   -3.6780 H   0  0  0  0  0  0  0  0  0  0  0  0
   -3.4660   -4.3440   -3.8540 H   0  0  0  0  0  0  0  0  0  0  0  0
   -3.7070   -5.2330   -1.4590 H   0  0  0  0  0  0  0  0  0  0  0  0
   -5.2840   -4.4670   -1.3420 H   0  0  0  0  0  0  0  0  0  0  0  0
   -4.5380   -6.5530   -3.5180 H   0  0  0  0  0  0  0  0  0  0  0  0
   -6.0470   -6.8840   -0.8250 H   0  0  0  0  0  0  0  0  0  0  0  0
   -5.8820   -8.1370   -2.0570 H   0  0  0  0  0  0  0  0  0  0  0  0
   -4.4580   -7.5460   -1.2060 H   0  0  0  0  0  0  0  0  0  0  0  0
   -7.0980   -6.7090   -3.6960 H   0  0  0  0  0  0  0  0  0  0  0  0
   -7.2400   -5.3100   -2.6330 H   0  0  0  0  0  0  0  0  0  0  0  0
   -6.4710   -5.1510   -4.2170 H   0  0  0  0  0  0  0  0  0  0  0  0
   -6.3870   -1.0900   -3.4840 H   0  0  0  0  0  0  0  0  0  0  0  0
   -7.5310   -2.3020   -2.8730 H   0  0  0  0  0  0  0  0  0  0  0  0
   -8.0320   -0.6060   -3.0110 H   0  0  0  0  0  0  0  0  0  0  0  0
   -8.7170    4.5260    2.6820 H   0  0  0  0  0  0  0  0  0  0  0  0
   -8.9630    4.5420    0.9120 H   0  0  0  0  0  0  0  0  0  0  0  0
  -11.3900    4.7970    2.6530 H   0  0  0  0  0  0  0  0  0  0  0  0
  -13.4660   -0.0120    2.0640 H   0  0  0  0  0  0  0  0  0  0  0  0
  -15.6500   -0.8810    2.7290 H   0  0  0  0  0  0  0  0  0  0  0  0
  -19.3340   -0.9950    2.7060 H   0  0  0  0  0  0  0  0  0  0  0  0
  -17.8190   -1.7920    2.1490 H   0  0  0  0  0  0  0  0  0  0  0  0
  -17.8430   -0.8680    3.6920 H   0  0  0  0  0  0  0  0  0  0  0  0
  -17.3940    4.3400    0.1160 H   0  0  0  0  0  0  0  0  0  0  0  0
  -17.4020    3.2570   -1.3180 H   0  0  0  0  0  0  0  0  0  0  0  0
  -18.9360    3.6640   -0.4990 H   0  0  0  0  0  0  0  0  0  0  0  0
  -15.3320    3.1830   -0.1530 H   0  0  0  0  0  0  0  0  0  0  0  0
   -9.2110   -0.4330   -0.0060 H   0  0  0  0  0  0  0  0  0  0  0  0
  2  1  1  6
  2124  1  0
  2  3  1  0
  2104  1  0
  3  4  1  0
  4  5  1  6
  4 98  1  0
  4  6  1  0
  6  9  1  0
  6  7  1  1
  6  8  1  0
  8127  1  0
  9 10  1  0
  9128  1  0
  9129  1  0
 10 11  1  0
 11 12  1  6
 11 13  1  0
 11 98  1  0
 13 14  1  0
 14 86  1  0
 14 15  1  6
 14 16  1  0
 16 17  1  0
 16131  1  0
 16130  1  0
 17 84  1  0
 17 18  1  6
 17 19  1  0
 19 80  1  0
 19 20  1  1
 19 21  1  0
 21132  1  0
 21 22  1  0
 21133  1  0
 22 23  2  0
 22134  1  0
 23 78  1  0
 23 24  1  0
 24 25  1  0
 24136  1  0
 24135  1  0
 25 76  1  0
 25 26  1  6
 25 27  1  0
 27 28  1  0
 28 30  1  0
 28 73  1  0
 28 29  1  1
 30 31  1  0
 31 33  1  0
 31 67  1  0
 31 32  1  1
 33138  1  0
 33 34  1  0
 33137  1  0
 34 35  1  0
 35 36  1  6
 35 64  1  0
 35 37  1  0
 37 38  1  0
 38 39  1  6
 38 42  1  0
 38 40  1  0
 40139  1  0
 40 41  1  0
 40140  1  0
 41141  1  0
 42 61  1  0
 42 44  1  0
 42 43  1  1
 44 45  1  0
 45 47  1  0
 45 58  1  0
 45 46  1  1
 47 48  1  0
 48 50  1  0
 48 52  1  0
 48 49  1  1
 50143  1  0
 50142  1  0
 50 51  1  0
 51144  1  0
 52 53  1  6
 52 54  1  0
 52 55  1  0
 54145  1  0
 55 57  1  0
 55 58  1  0
 55 56  1  1
 57146  1  0
 58 59  1  6
 58 60  1  0
 60147  1  0
 61 62  1  6
 61 63  1  0
 61 64  1  0
 63148  1  0
 64 66  1  0
 64 65  1  1
 66149  1  0
 67 68  1  6
 67 70  1  0
 67 69  1  0
 69150  1  0
 70 73  1  0
 70 72  1  0
 70 71  1  1
 72151  1  0
 73 74  1  6
 73 75  1  0
 75152  1  0
 76153  1  0
 76 77  1  0
 76154  1  0
 77156  1  0
 77155  1  0
 77 78  1  0
 78 80  1  0
 78 79  1  1
 79159  1  0
 79157  1  0
 79158  1  0
 80 82  1  0
 80 81  1  6
 82160  1  0
 82 83  1  0
 82161  1  0
 83163  1  0
 83162  1  0
 83 84  1  0
 84 86  1  0
 84 85  1  1
 85166  1  0
 85164  1  0
 85165  1  0
 86 87  1  6
 86 88  1  0
 87167  1  0
 88 89  1  6
 88 90  1  0
 88 91  1  0
 90169  1  0
 90170  1  0
 90168  1  0
 91 93  1  0
 91 92  2  0
 93172  1  0
 93171  1  0
 93 94  1  0
 94 95  1  0
 94173  1  0
 94174  1  0
 95175  1  6
 95 97  1  0
 95 96  1  0
 96177  1  0
 96178  1  0
 96176  1  0
 97181  1  0
 97179  1  0
 97180  1  0
 98100  1  0
 98 99  1  1
100101  1  0
101102  1  0
101103  2  0
102182  1  0
102184  1  0
102183  1  0
104105  1  0
105186  1  0
105106  1  0
105185  1  0
106109  1  0
106108  1  0
106107  1  1
108187  1  0
109110  1  6
109124  1  0
109111  1  0
111112  1  0
112113  2  0
112114  1  0
114123  2  0
114115  1  0
115188  1  0
115116  2  0
116117  1  0
116189  1  0
117120  2  0
117118  1  0
118119  1  0
119191  1  0
119190  1  0
119192  1  0
120123  1  0
120121  1  0
121122  1  0
122194  1  0
122195  1  0
122193  1  0
123196  1  0
124126  1  0
124125  1  1
126197  1  0
M  END
>  <id>  (405) 
507

>  <scaffolds>  (405) 
['c1ccccc1', 'C1=C2CCCCC2C2CCC3CCCC3C2C1', 'C1=CCCCC1', 'C1=CCC2CCCCC2C1', 'C1=C2CCCCC2C2CCC3CC(OC4CCCCO4)CC3C2C1', 'C1CCOCC1', 'C1=C2CC(OC3CCCCO3)CCC2C2CCC3CCCC3C2C1', 'C1=C2CC(OC3CCCCO3)CCC2C2CCC3CC(OC4CCCCO4)CC3C2C1', 'C1CCCCC1', 'O=C(OC1CCOC(OC2CCOC(OC3CC4CCC5C6CCC(OC7CCCC(COC8CCC(OC9CCCCO9)CO8)O7)CC6=CCC5C4C3)C2)C1)c1ccccc1', 'C1=C2CC(OC3CCCC(COC4CCCCO4)O3)CCC2C2CCC3CC(OC4CC(OC5CCCCO5)CCO4)CC3C2C1', 'C1=C2CCCCC2C2CCC3CC(OC4CC(OC5CCCCO5)CCO4)CC3C2C1', 'C1=C2CCCCC2CCC1', 'C1=C2CC(OC3CCCCO3)CCC2C2CCC3CC(OC4CC(OC5CCCCO5)CCO4)CC3C2C1', 'C1CCC(OC2CCCOC2)OC1', 'C1=C2CC(OC3CCCC(COC4CCC(OC5CCCCO5)CO4)O3)CCC2C2CCC3CC(OC4CC(OC5CCCCO5)CCO4)CC3C2C1']

>  <name>  (405) 
3[beta]-[(O-[beta]-D-glucopyranosyl-(1[to]4)-O-[beta]-D-glucopyranosyl-(1[to]6)-[beta]-D-glucopyranosyl)oxy)]-17[alpha]-hydroxy-16[beta]-[(O-(3-O-3,4-dimethoxybenzoyl-[beta]-D-xylopyranosyl)-(1[to]3)-2-O-acetyl-[alpha]-L-arabinopyranosyl)oxy]cholest-5...

>  <formula>  (405) 
C66H100O31

>  <SMILES>  (405) 
[H][C@@]%10(O[C@H]8[C@@H](O)CO[C@@]([H])(O[C@H]7C[C@@]6([H])[C@]5([H])CC=C4C[C@@H](O[C@]3([H])O[C@H](CO[C@@H]2O[C@H](CO)[C@@H](O[C@]1([H])O[C@H](CO)[C@@H](O)[C@H](O)[C@H]1O)[C@H](O)[C@H]2O)[C@@H](O)[C@H](O)[C@H]3O)CC[C@]4(C)[C@@]5([H])CC[C@]6(C)[C@@]7(O)[C@H](C)C(=O)CCC(C)C)[C@@H]8OC(C)=O)OC[C@@H](O)[C@H](OC(=O)c9ccc(OC)c(OC)c9)[C@H]%10O

>  <ChEMBL_id>  (405) 


>  <ZINC_id>  (405) 


>  <PubChem_id>  (405) 


>  <DrugBank_id>  (405) 


>  <CAS_no>  (405) 
474125-98-9

>  <references>  (405) 
[{'journal': {'name': 'Journal of Natural Products', 'id': 5}, 'title': 'Cholestane Glycosides from the Bulbs of Ornithogalum thyrsoides and Their Cytotoxic Activity against HL-60 Leukemia Cells', 'year': 2002, 'start_page': 1417, 'volume': 65, 'issue': 10, 'doi': '10.1021/np020114j', 'isbn': '', 'despositor': {'code': 'NFA', 'first_name': 'Ngonidzashe', 'last_name': 'Faya', 'id': 21}, 'refauthors_set': [{'author': {'first_name': 'Minpei', 'initials': 'M', 'last_name': 'Kuroda', 'id': 644}, 'first_author': True, 'id': 1199}, {'author': {'first_name': 'Yoshihiro ', 'initials': 'Y', 'last_name': 'Mimaki', 'id': 643}, 'first_author': None, 'id': 1200}, {'author': {'first_name': 'Akihito ', 'initials': 'A', 'last_name': 'Yokosuka', 'id': 650}, 'first_author': None, 'id': 1201}, {'author': {'first_name': 'Fusako', 'initials': 'F', 'last_name': 'Hasegawa', 'id': 711}, 'first_author': None, 'id': 1202}, {'author': {'first_name': 'Yutaka', 'initials': 'Y', 'last_name': 'Sashida', 'id': 645}, 'first_author': None, 'id': 1203}], 'id': 341}]

>  <classifications>  (405) 
[{'classification': 'Cholestane', 'id': 761}, {'classification': 'Glycoside', 'id': 781}, {'classification': 'Steroids and steroid derivatives (Classyfire)', 'id': 942}]

>  <molecular_mass>  (405) 
1389.48

$$$$
SANC00508_minRM1.pdb
     RDKit          3D

177185  0  0  1  0  0  0  0  0999 V2000
  -10.1310    3.4900    0.5710 H   0  0  0  0  0  0  0  0  0  0  0  0
  -10.0460    3.0140    1.5930 C   0  0  2  0  0  0  0  0  0  0  0  0
   -9.0980    1.9890    1.6470 O   0  0  0  0  0  0  0  0  0  0  0  0
   -7.8050    2.3260    1.2170 C   0  0  1  0  0  0  0  0  0  0  0  0
   -7.7630    3.2860    0.6330 H   0  0  0  0  0  0  0  0  0  0  0  0
   -6.8800    2.4470    2.4510 C   0  0  1  0  0  0  0  0  0  0  0  0
   -7.1720    3.3360    3.0730 H   0  0  0  0  0  0  0  0  0  0  0  0
   -7.0330    1.2570    3.1570 O   0  0  0  0  0  0  0  0  0  0  0  0
   -5.4290    2.6180    1.9470 C   0  0  0  0  0  0  0  0  0  0  0  0
   -5.0470    1.5490    1.1300 O   0  0  0  0  0  0  0  0  0  0  0  0
   -5.8330    1.4220   -0.0330 C   0  0  1  0  0  0  0  0  0  0  0  0
   -5.7360    2.3340   -0.6940 H   0  0  0  0  0  0  0  0  0  0  0  0
   -5.3760    0.2510   -0.6420 O   0  0  0  0  0  0  0  0  0  0  0  0
   -4.0450    0.2830   -1.0820 C   0  0  1  0  0  0  0  0  0  0  0  0
   -3.6760    1.3380   -1.2210 H   0  0  0  0  0  0  0  0  0  0  0  0
   -3.1190   -0.4180   -0.0660 C   0  0  0  0  0  0  0  0  0  0  0  0
   -2.0040   -0.9310   -0.9690 C   0  0  1  0  0  0  0  0  0  0  0  0
   -1.4200   -0.0400   -1.3270 H   0  0  0  0  0  0  0  0  0  0  0  0
   -1.0240   -1.9330   -0.3770 C   0  0  2  0  0  0  0  0  0  0  0  0
   -1.5750   -2.8440   -0.0280 H   0  0  0  0  0  0  0  0  0  0  0  0
   -0.2890   -1.3270    0.8180 C   0  0  0  0  0  0  0  0  0  0  0  0
    0.8380   -2.1910    1.2510 C   0  0  0  0  0  0  0  0  0  0  0  0
    1.3840   -3.1380    0.4860 C   0  0  0  0  0  0  0  0  0  0  0  0
    2.4580   -4.0170    1.0410 C   0  0  0  0  0  0  0  0  0  0  0  0
    3.6410   -4.1170    0.0710 C   0  0  1  0  0  0  0  0  0  0  0  0
    4.1680   -3.1290   -0.0050 H   0  0  0  0  0  0  0  0  0  0  0  0
    4.5110   -5.1530    0.4900 O   0  0  0  0  0  0  0  0  0  0  0  0
    5.3460   -4.8590    1.5670 C   0  0  2  0  0  0  0  0  0  0  0  0
    4.8130   -4.3990    2.4460 H   0  0  0  0  0  0  0  0  0  0  0  0
    6.3210   -3.9990    1.0250 O   0  0  0  0  0  0  0  0  0  0  0  0
    7.3100   -3.6450    1.9580 C   0  0  2  0  0  0  0  0  0  0  0  0
    6.8720   -3.1590    2.8720 H   0  0  0  0  0  0  0  0  0  0  0  0
    8.2240   -2.6520    1.2130 C   0  0  0  0  0  0  0  0  0  0  0  0
    7.3950   -1.5340    0.9800 O   0  0  0  0  0  0  0  0  0  0  0  0
    7.9710   -0.5360    0.1910 C   0  0  2  0  0  0  0  0  0  0  0  0
    8.4990   -0.9270   -0.7260 H   0  0  0  0  0  0  0  0  0  0  0  0
    8.8530    0.1210    1.0730 O   0  0  0  0  0  0  0  0  0  0  0  0
    9.4770    1.2340    0.4900 C   0  0  2  0  0  0  0  0  0  0  0  0
   10.0690    0.9440   -0.4210 H   0  0  0  0  0  0  0  0  0  0  0  0
   10.4250    1.7710    1.5880 C   0  0  0  0  0  0  0  0  0  0  0  0
   11.5500    0.9550    1.6470 O   0  0  0  0  0  0  0  0  0  0  0  0
    8.4140    2.3070    0.1270 C   0  0  1  0  0  0  0  0  0  0  0  0
    7.9020    2.6840    1.0520 H   0  0  0  0  0  0  0  0  0  0  0  0
    9.1260    3.2890   -0.5870 O   0  0  0  0  0  0  0  0  0  0  0  0
    8.8940    4.6190   -0.2180 C   0  0  2  0  0  0  0  0  0  0  0  0
    8.8900    4.7850    0.9000 H   0  0  0  0  0  0  0  0  0  0  0  0
    7.6580    4.9290   -0.8100 O   0  0  0  0  0  0  0  0  0  0  0  0
    7.2830    6.2730   -0.6220 C   0  0  2  0  0  0  0  0  0  0  0  0
    7.2160    6.5390    0.4690 H   0  0  0  0  0  0  0  0  0  0  0  0
    5.8850    6.3860   -1.2790 C   0  0  0  0  0  0  0  0  0  0  0  0
    4.9320    5.7060   -0.5280 O   0  0  0  0  0  0  0  0  0  0  0  0
    8.3010    7.1890   -1.3450 C   0  0  1  0  0  0  0  0  0  0  0  0
    8.3050    6.9770   -2.4510 H   0  0  0  0  0  0  0  0  0  0  0  0
    7.8950    8.4920   -1.0620 O   0  0  0  0  0  0  0  0  0  0  0  0
    9.7120    6.9300   -0.7490 C   0  0  2  0  0  0  0  0  0  0  0  0
    9.7440    7.2320    0.3360 H   0  0  0  0  0  0  0  0  0  0  0  0
   10.5870    7.6940   -1.5210 O   0  0  0  0  0  0  0  0  0  0  0  0
   10.0320    5.4240   -0.9120 C   0  0  1  0  0  0  0  0  0  0  0  0
   10.1020    5.1530   -2.0020 H   0  0  0  0  0  0  0  0  0  0  0  0
   11.2310    5.2200   -0.2310 O   0  0  0  0  0  0  0  0  0  0  0  0
    7.3780    1.6850   -0.8400 C   0  0  2  0  0  0  0  0  0  0  0  0
    7.8640    1.4380   -1.8230 H   0  0  0  0  0  0  0  0  0  0  0  0
    6.3560    2.6210   -0.9670 O   0  0  0  0  0  0  0  0  0  0  0  0
    6.7950    0.4090   -0.1790 C   0  0  1  0  0  0  0  0  0  0  0  0
    6.2010    0.6800    0.7360 H   0  0  0  0  0  0  0  0  0  0  0  0
    6.0100   -0.1850   -1.1640 O   0  0  0  0  0  0  0  0  0  0  0  0
    8.1100   -4.9160    2.3480 C   0  0  1  0  0  0  0  0  0  0  0  0
    8.6150   -5.3570    1.4450 H   0  0  0  0  0  0  0  0  0  0  0  0
    9.0300   -4.4950    3.3070 O   0  0  0  0  0  0  0  0  0  0  0  0
    7.1280   -5.9440    2.9670 C   0  0  2  0  0  0  0  0  0  0  0  0
    6.7010   -5.5520    3.9310 H   0  0  0  0  0  0  0  0  0  0  0  0
    7.8890   -7.0940    3.1740 O   0  0  0  0  0  0  0  0  0  0  0  0
    6.0030   -6.2190    1.9420 C   0  0  1  0  0  0  0  0  0  0  0  0
    6.4210   -6.7220    1.0270 H   0  0  0  0  0  0  0  0  0  0  0  0
    5.0810   -7.0220    2.6080 O   0  0  0  0  0  0  0  0  0  0  0  0
    3.1570   -4.5750   -1.3090 C   0  0  0  0  0  0  0  0  0  0  0  0
    2.1300   -3.5850   -1.8370 C   0  0  0  0  0  0  0  0  0  0  0  0
    0.9150   -3.4490   -0.9060 C   0  0  1  0  0  0  0  0  0  0  0  0
    0.1540   -4.7770   -0.8500 C   0  0  0  0  0  0  0  0  0  0  0  0
    0.0130   -2.3080   -1.4470 C   0  0  1  0  0  0  0  0  0  0  0  0
    0.6560   -1.4030   -1.6160 H   0  0  0  0  0  0  0  0  0  0  0  0
   -0.6050   -2.6830   -2.8010 C   0  0  0  0  0  0  0  0  0  0  0  0
   -1.7230   -1.7490   -3.2640 C   0  0  0  0  0  0  0  0  0  0  0  0
   -2.7580   -1.5580   -2.1550 C   0  0  1  0  0  0  0  0  0  0  0  0
   -3.3470   -2.9170   -1.7980 C   0  0  0  0  0  0  0  0  0  0  0  0
   -3.8910   -0.5080   -2.4400 C   0  0  2  0  0  0  0  0  0  0  0  0
   -3.3140    0.3640   -3.3730 O   0  0  0  0  0  0  0  0  0  0  0  0
   -5.1730   -1.0870   -3.0900 C   0  0  2  0  0  0  0  0  0  0  0  0
   -4.8110   -1.6420   -3.9970 H   0  0  0  0  0  0  0  0  0  0  0  0
   -6.1310    0.0130   -3.5580 C   0  0  0  0  0  0  0  0  0  0  0  0
   -6.0180   -2.0260   -2.2490 C   0  0  0  0  0  0  0  0  0  0  0  0
   -6.2820   -1.8270   -1.0830 O   0  0  0  0  0  0  0  0  0  0  0  0
   -6.6210   -3.2050   -2.9930 C   0  0  0  0  0  0  0  0  0  0  0  0
   -7.1570   -4.2580   -2.0250 C   0  0  0  0  0  0  0  0  0  0  0  0
   -7.7650   -5.4580   -2.7580 C   0  0  1  0  0  0  0  0  0  0  0  0
   -6.6890   -6.2830   -3.4550 C   0  0  0  0  0  0  0  0  0  0  0  0
   -8.5070   -6.3380   -1.7540 C   0  0  0  0  0  0  0  0  0  0  0  0
   -7.3170    1.1420    0.3470 C   0  0  2  0  0  0  0  0  0  0  0  0
   -7.4150    0.1580    0.8850 H   0  0  0  0  0  0  0  0  0  0  0  0
   -8.0050    1.1930   -0.8820 O   0  0  0  0  0  0  0  0  0  0  0  0
   -9.1160    0.4280   -1.0560 C   0  0  0  0  0  0  0  0  0  0  0  0
   -9.6080    0.5160   -2.4660 C   0  0  0  0  0  0  0  0  0  0  0  0
   -9.6050   -0.2130   -0.1490 O   0  0  0  0  0  0  0  0  0  0  0  0
   -9.6090    3.9450    2.5630 O   0  0  0  0  0  0  0  0  0  0  0  0
  -10.5070    4.9990    2.7550 C   0  0  0  0  0  0  0  0  0  0  0  0
  -11.8530    4.4540    3.2870 C   0  0  1  0  0  0  0  0  0  0  0  0
  -11.7050    3.9530    4.2870 H   0  0  0  0  0  0  0  0  0  0  0  0
  -12.7880    5.4890    3.3400 O   0  0  0  0  0  0  0  0  0  0  0  0
  -12.4380    3.4370    2.2670 C   0  0  2  0  0  0  0  0  0  0  0  0
  -12.6960    3.9560    1.2980 H   0  0  0  0  0  0  0  0  0  0  0  0
  -13.5360    2.7940    2.8310 O   0  0  0  0  0  0  0  0  0  0  0  0
  -11.3830    2.3310    2.0260 C   0  0  1  0  0  0  0  0  0  0  0  0
  -11.2300    1.7200    2.9590 H   0  0  0  0  0  0  0  0  0  0  0  0
  -11.8440    1.5910    0.9400 O   0  0  0  0  0  0  0  0  0  0  0  0
   -6.4510    1.3010    3.9240 H   0  0  0  0  0  0  0  0  0  0  0  0
   -5.3010    3.6020    1.4390 H   0  0  0  0  0  0  0  0  0  0  0  0
   -4.6890    2.5930    2.7740 H   0  0  0  0  0  0  0  0  0  0  0  0
   -2.7630    0.2790    0.7160 H   0  0  0  0  0  0  0  0  0  0  0  0
   -3.6370   -1.2200    0.4950 H   0  0  0  0  0  0  0  0  0  0  0  0
    0.0990   -0.3090    0.5920 H   0  0  0  0  0  0  0  0  0  0  0  0
   -0.9930   -1.1730    1.6650 H   0  0  0  0  0  0  0  0  0  0  0  0
    1.2010   -1.9980    2.2670 H   0  0  0  0  0  0  0  0  0  0  0  0
    2.8060   -3.6530    2.0330 H   0  0  0  0  0  0  0  0  0  0  0  0
    2.0380   -5.0230    1.2610 H   0  0  0  0  0  0  0  0  0  0  0  0
    9.1050   -2.3850    1.8390 H   0  0  0  0  0  0  0  0  0  0  0  0
    8.6180   -3.0890    0.2660 H   0  0  0  0  0  0  0  0  0  0  0  0
   10.8040    2.7780    1.3120 H   0  0  0  0  0  0  0  0  0  0  0  0
    9.8980    1.8860    2.5620 H   0  0  0  0  0  0  0  0  0  0  0  0
   11.4070    0.2850    2.3270 H   0  0  0  0  0  0  0  0  0  0  0  0
    5.5410    7.4450   -1.2820 H   0  0  0  0  0  0  0  0  0  0  0  0
    5.9160    6.0500   -2.3430 H   0  0  0  0  0  0  0  0  0  0  0  0
    5.1610    4.7700   -0.5190 H   0  0  0  0  0  0  0  0  0  0  0  0
    8.4800    9.0900   -1.5380 H   0  0  0  0  0  0  0  0  0  0  0  0
   11.4700    7.5980   -1.1480 H   0  0  0  0  0  0  0  0  0  0  0  0
   11.5560    4.3440   -0.4700 H   0  0  0  0  0  0  0  0  0  0  0  0
    5.8690    2.4030   -1.7670 H   0  0  0  0  0  0  0  0  0  0  0  0
    5.5610   -0.9390   -0.7640 H   0  0  0  0  0  0  0  0  0  0  0  0
    9.5640   -5.2580    3.5520 H   0  0  0  0  0  0  0  0  0  0  0  0
    7.3190   -7.7510    3.5860 H   0  0  0  0  0  0  0  0  0  0  0  0
    4.4050   -7.2780    1.9720 H   0  0  0  0  0  0  0  0  0  0  0  0
    4.0160   -4.6580   -2.0100 H   0  0  0  0  0  0  0  0  0  0  0  0
    2.7390   -5.6040   -1.2640 H   0  0  0  0  0  0  0  0  0  0  0  0
    2.6120   -2.5950   -1.9930 H   0  0  0  0  0  0  0  0  0  0  0  0
    1.8080   -3.9040   -2.8510 H   0  0  0  0  0  0  0  0  0  0  0  0
    0.8000   -5.6330   -0.6060 H   0  0  0  0  0  0  0  0  0  0  0  0
   -0.6460   -4.7730   -0.0960 H   0  0  0  0  0  0  0  0  0  0  0  0
   -0.3230   -5.0260   -1.8140 H   0  0  0  0  0  0  0  0  0  0  0  0
    0.1900   -2.6820   -3.5790 H   0  0  0  0  0  0  0  0  0  0  0  0
   -0.9620   -3.7370   -2.8040 H   0  0  0  0  0  0  0  0  0  0  0  0
   -1.2750   -0.7850   -3.5860 H   0  0  0  0  0  0  0  0  0  0  0  0
   -2.2040   -2.1430   -4.1840 H   0  0  0  0  0  0  0  0  0  0  0  0
   -2.5950   -3.6260   -1.4090 H   0  0  0  0  0  0  0  0  0  0  0  0
   -4.0970   -2.8790   -0.9990 H   0  0  0  0  0  0  0  0  0  0  0  0
   -3.7890   -3.4190   -2.6700 H   0  0  0  0  0  0  0  0  0  0  0  0
   -3.9050    1.1050   -3.5330 H   0  0  0  0  0  0  0  0  0  0  0  0
   -6.1780    0.8780   -2.8810 H   0  0  0  0  0  0  0  0  0  0  0  0
   -5.8660    0.3960   -4.5540 H   0  0  0  0  0  0  0  0  0  0  0  0
   -7.1770   -0.3330   -3.6440 H   0  0  0  0  0  0  0  0  0  0  0  0
   -7.4300   -2.8250   -3.6530 H   0  0  0  0  0  0  0  0  0  0  0  0
   -5.8830   -3.6540   -3.6880 H   0  0  0  0  0  0  0  0  0  0  0  0
   -6.3500   -4.5870   -1.3370 H   0  0  0  0  0  0  0  0  0  0  0  0
   -7.9180   -3.7980   -1.3570 H   0  0  0  0  0  0  0  0  0  0  0  0
   -8.4970   -5.0940   -3.5250 H   0  0  0  0  0  0  0  0  0  0  0  0
   -5.9120   -6.6310   -2.7580 H   0  0  0  0  0  0  0  0  0  0  0  0
   -7.1060   -7.1820   -3.9330 H   0  0  0  0  0  0  0  0  0  0  0  0
   -6.1750   -5.7250   -4.2500 H   0  0  0  0  0  0  0  0  0  0  0  0
   -9.3250   -5.8010   -1.2550 H   0  0  0  0  0  0  0  0  0  0  0  0
   -8.9600   -7.2200   -2.2310 H   0  0  0  0  0  0  0  0  0  0  0  0
   -7.8450   -6.7140   -0.9600 H   0  0  0  0  0  0  0  0  0  0  0  0
   -8.8210    0.2130   -3.1820 H   0  0  0  0  0  0  0  0  0  0  0  0
  -10.4780   -0.1400   -2.6250 H   0  0  0  0  0  0  0  0  0  0  0  0
   -9.9130    1.5430   -2.7260 H   0  0  0  0  0  0  0  0  0  0  0  0
   -9.9980    5.6600    3.4940 H   0  0  0  0  0  0  0  0  0  0  0  0
  -10.6530    5.6110    1.8310 H   0  0  0  0  0  0  0  0  0  0  0  0
  -12.5820    6.0240    4.1120 H   0  0  0  0  0  0  0  0  0  0  0  0
  -14.2800    3.4050    2.7780 H   0  0  0  0  0  0  0  0  0  0  0  0
  -11.5660    0.6770    1.0710 H   0  0  0  0  0  0  0  0  0  0  0  0
  2  1  1  6
  2  3  1  0
  2112  1  0
  2104  1  0
  3  4  1  0
  4 98  1  0
  4  5  1  6
  4  6  1  0
  6  9  1  0
  6  7  1  1
  6  8  1  0
  8115  1  0
  9 10  1  0
  9116  1  0
  9117  1  0
 10 11  1  0
 11 12  1  6
 11 13  1  0
 11 98  1  0
 13 14  1  0
 14 86  1  0
 14 15  1  6
 14 16  1  0
 16 17  1  0
 16119  1  0
 16118  1  0
 17 84  1  0
 17 18  1  6
 17 19  1  0
 19 80  1  0
 19 20  1  1
 19 21  1  0
 21120  1  0
 21 22  1  0
 21121  1  0
 22 23  2  0
 22122  1  0
 23 78  1  0
 23 24  1  0
 24 25  1  0
 24124  1  0
 24123  1  0
 25 76  1  0
 25 26  1  6
 25 27  1  0
 27 28  1  0
 28 30  1  0
 28 73  1  0
 28 29  1  1
 30 31  1  0
 31 33  1  0
 31 67  1  0
 31 32  1  1
 33126  1  0
 33 34  1  0
 33125  1  0
 34 35  1  0
 35 36  1  6
 35 64  1  0
 35 37  1  0
 37 38  1  0
 38 39  1  6
 38 42  1  0
 38 40  1  0
 40127  1  0
 40 41  1  0
 40128  1  0
 41129  1  0
 42 61  1  0
 42 44  1  0
 42 43  1  1
 44 45  1  0
 45 58  1  0
 45 47  1  0
 45 46  1  1
 47 48  1  0
 48 52  1  0
 48 50  1  0
 48 49  1  1
 50131  1  0
 50130  1  0
 50 51  1  0
 51132  1  0
 52 53  1  6
 52 54  1  0
 52 55  1  0
 54133  1  0
 55 57  1  0
 55 58  1  0
 55 56  1  1
 57134  1  0
 58 59  1  6
 58 60  1  0
 60135  1  0
 61 62  1  6
 61 63  1  0
 61 64  1  0
 63136  1  0
 64 66  1  0
 64 65  1  1
 66137  1  0
 67 68  1  6
 67 70  1  0
 67 69  1  0
 69138  1  0
 70 73  1  0
 70 72  1  0
 70 71  1  1
 72139  1  0
 73 74  1  6
 73 75  1  0
 75140  1  0
 76141  1  0
 76 77  1  0
 76142  1  0
 77144  1  0
 77143  1  0
 77 78  1  0
 78 80  1  0
 78 79  1  1
 79147  1  0
 79145  1  0
 79146  1  0
 80 82  1  0
 80 81  1  6
 82148  1  0
 82 83  1  0
 82149  1  0
 83151  1  0
 83150  1  0
 83 84  1  0
 84 86  1  0
 84 85  1  1
 85154  1  0
 85152  1  0
 85153  1  0
 86 87  1  6
 86 88  1  0
 87155  1  0
 88 89  1  6
 88 90  1  0
 88 91  1  0
 90157  1  0
 90158  1  0
 90156  1  0
 91 93  1  0
 91 92  2  0
 93160  1  0
 93159  1  0
 93 94  1  0
 94 95  1  0
 94162  1  0
 94161  1  0
 95163  1  6
 95 96  1  0
 95 97  1  0
 96166  1  0
 96165  1  0
 96164  1  0
 97168  1  0
 97167  1  0
 97169  1  0
 98100  1  0
 98 99  1  1
100101  1  0
101102  1  0
101103  2  0
102170  1  0
102172  1  0
102171  1  0
104105  1  0
105174  1  0
105106  1  0
105173  1  0
106109  1  0
106108  1  0
106107  1  1
108175  1  0
109110  1  6
109112  1  0
109111  1  0
111176  1  0
112114  1  0
112113  1  1
114177  1  0
M  END
>  <id>  (406) 
508

>  <scaffolds>  (406) 
['C1=C2CCCCC2C2CCC3CCCC3C2C1', 'C1=CCCCC1', 'C1=CCC2CCCCC2C1', 'C1=C2CCCCC2C2CCC3CC(OC4CCCCO4)CC3C2C1', 'C1CCOCC1', 'C1=C2CC(OC3CCCCO3)CCC2C2CCC3CCCC3C2C1', 'C1=C2CC(OC3CCCCO3)CCC2C2CCC3CC(OC4CCCCO4)CC3C2C1', 'C1CCCCC1', 'C1=C2CC(OC3CCCC(COC4CCCCO4)O3)CCC2C2CCC3CC(OC4CC(OC5CCCCO5)CCO4)CC3C2C1', 'C1=C2CCCCC2C2CCC3CC(OC4CC(OC5CCCCO5)CCO4)CC3C2C1', 'C1=C2CCCCC2CCC1', 'C1=C2CC(OC3CCCCO3)CCC2C2CCC3CC(OC4CC(OC5CCCCO5)CCO4)CC3C2C1', 'C1CCC(OC2CCCOC2)OC1', 'C1=C2CC(OC3CCCC(COC4CCC(OC5CCCCO5)CO4)O3)CCC2C2CCC3CC(OC4CC(OC5CCCCO5)CCO4)CC3C2C1']

>  <name>  (406) 
3[beta]-[(O-[beta]-D-glucopyranosyl-(1[to]4)-O-[beta]-D-glucopyranosyl-(1[to]6)-[beta]-D-glucopyranosyl)oxy)]-17[alpha]-hydroxy-16[beta]-[(O-[beta]-D-xylopyranosyl-(1[to]3)-2-O-acetyl-[alpha]-L-arabinopyranosyl)oxy]cholest-5-en-22-one

>  <formula>  (406) 
C57H92O28

>  <SMILES>  (406) 
[H][C@@]9(O[C@H]8[C@@H](O)CO[C@@]([H])(O[C@H]7C[C@@]6([H])[C@]5([H])CC=C4C[C@@H](O[C@]3([H])O[C@H](CO[C@@H]2O[C@H](CO)[C@@H](O[C@]1([H])O[C@H](CO)[C@@H](O)[C@H](O)[C@H]1O)[C@H](O)[C@H]2O)[C@@H](O)[C@H](O)[C@H]3O)CC[C@]4(C)[C@@]5([H])CC[C@]6(C)[C@@]7(O)[C@H](C)C(=O)CCC(C)C)[C@@H]8OC(C)=O)OC[C@@H](O)[C@H](O)[C@H]9O

>  <ChEMBL_id>  (406) 


>  <ZINC_id>  (406) 


>  <PubChem_id>  (406) 


>  <DrugBank_id>  (406) 


>  <CAS_no>  (406) 
474125-94-5

>  <references>  (406) 
[{'journal': {'name': 'Journal of Natural Products', 'id': 5}, 'title': 'Cholestane Glycosides from the Bulbs of Ornithogalum thyrsoides and Their Cytotoxic Activity against HL-60 Leukemia Cells', 'year': 2002, 'start_page': 1417, 'volume': 65, 'issue': 10, 'doi': '10.1021/np020114j', 'isbn': '', 'despositor': {'code': 'NFA', 'first_name': 'Ngonidzashe', 'last_name': 'Faya', 'id': 21}, 'refauthors_set': [{'author': {'first_name': 'Minpei', 'initials': 'M', 'last_name': 'Kuroda', 'id': 644}, 'first_author': True, 'id': 1199}, {'author': {'first_name': 'Yoshihiro ', 'initials': 'Y', 'last_name': 'Mimaki', 'id': 643}, 'first_author': None, 'id': 1200}, {'author': {'first_name': 'Akihito ', 'initials': 'A', 'last_name': 'Yokosuka', 'id': 650}, 'first_author': None, 'id': 1201}, {'author': {'first_name': 'Fusako', 'initials': 'F', 'last_name': 'Hasegawa', 'id': 711}, 'first_author': None, 'id': 1202}, {'author': {'first_name': 'Yutaka', 'initials': 'Y', 'last_name': 'Sashida', 'id': 645}, 'first_author': None, 'id': 1203}], 'id': 341}]

>  <classifications>  (406) 
[{'classification': 'Cholestane', 'id': 761}, {'classification': 'Glycoside', 'id': 781}, {'classification': 'Steroids and steroid derivatives (Classyfire)', 'id': 942}]

>  <molecular_mass>  (406) 
1225.32

$$$$
SANC00509_minRM1.pdb
     RDKit          3D

107111  0  0  1  0  0  0  0  0999 V2000
   -2.6130   -0.5260    2.1240 H   0  0  0  0  0  0  0  0  0  0  0  0
   -2.2330   -0.9340    1.1470 C   0  0  2  0  0  0  0  0  0  0  0  0
   -1.2790   -0.1380    0.5040 O   0  0  0  0  0  0  0  0  0  0  0  0
   -0.3170    0.4590    1.3430 C   0  0  1  0  0  0  0  0  0  0  0  0
   -0.7310    0.6850    2.3620 H   0  0  0  0  0  0  0  0  0  0  0  0
    0.9120   -0.4770    1.4510 C   0  0  0  0  0  0  0  0  0  0  0  0
    2.0910    0.4220    1.1030 C   0  0  1  0  0  0  0  0  0  0  0  0
    2.3620    1.0140    2.0180 H   0  0  0  0  0  0  0  0  0  0  0  0
    3.3410   -0.2810    0.6020 C   0  0  2  0  0  0  0  0  0  0  0  0
    3.1060   -0.8510   -0.3370 H   0  0  0  0  0  0  0  0  0  0  0  0
    3.8380   -1.2600    1.6630 C   0  0  0  0  0  0  0  0  0  0  0  0
    5.1940   -1.7690    1.3390 C   0  0  0  0  0  0  0  0  0  0  0  0
    6.0050   -1.2040    0.4440 C   0  0  0  0  0  0  0  0  0  0  0  0
    7.3240   -1.8390    0.1540 C   0  0  0  0  0  0  0  0  0  0  0  0
    8.4380   -0.7860    0.2190 C   0  0  1  0  0  0  0  0  0  0  0  0
    8.4850   -0.3360    1.2490 H   0  0  0  0  0  0  0  0  0  0  0  0
    9.6700   -1.3450   -0.1420 O   0  0  0  0  0  0  0  0  0  0  0  0
    8.1470    0.2930   -0.8250 C   0  0  0  0  0  0  0  0  0  0  0  0
    6.8240    0.9700   -0.4970 C   0  0  0  0  0  0  0  0  0  0  0  0
    5.6320    0.0080   -0.3640 C   0  0  1  0  0  0  0  0  0  0  0  0
    5.2150   -0.4890   -1.7510 C   0  0  0  0  0  0  0  0  0  0  0  0
    4.4460    0.7470    0.3210 C   0  0  1  0  0  0  0  0  0  0  0  0
    4.8010    1.1520    1.3060 H   0  0  0  0  0  0  0  0  0  0  0  0
    3.9320    1.9340   -0.5300 C   0  0  2  0  0  0  0  0  0  0  0  0
    3.9180    1.6370   -1.6180 H   0  0  0  0  0  0  0  0  0  0  0  0
    4.8550    2.9700   -0.3110 O   0  0  0  0  0  0  0  0  0  0  0  0
    2.5400    2.4800   -0.1370 C   0  0  0  0  0  0  0  0  0  0  0  0
    1.5200    1.3660    0.0290 C   0  0  1  0  0  0  0  0  0  0  0  0
    1.2850    0.6590   -1.2990 C   0  0  0  0  0  0  0  0  0  0  0  0
    0.1800    1.7820    0.6810 C   0  0  1  0  0  0  0  0  0  0  0  0
    0.4020    2.4950    1.5200 H   0  0  0  0  0  0  0  0  0  0  0  0
   -0.8380    2.4690   -0.2310 C   0  0  2  0  0  0  0  0  0  0  0  0
   -1.1170    1.7920   -1.0770 H   0  0  0  0  0  0  0  0  0  0  0  0
   -0.2490    3.7520   -0.8070 C   0  0  0  0  0  0  0  0  0  0  0  0
   -2.1330    2.7960    0.5600 C   0  0  1  0  0  0  0  0  0  0  0  0
   -2.5000    1.9040    1.1290 H   0  0  0  0  0  0  0  0  0  0  0  0
   -1.8850    3.7100    1.5810 O   0  0  0  0  0  0  0  0  0  0  0  0
   -3.2490    3.2700   -0.3920 C   0  0  0  0  0  0  0  0  0  0  0  0
   -4.5330    3.5560    0.3780 C   0  0  0  0  0  0  0  0  0  0  0  0
   -5.6360    4.1090   -0.5300 C   0  0  1  0  0  0  0  0  0  0  0  0
   -6.0780    3.0730   -1.5560 C   0  0  0  0  0  0  0  0  0  0  0  0
   -6.8320    4.5240    0.3210 C   0  0  0  0  0  0  0  0  0  0  0  0
   -1.6400   -2.1380    1.5220 O   0  0  0  0  0  0  0  0  0  0  0  0
   -1.1480   -2.9530    0.4830 C   0  0  1  0  0  0  0  0  0  0  0  0
   -0.3040   -2.4360   -0.0600 H   0  0  0  0  0  0  0  0  0  0  0  0
   -0.6210   -4.2020    1.1870 C   0  0  0  0  0  0  0  0  0  0  0  0
   -2.2920   -3.3040   -0.4990 C   0  0  2  0  0  0  0  0  0  0  0  0
   -3.0930   -3.8970    0.0200 H   0  0  0  0  0  0  0  0  0  0  0  0
   -1.7840   -3.9690   -1.6160 O   0  0  0  0  0  0  0  0  0  0  0  0
   -2.8660   -1.9830   -1.0610 C   0  0  1  0  0  0  0  0  0  0  0  0
   -2.0790   -1.4110   -1.6280 H   0  0  0  0  0  0  0  0  0  0  0  0
   -4.0050   -2.3050   -1.8220 O   0  0  0  0  0  0  0  0  0  0  0  0
   -3.8960   -2.4030   -3.1760 C   0  0  0  0  0  0  0  0  0  0  0  0
   -5.1370   -2.9870   -3.7710 C   0  0  0  0  0  0  0  0  0  0  0  0
   -2.9130   -2.0020   -3.7670 O   0  0  0  0  0  0  0  0  0  0  0  0
   -3.3710   -1.1100    0.1050 C   0  0  1  0  0  0  0  0  0  0  0  0
   -3.7170   -0.1100   -0.2740 H   0  0  0  0  0  0  0  0  0  0  0  0
   -4.4130   -1.8430    0.7060 O   0  0  0  0  0  0  0  0  0  0  0  0
   -5.2690   -1.1920    1.5370 C   0  0  0  0  0  0  0  0  0  0  0  0
   -6.3300   -2.1070    2.0510 C   0  0  0  0  0  0  0  0  0  0  0  0
   -5.1170   -0.0100    1.7850 O   0  0  0  0  0  0  0  0  0  0  0  0
    0.9980   -0.9310    2.4570 H   0  0  0  0  0  0  0  0  0  0  0  0
    0.8430   -1.3470    0.7610 H   0  0  0  0  0  0  0  0  0  0  0  0
    3.8610   -0.7940    2.6730 H   0  0  0  0  0  0  0  0  0  0  0  0
    3.1290   -2.1100    1.7650 H   0  0  0  0  0  0  0  0  0  0  0  0
    5.4960   -2.6590    1.9040 H   0  0  0  0  0  0  0  0  0  0  0  0
    7.5480   -2.6770    0.8520 H   0  0  0  0  0  0  0  0  0  0  0  0
    7.2980   -2.3270   -0.8450 H   0  0  0  0  0  0  0  0  0  0  0  0
    9.8970   -2.0050    0.5240 H   0  0  0  0  0  0  0  0  0  0  0  0
    8.9670    1.0430   -0.8440 H   0  0  0  0  0  0  0  0  0  0  0  0
    8.1540   -0.1350   -1.8490 H   0  0  0  0  0  0  0  0  0  0  0  0
    6.9390    1.5660    0.4350 H   0  0  0  0  0  0  0  0  0  0  0  0
    6.6230    1.7190   -1.2930 H   0  0  0  0  0  0  0  0  0  0  0  0
    6.0420   -0.9430   -2.3130 H   0  0  0  0  0  0  0  0  0  0  0  0
    4.4210   -1.2510   -1.6970 H   0  0  0  0  0  0  0  0  0  0  0  0
    4.8210    0.3260   -2.3820 H   0  0  0  0  0  0  0  0  0  0  0  0
    4.6470    3.6820   -0.9230 H   0  0  0  0  0  0  0  0  0  0  0  0
    2.6160    3.0850    0.7920 H   0  0  0  0  0  0  0  0  0  0  0  0
    2.2070    3.2080   -0.9110 H   0  0  0  0  0  0  0  0  0  0  0  0
    2.1580    0.0690   -1.6260 H   0  0  0  0  0  0  0  0  0  0  0  0
    0.4490   -0.0550   -1.2750 H   0  0  0  0  0  0  0  0  0  0  0  0
    1.0680    1.3570   -2.1200 H   0  0  0  0  0  0  0  0  0  0  0  0
    0.5930    3.5580   -1.4920 H   0  0  0  0  0  0  0  0  0  0  0  0
   -0.9860    4.3270   -1.3880 H   0  0  0  0  0  0  0  0  0  0  0  0
    0.1500    4.4290   -0.0360 H   0  0  0  0  0  0  0  0  0  0  0  0
   -1.7760    4.5850    1.1970 H   0  0  0  0  0  0  0  0  0  0  0  0
   -2.9290    4.1640   -0.9680 H   0  0  0  0  0  0  0  0  0  0  0  0
   -3.4190    2.4870   -1.1590 H   0  0  0  0  0  0  0  0  0  0  0  0
   -4.8820    2.6370    0.8980 H   0  0  0  0  0  0  0  0  0  0  0  0
   -4.3340    4.2760    1.2000 H   0  0  0  0  0  0  0  0  0  0  0  0
   -5.2520    5.0130   -1.0710 H   0  0  0  0  0  0  0  0  0  0  0  0
   -5.3180    2.8860   -2.3260 H   0  0  0  0  0  0  0  0  0  0  0  0
   -6.3130    2.1020   -1.0950 H   0  0  0  0  0  0  0  0  0  0  0  0
   -6.9850    3.3890   -2.0950 H   0  0  0  0  0  0  0  0  0  0  0  0
   -6.5670    5.2820    1.0710 H   0  0  0  0  0  0  0  0  0  0  0  0
   -7.6390    4.9590   -0.2850 H   0  0  0  0  0  0  0  0  0  0  0  0
   -7.2670    3.6760    0.8680 H   0  0  0  0  0  0  0  0  0  0  0  0
   -1.4170   -4.7780    1.6790 H   0  0  0  0  0  0  0  0  0  0  0  0
   -0.1060   -4.8740    0.4870 H   0  0  0  0  0  0  0  0  0  0  0  0
    0.1070   -3.9470    1.9730 H   0  0  0  0  0  0  0  0  0  0  0  0
   -1.5910   -4.8740   -1.3510 H   0  0  0  0  0  0  0  0  0  0  0  0
   -5.9660   -2.2610   -3.7370 H   0  0  0  0  0  0  0  0  0  0  0  0
   -4.9780   -3.2690   -4.8210 H   0  0  0  0  0  0  0  0  0  0  0  0
   -5.4730   -3.8850   -3.2320 H   0  0  0  0  0  0  0  0  0  0  0  0
   -5.8960   -2.9310    2.6390 H   0  0  0  0  0  0  0  0  0  0  0  0
   -7.0390   -1.5700    2.6980 H   0  0  0  0  0  0  0  0  0  0  0  0
   -6.9030   -2.5610    1.2260 H   0  0  0  0  0  0  0  0  0  0  0  0
  2  1  1  1
  2 56  1  0
  2  3  1  0
  2 43  1  0
  3  4  1  0
  4 30  1  0
  4  6  1  0
  4  5  1  1
  6 63  1  0
  6  7  1  0
  6 62  1  0
  7 28  1  0
  7  9  1  0
  7  8  1  1
  9 10  1  6
  9 22  1  0
  9 11  1  0
 11 12  1  0
 11 65  1  0
 11 64  1  0
 12 13  2  0
 12 66  1  0
 13 20  1  0
 13 14  1  0
 14 68  1  0
 14 15  1  0
 14 67  1  0
 15 18  1  0
 15 17  1  0
 15 16  1  1
 17 69  1  0
 18 71  1  0
 18 70  1  0
 18 19  1  0
 19 73  1  0
 19 20  1  0
 19 72  1  0
 20 21  1  6
 20 22  1  0
 21 76  1  0
 21 74  1  0
 21 75  1  0
 22 24  1  0
 22 23  1  1
 24 25  1  6
 24 26  1  0
 24 27  1  0
 26 77  1  0
 27 79  1  0
 27 28  1  0
 27 78  1  0
 28 29  1  6
 28 30  1  0
 29 82  1  0
 29 80  1  0
 29 81  1  0
 30 32  1  0
 30 31  1  1
 32 33  1  6
 32 34  1  0
 32 35  1  0
 34 83  1  0
 34 84  1  0
 34 85  1  0
 35 38  1  0
 35 36  1  1
 35 37  1  0
 37 86  1  0
 38 88  1  0
 38 87  1  0
 38 39  1  0
 39 40  1  0
 39 89  1  0
 39 90  1  0
 40 41  1  0
 40 91  1  6
 40 42  1  0
 41 92  1  0
 41 94  1  0
 41 93  1  0
 42 96  1  0
 42 97  1  0
 42 95  1  0
 43 44  1  0
 44 47  1  0
 44 45  1  6
 44 46  1  0
 46 99  1  0
 46 98  1  0
 46100  1  0
 47 49  1  0
 47 50  1  0
 47 48  1  1
 49101  1  0
 50 52  1  0
 50 51  1  6
 50 56  1  0
 52 53  1  0
 53 54  1  0
 53 55  2  0
 54103  1  0
 54102  1  0
 54104  1  0
 56 57  1  6
 56 58  1  0
 58 59  1  0
 59 61  2  0
 59 60  1  0
 60107  1  0
 60105  1  0
 60106  1  0
M  END
>  <id>  (407) 
509

>  <scaffolds>  (407) 
['C1=C2CCCCC2C2CCC3CCCC3C2C1', 'C1=CCCCC1', 'C1=CCC2CCCCC2C1', 'C1=C2CCCCC2C2CCC3CC(OC4CCCCO4)CC3C2C1', 'C1CCOCC1', 'C1CCCCC1', 'C1=C2CCCCC2CCC1']

>  <name>  (407) 
(22S)-cholest-5-ene-3[beta],11[alpha],16[beta],22-tetrol 16-O-(2,3-di-O-acetyl-[alpha]-L-rhamnopyranoside)

>  <formula>  (407) 
C37H60O10

>  <SMILES>  (407) 
[H][C@@]5(O[C@H]4C[C@@]3([H])[C@]2([H])CC=C1C[C@@H](O)CC[C@]1(C)[C@@]2([H])[C@H](O)C[C@]3(C)[C@@]4([H])[C@H](C)[C@@H](O)CCC(C)C)O[C@@H](C)[C@H](O)[C@@H](OC(C)=O)[C@H]5OC(C)=O

>  <ChEMBL_id>  (407) 


>  <ZINC_id>  (407) 


>  <PubChem_id>  (407) 


>  <DrugBank_id>  (407) 


>  <CAS_no>  (407) 
249924-38-7

>  <references>  (407) 
[{'journal': {'name': 'Phytochemistry', 'id': 10}, 'title': 'Cholestane rhamnosides from the bulbs of Ornithogalum saundersiae', 'year': 1999, 'start_page': 445, 'volume': 52, 'issue': 3, 'doi': '10.1016/S0031-9422(99)00240-X', 'isbn': '', 'despositor': {'code': 'NFA', 'first_name': 'Ngonidzashe', 'last_name': 'Faya', 'id': 21}, 'refauthors_set': [{'author': {'first_name': 'Minpei', 'initials': 'M', 'last_name': 'Kuroda', 'id': 644}, 'first_author': True, 'id': 1186}, {'author': {'first_name': 'Yoshihiro ', 'initials': 'Y', 'last_name': 'Mimaki', 'id': 643}, 'first_author': None, 'id': 1187}, {'author': {'first_name': 'Yutaka', 'initials': 'Y', 'last_name': 'Sashida', 'id': 645}, 'first_author': None, 'id': 1188}], 'id': 342}]

>  <classifications>  (407) 
[{'classification': 'Cholestane', 'id': 761}, {'classification': 'Rhamnoside', 'id': 823}, {'classification': 'Steroids and steroid derivatives (Classyfire)', 'id': 942}]

>  <molecular_mass>  (407) 
664.86

$$$$
SANC00510_minRM1.pdb
     RDKit          3D

126131  0  0  1  0  0  0  0  0999 V2000
    0.3450    2.1650   -2.4330 H   0  0  0  0  0  0  0  0  0  0  0  0
    0.3320    1.1730   -1.9020 C   0  0  2  0  0  0  0  0  0  0  0  0
   -0.5690    1.0870   -0.8350 O   0  0  0  0  0  0  0  0  0  0  0  0
   -1.8140    1.7130   -1.0390 C   0  0  1  0  0  0  0  0  0  0  0  0
   -1.7390    2.5730   -1.7550 H   0  0  0  0  0  0  0  0  0  0  0  0
   -2.8150    0.6580   -1.5640 C   0  0  0  0  0  0  0  0  0  0  0  0
   -4.0380    0.8450   -0.6780 C   0  0  1  0  0  0  0  0  0  0  0  0
   -4.6200    1.7200   -1.0750 H   0  0  0  0  0  0  0  0  0  0  0  0
   -4.9750   -0.3470   -0.5730 C   0  0  2  0  0  0  0  0  0  0  0  0
   -4.4280   -1.2180   -0.1230 H   0  0  0  0  0  0  0  0  0  0  0  0
   -5.4730   -0.7450   -1.9600 C   0  0  0  0  0  0  0  0  0  0  0  0
   -6.5730   -1.7380   -1.8700 C   0  0  0  0  0  0  0  0  0  0  0  0
   -7.2690   -1.9760   -0.7580 C   0  0  0  0  0  0  0  0  0  0  0  0
   -8.3000   -3.0550   -0.7550 C   0  0  0  0  0  0  0  0  0  0  0  0
   -9.6220   -2.5170   -0.1920 C   0  0  1  0  0  0  0  0  0  0  0  0
  -10.0110   -1.6900   -0.8490 H   0  0  0  0  0  0  0  0  0  0  0  0
  -10.5650   -3.5450   -0.0710 O   0  0  0  0  0  0  0  0  0  0  0  0
   -9.3860   -2.0040    1.2310 C   0  0  0  0  0  0  0  0  0  0  0  0
   -8.3540   -0.8850    1.2090 C   0  0  0  0  0  0  0  0  0  0  0  0
   -7.0210   -1.2700    0.5460 C   0  0  1  0  0  0  0  0  0  0  0  0
   -6.2560   -2.2450    1.4470 C   0  0  0  0  0  0  0  0  0  0  0  0
   -6.1850    0.0200    0.2970 C   0  0  1  0  0  0  0  0  0  0  0  0
   -6.8180    0.7420   -0.2850 H   0  0  0  0  0  0  0  0  0  0  0  0
   -5.7680    0.7060    1.6200 C   0  0  2  0  0  0  0  0  0  0  0  0
   -5.4760   -0.0790    2.3760 H   0  0  0  0  0  0  0  0  0  0  0  0
   -6.9110    1.4060    2.0420 O   0  0  0  0  0  0  0  0  0  0  0  0
   -4.6210    1.7380    1.5120 C   0  0  0  0  0  0  0  0  0  0  0  0
   -3.4500    1.1990    0.7020 C   0  0  1  0  0  0  0  0  0  0  0  0
   -2.8260   -0.0050    1.3940 C   0  0  0  0  0  0  0  0  0  0  0  0
   -2.3640    2.2370    0.3270 C   0  0  1  0  0  0  0  0  0  0  0  0
   -2.8730    3.2150    0.1180 H   0  0  0  0  0  0  0  0  0  0  0  0
   -1.2780    2.5050    1.3720 C   0  0  2  0  0  0  0  0  0  0  0  0
   -0.6740    1.5780    1.5490 H   0  0  0  0  0  0  0  0  0  0  0  0
   -1.8820    2.9370    2.7030 C   0  0  0  0  0  0  0  0  0  0  0  0
   -0.3080    3.6050    0.8640 C   0  0  1  0  0  0  0  0  0  0  0  0
    0.0340    3.3980   -0.1820 H   0  0  0  0  0  0  0  0  0  0  0  0
   -0.9520    4.8310    0.7200 O   0  0  0  0  0  0  0  0  0  0  0  0
    0.9150    3.6960    1.7980 C   0  0  0  0  0  0  0  0  0  0  0  0
    1.8910    4.7670    1.3270 C   0  0  0  0  0  0  0  0  0  0  0  0
    3.1790    4.7730    2.1580 C   0  0  1  0  0  0  0  0  0  0  0  0
    4.2270    5.6420    1.4650 C   0  0  0  0  0  0  0  0  0  0  0  0
    2.9340    5.3060    3.5640 C   0  0  0  0  0  0  0  0  0  0  0  0
   -0.0630    0.2880   -2.9010 O   0  0  0  0  0  0  0  0  0  0  0  0
   -0.0830   -1.0790   -2.5630 C   0  0  1  0  0  0  0  0  0  0  0  0
   -0.8530   -1.2770   -1.7620 H   0  0  0  0  0  0  0  0  0  0  0  0
   -0.4780   -1.7940   -3.8540 C   0  0  0  0  0  0  0  0  0  0  0  0
    1.3210   -1.5340   -2.0920 C   0  0  2  0  0  0  0  0  0  0  0  0
    2.0690   -1.4370   -2.9240 H   0  0  0  0  0  0  0  0  0  0  0  0
    1.2360   -2.8340   -1.5910 O   0  0  0  0  0  0  0  0  0  0  0  0
    1.7370   -0.6650   -0.8830 C   0  0  1  0  0  0  0  0  0  0  0  0
    1.0280   -0.8180   -0.0220 H   0  0  0  0  0  0  0  0  0  0  0  0
    3.0840   -0.9710   -0.6070 O   0  0  0  0  0  0  0  0  0  0  0  0
    3.4100   -1.6020    0.5540 C   0  0  0  0  0  0  0  0  0  0  0  0
    2.5700   -1.8330    1.4040 O   0  0  0  0  0  0  0  0  0  0  0  0
    4.8490   -1.9290    0.6360 C   0  0  0  0  0  0  0  0  0  0  0  0
    5.7910   -1.2170   -0.0960 C   0  0  0  0  0  0  0  0  0  0  0  0
    7.1360   -1.5610    0.0360 C   0  0  0  0  0  0  0  0  0  0  0  0
    8.1720   -0.9140   -0.5660 O   0  0  0  0  0  0  0  0  0  0  0  0
    7.8670   -0.1930   -1.7340 C   0  0  0  0  0  0  0  0  0  0  0  0
    7.5240   -2.6090    0.8780 C   0  0  0  0  0  0  0  0  0  0  0  0
    8.8250   -3.0220    0.8970 O   0  0  0  0  0  0  0  0  0  0  0  0
    9.5620   -2.4160    1.9370 C   0  0  0  0  0  0  0  0  0  0  0  0
    6.5540   -3.2850    1.6330 C   0  0  0  0  0  0  0  0  0  0  0  0
    7.0700   -4.2270    2.4660 O   0  0  0  0  0  0  0  0  0  0  0  0
    6.1540   -5.0360    3.1600 C   0  0  0  0  0  0  0  0  0  0  0  0
    5.2070   -2.9560    1.5050 C   0  0  0  0  0  0  0  0  0  0  0  0
    1.7140    0.8240   -1.2870 C   0  0  1  0  0  0  0  0  0  0  0  0
    1.9280    1.4750   -0.3970 H   0  0  0  0  0  0  0  0  0  0  0  0
    2.6900    0.9590   -2.2960 O   0  0  0  0  0  0  0  0  0  0  0  0
    3.1250    2.2070   -2.6100 C   0  0  0  0  0  0  0  0  0  0  0  0
    4.1600    2.1820   -3.6850 C   0  0  0  0  0  0  0  0  0  0  0  0
    2.6850    3.1840   -2.0320 O   0  0  0  0  0  0  0  0  0  0  0  0
   -3.0390    0.8010   -2.6380 H   0  0  0  0  0  0  0  0  0  0  0  0
   -2.4100   -0.3760   -1.5030 H   0  0  0  0  0  0  0  0  0  0  0  0
   -5.8250    0.1380   -2.5380 H   0  0  0  0  0  0  0  0  0  0  0  0
   -4.6400   -1.1580   -2.5690 H   0  0  0  0  0  0  0  0  0  0  0  0
   -6.7830   -2.2760   -2.8020 H   0  0  0  0  0  0  0  0  0  0  0  0
   -8.4630   -3.4800   -1.7700 H   0  0  0  0  0  0  0  0  0  0  0  0
   -7.9400   -3.9220   -0.1600 H   0  0  0  0  0  0  0  0  0  0  0  0
  -10.7540   -3.8750   -0.9520 H   0  0  0  0  0  0  0  0  0  0  0  0
  -10.3390   -1.6360    1.6700 H   0  0  0  0  0  0  0  0  0  0  0  0
   -9.0840   -2.8320    1.9050 H   0  0  0  0  0  0  0  0  0  0  0  0
   -8.7870    0.0060    0.7040 H   0  0  0  0  0  0  0  0  0  0  0  0
   -8.1820   -0.5640    2.2590 H   0  0  0  0  0  0  0  0  0  0  0  0
   -6.8600   -3.1080    1.7570 H   0  0  0  0  0  0  0  0  0  0  0  0
   -5.3630   -2.6570    0.9540 H   0  0  0  0  0  0  0  0  0  0  0  0
   -5.9080   -1.7670    2.3780 H   0  0  0  0  0  0  0  0  0  0  0  0
   -6.7490    1.7200    2.9360 H   0  0  0  0  0  0  0  0  0  0  0  0
   -5.0000    2.6860    1.0700 H   0  0  0  0  0  0  0  0  0  0  0  0
   -4.3130    2.0270    2.5380 H   0  0  0  0  0  0  0  0  0  0  0  0
   -3.5020   -0.8750    1.4370 H   0  0  0  0  0  0  0  0  0  0  0  0
   -1.9190   -0.3650    0.8860 H   0  0  0  0  0  0  0  0  0  0  0  0
   -2.5420    0.2120    2.4340 H   0  0  0  0  0  0  0  0  0  0  0  0
   -2.3560    2.0990    3.2360 H   0  0  0  0  0  0  0  0  0  0  0  0
   -1.1150    3.3300    3.3930 H   0  0  0  0  0  0  0  0  0  0  0  0
   -2.6460    3.7210    2.5990 H   0  0  0  0  0  0  0  0  0  0  0  0
   -1.1250    5.2010    1.5890 H   0  0  0  0  0  0  0  0  0  0  0  0
    0.5840    3.8810    2.8420 H   0  0  0  0  0  0  0  0  0  0  0  0
    1.4180    2.7070    1.8350 H   0  0  0  0  0  0  0  0  0  0  0  0
    2.1360    4.6010    0.2550 H   0  0  0  0  0  0  0  0  0  0  0  0
    1.4140    5.7690    1.3470 H   0  0  0  0  0  0  0  0  0  0  0  0
    3.5780    3.7280    2.2320 H   0  0  0  0  0  0  0  0  0  0  0  0
    3.8910    6.6820    1.3430 H   0  0  0  0  0  0  0  0  0  0  0  0
    5.1710    5.6790    2.0270 H   0  0  0  0  0  0  0  0  0  0  0  0
    4.4770    5.2700    0.4620 H   0  0  0  0  0  0  0  0  0  0  0  0
    2.2800    4.6530    4.1580 H   0  0  0  0  0  0  0  0  0  0  0  0
    3.8680    5.3980    4.1370 H   0  0  0  0  0  0  0  0  0  0  0  0
    2.4710    6.3040    3.5610 H   0  0  0  0  0  0  0  0  0  0  0  0
    0.2470   -1.6360   -4.6650 H   0  0  0  0  0  0  0  0  0  0  0  0
   -0.5730   -2.8780   -3.6980 H   0  0  0  0  0  0  0  0  0  0  0  0
   -1.4500   -1.4430   -4.2320 H   0  0  0  0  0  0  0  0  0  0  0  0
    1.3410   -3.4350   -2.3330 H   0  0  0  0  0  0  0  0  0  0  0  0
    5.4760   -0.4020   -0.7520 H   0  0  0  0  0  0  0  0  0  0  0  0
    7.3470    0.7560   -1.5220 H   0  0  0  0  0  0  0  0  0  0  0  0
    8.8550    0.0400   -2.1590 H   0  0  0  0  0  0  0  0  0  0  0  0
    7.2840   -0.7650   -2.4740 H   0  0  0  0  0  0  0  0  0  0  0  0
    9.6260   -1.3220    1.8290 H   0  0  0  0  0  0  0  0  0  0  0  0
    9.1710   -2.6510    2.9390 H   0  0  0  0  0  0  0  0  0  0  0  0
   10.5700   -2.8470    1.8310 H   0  0  0  0  0  0  0  0  0  0  0  0
    6.8020   -5.7410    3.7000 H   0  0  0  0  0  0  0  0  0  0  0  0
    5.5530   -4.4780    3.8940 H   0  0  0  0  0  0  0  0  0  0  0  0
    5.4820   -5.6080    2.5000 H   0  0  0  0  0  0  0  0  0  0  0  0
    4.4270   -3.4760    2.0700 H   0  0  0  0  0  0  0  0  0  0  0  0
    4.1440    1.2610   -4.2880 H   0  0  0  0  0  0  0  0  0  0  0  0
    4.0270    3.0310   -4.3750 H   0  0  0  0  0  0  0  0  0  0  0  0
    5.1670    2.2660   -3.2440 H   0  0  0  0  0  0  0  0  0  0  0  0
  2  1  1  6
  2 43  1  0
  2 67  1  0
  2  3  1  0
  3  4  1  0
  4  5  1  6
  4  6  1  0
  4 30  1  0
  6 73  1  0
  6 74  1  0
  6  7  1  0
  7  8  1  6
  7  9  1  0
  7 28  1  0
  9 11  1  0
  9 10  1  1
  9 22  1  0
 11 76  1  0
 11 75  1  0
 11 12  1  0
 12 77  1  0
 12 13  2  0
 13 14  1  0
 13 20  1  0
 14 78  1  0
 14 15  1  0
 14 79  1  0
 15 16  1  6
 15 17  1  0
 15 18  1  0
 17 80  1  0
 18 19  1  0
 18 81  1  0
 18 82  1  0
 19 20  1  0
 19 83  1  0
 19 84  1  0
 20 22  1  0
 20 21  1  1
 21 86  1  0
 21 85  1  0
 21 87  1  0
 22 23  1  6
 22 24  1  0
 24 27  1  0
 24 26  1  0
 24 25  1  1
 26 88  1  0
 27 28  1  0
 27 89  1  0
 27 90  1  0
 28 30  1  0
 28 29  1  1
 29 92  1  0
 29 91  1  0
 29 93  1  0
 30 31  1  6
 30 32  1  0
 32 35  1  0
 32 33  1  1
 32 34  1  0
 34 96  1  0
 34 94  1  0
 34 95  1  0
 35 36  1  6
 35 37  1  0
 35 38  1  0
 37 97  1  0
 38 39  1  0
 38 99  1  0
 38 98  1  0
 39100  1  0
 39101  1  0
 39 40  1  0
 40 41  1  0
 40102  1  1
 40 42  1  0
 41105  1  0
 41103  1  0
 41104  1  0
 42108  1  0
 42107  1  0
 42106  1  0
 43 44  1  0
 44 46  1  0
 44 47  1  0
 44 45  1  1
 46109  1  0
 46111  1  0
 46110  1  0
 47 48  1  6
 47 49  1  0
 47 50  1  0
 49112  1  0
 50 67  1  0
 50 52  1  0
 50 51  1  1
 52 53  1  0
 53 55  1  0
 53 54  2  0
 55 56  2  0
 55 66  1  0
 56113  1  0
 56 57  1  0
 57 58  1  0
 57 60  2  0
 58 59  1  0
 59116  1  0
 59115  1  0
 59114  1  0
 60 61  1  0
 60 63  1  0
 61 62  1  0
 62117  1  0
 62119  1  0
 62118  1  0
 63 66  2  0
 63 64  1  0
 64 65  1  0
 65122  1  0
 65120  1  0
 65121  1  0
 66123  1  0
 67 69  1  0
 67 68  1  1
 69 70  1  0
 70 71  1  0
 70 72  2  0
 71125  1  0
 71124  1  0
 71126  1  0
M  END
>  <id>  (408) 
510

>  <scaffolds>  (408) 
['c1ccccc1', 'C1=C2CCCCC2C2CCC3CCCC3C2C1', 'C1=CCCCC1', 'C1=CCC2CCCCC2C1', 'C1=C2CCCCC2C2CCC3CC(OC4CCCCO4)CC3C2C1', 'C1CCOCC1', 'C1CCCCC1', 'O=C(OC1CCOC(OC2CC3CCC4C5CCCCC5=CCC4C3C2)C1)c1ccccc1', 'C1=C2CCCCC2CCC1']

>  <name>  (408) 
(22S)-cholest-5-ene-3[beta],11[alpha],16[beta],22-tetrol 16-O-{2-O-acetyl-3-O-(3,4,5-trimethoxybenzoyl)-[alpha]-L-rhamnopyranoside}

>  <formula>  (408) 
C45H68O13

>  <SMILES>  (408) 
[H][C@@]6(O[C@H]4C[C@@]3([H])[C@]2([H])CC=C1C[C@@H](O)CC[C@]1(C)[C@@]2([H])[C@H](O)C[C@]3(C)[C@@]4([H])[C@H](C)[C@@H](O)CCC(C)C)O[C@@H](C)[C@H](O)[C@@H](OC(=O)c5cc(OC)c(OC)c(OC)c5)[C@H]6OC(C)=O

>  <ChEMBL_id>  (408) 


>  <ZINC_id>  (408) 


>  <PubChem_id>  (408) 


>  <DrugBank_id>  (408) 


>  <CAS_no>  (408) 
249924-39-8

>  <references>  (408) 
[{'journal': {'name': 'Phytochemistry', 'id': 10}, 'title': 'Cholestane rhamnosides from the bulbs of Ornithogalum saundersiae', 'year': 1999, 'start_page': 445, 'volume': 52, 'issue': 3, 'doi': '10.1016/S0031-9422(99)00240-X', 'isbn': '', 'despositor': {'code': 'NFA', 'first_name': 'Ngonidzashe', 'last_name': 'Faya', 'id': 21}, 'refauthors_set': [{'author': {'first_name': 'Minpei', 'initials': 'M', 'last_name': 'Kuroda', 'id': 644}, 'first_author': True, 'id': 1186}, {'author': {'first_name': 'Yoshihiro ', 'initials': 'Y', 'last_name': 'Mimaki', 'id': 643}, 'first_author': None, 'id': 1187}, {'author': {'first_name': 'Yutaka', 'initials': 'Y', 'last_name': 'Sashida', 'id': 645}, 'first_author': None, 'id': 1188}], 'id': 342}]

>  <classifications>  (408) 
[{'classification': 'Cholestane', 'id': 761}, {'classification': 'Rhamnoside', 'id': 823}, {'classification': 'Steroids and steroid derivatives (Classyfire)', 'id': 942}]

>  <molecular_mass>  (408) 
817.01

$$$$
SANC00511_minRM1.pdb
     RDKit          3D

118123  0  0  1  0  0  0  0  0999 V2000
   -1.0370    1.8040    2.5190 H   0  0  0  0  0  0  0  0  0  0  0  0
   -0.9860    0.8600    1.9080 C   0  0  2  0  0  0  0  0  0  0  0  0
   -0.0810    0.9010    0.8410 O   0  0  0  0  0  0  0  0  0  0  0  0
    1.1460    1.5360    1.1200 C   0  0  1  0  0  0  0  0  0  0  0  0
    1.0430    2.3070    1.9300 H   0  0  0  0  0  0  0  0  0  0  0  0
    2.1730    0.4560    1.5310 C   0  0  0  0  0  0  0  0  0  0  0  0
    3.4150    0.8130    0.7300 C   0  0  1  0  0  0  0  0  0  0  0  0
    3.9370    1.6530    1.2620 H   0  0  0  0  0  0  0  0  0  0  0  0
    4.4160   -0.3080    0.4990 C   0  0  2  0  0  0  0  0  0  0  0  0
    3.9270   -1.1330   -0.0830 H   0  0  0  0  0  0  0  0  0  0  0  0
    4.8920   -0.8690    1.8360 C   0  0  0  0  0  0  0  0  0  0  0  0
    6.0090   -1.8230    1.6350 C   0  0  0  0  0  0  0  0  0  0  0  0
    6.7460   -1.8770    0.5260 C   0  0  0  0  0  0  0  0  0  0  0  0
    7.7920   -2.9330    0.3890 C   0  0  0  0  0  0  0  0  0  0  0  0
    9.1330   -2.2920    0.0080 C   0  0  1  0  0  0  0  0  0  0  0  0
    9.4770   -1.6090    0.8340 H   0  0  0  0  0  0  0  0  0  0  0  0
   10.0930   -3.2780   -0.2500 O   0  0  0  0  0  0  0  0  0  0  0  0
    8.9690   -1.5100   -1.2940 C   0  0  0  0  0  0  0  0  0  0  0  0
    7.9130   -0.4290   -1.1150 C   0  0  0  0  0  0  0  0  0  0  0  0
    6.5480   -0.9690   -0.6570 C   0  0  1  0  0  0  0  0  0  0  0  0
    5.9200   -1.8000   -1.7760 C   0  0  0  0  0  0  0  0  0  0  0  0
    5.6320    0.2290   -0.2680 C   0  0  1  0  0  0  0  0  0  0  0  0
    6.2020    0.8990    0.4310 H   0  0  0  0  0  0  0  0  0  0  0  0
    5.2210    1.0740   -1.5000 C   0  0  2  0  0  0  0  0  0  0  0  0
    4.9890    0.3940   -2.3700 H   0  0  0  0  0  0  0  0  0  0  0  0
    6.3430    1.8710   -1.7810 O   0  0  0  0  0  0  0  0  0  0  0  0
    4.0200    2.0250   -1.2940 C   0  0  0  0  0  0  0  0  0  0  0  0
    2.8570    1.3170   -0.6140 C   0  0  1  0  0  0  0  0  0  0  0  0
    2.3340    0.1820   -1.4860 C   0  0  0  0  0  0  0  0  0  0  0  0
    1.6910    2.2330   -0.1670 C   0  0  1  0  0  0  0  0  0  0  0  0
    2.1180    3.2200    0.1530 H   0  0  0  0  0  0  0  0  0  0  0  0
    0.6260    2.5200   -1.2280 C   0  0  2  0  0  0  0  0  0  0  0  0
    0.1060    1.5700   -1.5130 H   0  0  0  0  0  0  0  0  0  0  0  0
    1.2600    3.1140   -2.4800 C   0  0  0  0  0  0  0  0  0  0  0  0
   -0.4540    3.4860   -0.6750 C   0  0  1  0  0  0  0  0  0  0  0  0
   -0.7950    3.1740    0.3460 H   0  0  0  0  0  0  0  0  0  0  0  0
    0.0680    4.7520   -0.4190 O   0  0  0  0  0  0  0  0  0  0  0  0
   -1.6600    3.5240   -1.6330 C   0  0  0  0  0  0  0  0  0  0  0  0
   -2.8050    4.3420   -1.0460 C   0  0  0  0  0  0  0  0  0  0  0  0
   -3.9970    4.3970   -2.0070 C   0  0  1  0  0  0  0  0  0  0  0  0
   -4.5950    3.0110   -2.2220 C   0  0  0  0  0  0  0  0  0  0  0  0
   -5.0680    5.3280   -1.4450 C   0  0  0  0  0  0  0  0  0  0  0  0
   -0.5550   -0.0880    2.8320 O   0  0  0  0  0  0  0  0  0  0  0  0
   -0.4770   -1.4210    2.3830 C   0  0  1  0  0  0  0  0  0  0  0  0
    0.3120   -1.5220    1.5820 H   0  0  0  0  0  0  0  0  0  0  0  0
   -0.0730   -2.2230    3.6170 C   0  0  0  0  0  0  0  0  0  0  0  0
   -1.8520   -1.8960    1.8490 C   0  0  2  0  0  0  0  0  0  0  0  0
   -2.6140   -1.9110    2.6740 H   0  0  0  0  0  0  0  0  0  0  0  0
   -1.7040   -3.1380    1.2260 O   0  0  0  0  0  0  0  0  0  0  0  0
   -2.2960   -0.9380    0.7210 C   0  0  1  0  0  0  0  0  0  0  0  0
   -1.5650   -0.9670   -0.1350 H   0  0  0  0  0  0  0  0  0  0  0  0
   -3.6140   -1.2750    0.3670 O   0  0  0  0  0  0  0  0  0  0  0  0
   -3.8540   -1.9530   -0.7870 C   0  0  0  0  0  0  0  0  0  0  0  0
   -2.9550   -2.1380   -1.5960 O   0  0  0  0  0  0  0  0  0  0  0  0
   -5.2600   -2.3500   -0.9420 C   0  0  0  0  0  0  0  0  0  0  0  0
   -6.2760   -1.8220   -0.1430 C   0  0  0  0  0  0  0  0  0  0  0  0
   -7.5890   -2.1830   -0.3700 C   0  0  0  0  0  0  0  0  0  0  0  0
   -7.8850   -3.0880   -1.4010 C   0  0  0  0  0  0  0  0  0  0  0  0
   -9.2020   -3.3670   -1.5290 O   0  0  0  0  0  0  0  0  0  0  0  0
   -9.5990   -4.2300   -2.5630 C   0  0  0  0  0  0  0  0  0  0  0  0
   -6.8770   -3.6180   -2.2060 C   0  0  0  0  0  0  0  0  0  0  0  0
   -5.5620   -3.2450   -1.9650 C   0  0  0  0  0  0  0  0  0  0  0  0
   -2.3550    0.5040    1.2680 C   0  0  1  0  0  0  0  0  0  0  0  0
   -2.6150    1.2300    0.4500 H   0  0  0  0  0  0  0  0  0  0  0  0
   -3.3300    0.4810    2.2870 O   0  0  0  0  0  0  0  0  0  0  0  0
   -3.7970    1.6680    2.7630 C   0  0  0  0  0  0  0  0  0  0  0  0
   -4.7900    1.4890    3.8560 C   0  0  0  0  0  0  0  0  0  0  0  0
   -3.4050    2.7230    2.3000 O   0  0  0  0  0  0  0  0  0  0  0  0
    2.3520    0.4510    2.6230 H   0  0  0  0  0  0  0  0  0  0  0  0
    1.8130   -0.5720    1.3070 H   0  0  0  0  0  0  0  0  0  0  0  0
    5.2120   -0.0620    2.5300 H   0  0  0  0  0  0  0  0  0  0  0  0
    4.0550   -1.3740    2.3660 H   0  0  0  0  0  0  0  0  0  0  0  0
    6.1950   -2.4970    2.4760 H   0  0  0  0  0  0  0  0  0  0  0  0
    7.9030   -3.5320    1.3200 H   0  0  0  0  0  0  0  0  0  0  0  0
    7.4850   -3.6840   -0.3690 H   0  0  0  0  0  0  0  0  0  0  0  0
   10.2500   -3.7590    0.5690 H   0  0  0  0  0  0  0  0  0  0  0  0
    9.9390   -1.0600   -1.5970 H   0  0  0  0  0  0  0  0  0  0  0  0
    8.7180   -2.1960   -2.1320 H   0  0  0  0  0  0  0  0  0  0  0  0
    8.2840    0.3340   -0.4010 H   0  0  0  0  0  0  0  0  0  0  0  0
    7.8130    0.1080   -2.0800 H   0  0  0  0  0  0  0  0  0  0  0  0
    6.5960   -2.5700   -2.1740 H   0  0  0  0  0  0  0  0  0  0  0  0
    5.0140   -2.3290   -1.4500 H   0  0  0  0  0  0  0  0  0  0  0  0
    5.6330   -1.1840   -2.6410 H   0  0  0  0  0  0  0  0  0  0  0  0
    6.1800    2.3270   -2.6110 H   0  0  0  0  0  0  0  0  0  0  0  0
    4.3350    2.9170   -0.7120 H   0  0  0  0  0  0  0  0  0  0  0  0
    3.7230    2.4390   -2.2810 H   0  0  0  0  0  0  0  0  0  0  0  0
    3.0490   -0.6500   -1.5890 H   0  0  0  0  0  0  0  0  0  0  0  0
    1.4140   -0.2730   -1.0870 H   0  0  0  0  0  0  0  0  0  0  0  0
    2.1100    0.5180   -2.5110 H   0  0  0  0  0  0  0  0  0  0  0  0
    1.9010    3.9800   -2.2690 H   0  0  0  0  0  0  0  0  0  0  0  0
    1.8870    2.3790   -3.0100 H   0  0  0  0  0  0  0  0  0  0  0  0
    0.5090    3.4450   -3.2130 H   0  0  0  0  0  0  0  0  0  0  0  0
    0.1890    5.2080   -1.2620 H   0  0  0  0  0  0  0  0  0  0  0  0
   -1.3620    3.9260   -2.6250 H   0  0  0  0  0  0  0  0  0  0  0  0
   -1.9960    2.4860   -1.8420 H   0  0  0  0  0  0  0  0  0  0  0  0
   -3.1180    3.9220   -0.0660 H   0  0  0  0  0  0  0  0  0  0  0  0
   -2.4570    5.3700   -0.8070 H   0  0  0  0  0  0  0  0  0  0  0  0
   -3.6550    4.8010   -2.9950 H   0  0  0  0  0  0  0  0  0  0  0  0
   -5.4760    3.0390   -2.8800 H   0  0  0  0  0  0  0  0  0  0  0  0
   -3.8850    2.3130   -2.6900 H   0  0  0  0  0  0  0  0  0  0  0  0
   -4.9200    2.5470   -1.2790 H   0  0  0  0  0  0  0  0  0  0  0  0
   -4.6960    6.3530   -1.3030 H   0  0  0  0  0  0  0  0  0  0  0  0
   -5.9400    5.4010   -2.1110 H   0  0  0  0  0  0  0  0  0  0  0  0
   -5.4420    4.9890   -0.4690 H   0  0  0  0  0  0  0  0  0  0  0  0
   -0.8250   -2.1690    4.4190 H   0  0  0  0  0  0  0  0  0  0  0  0
    0.0800   -3.2830    3.3760 H   0  0  0  0  0  0  0  0  0  0  0  0
    0.8690   -1.8540    4.0530 H   0  0  0  0  0  0  0  0  0  0  0  0
   -1.7700   -3.8050    1.9150 H   0  0  0  0  0  0  0  0  0  0  0  0
   -6.0470   -1.1120    0.6600 H   0  0  0  0  0  0  0  0  0  0  0  0
   -8.3950   -1.7660    0.2410 H   0  0  0  0  0  0  0  0  0  0  0  0
   -9.3570   -3.8310   -3.5640 H   0  0  0  0  0  0  0  0  0  0  0  0
   -9.1940   -5.2450   -2.4600 H   0  0  0  0  0  0  0  0  0  0  0  0
  -10.6960   -4.2690   -2.4470 H   0  0  0  0  0  0  0  0  0  0  0  0
   -7.0790   -4.3010   -3.0310 H   0  0  0  0  0  0  0  0  0  0  0  0
   -4.7650   -3.6490   -2.6020 H   0  0  0  0  0  0  0  0  0  0  0  0
   -4.7630    0.4930    4.3210 H   0  0  0  0  0  0  0  0  0  0  0  0
   -4.6360    2.2330    4.6460 H   0  0  0  0  0  0  0  0  0  0  0  0
   -5.8080    1.6320    3.4620 H   0  0  0  0  0  0  0  0  0  0  0  0
  2  1  1  1
  2  3  1  0
  2 63  1  0
  2 43  1  0
  3  4  1  0
  4 30  1  0
  4  6  1  0
  4  5  1  1
  6  7  1  0
  6 70  1  0
  6 69  1  0
  7 28  1  0
  7  9  1  0
  7  8  1  1
  9 22  1  0
  9 10  1  6
  9 11  1  0
 11 12  1  0
 11 72  1  0
 11 71  1  0
 12 13  2  0
 12 73  1  0
 13 20  1  0
 13 14  1  0
 14 75  1  0
 14 15  1  0
 14 74  1  0
 15 18  1  0
 15 17  1  0
 15 16  1  1
 17 76  1  0
 18 78  1  0
 18 77  1  0
 18 19  1  0
 19 80  1  0
 19 20  1  0
 19 79  1  0
 20 21  1  6
 20 22  1  0
 21 83  1  0
 21 81  1  0
 21 82  1  0
 22 24  1  0
 22 23  1  1
 24 25  1  6
 24 26  1  0
 24 27  1  0
 26 84  1  0
 27 86  1  0
 27 85  1  0
 27 28  1  0
 28 29  1  6
 28 30  1  0
 29 89  1  0
 29 87  1  0
 29 88  1  0
 30 32  1  0
 30 31  1  1
 32 34  1  0
 32 33  1  6
 32 35  1  0
 34 92  1  0
 34 91  1  0
 34 90  1  0
 35 38  1  0
 35 37  1  0
 35 36  1  1
 37 93  1  0
 38 94  1  0
 38 95  1  0
 38 39  1  0
 39 40  1  0
 39 97  1  0
 39 96  1  0
 40 98  1  6
 40 41  1  0
 40 42  1  0
 41 99  1  0
 41100  1  0
 41101  1  0
 42103  1  0
 42102  1  0
 42104  1  0
 43 44  1  0
 44 45  1  6
 44 47  1  0
 44 46  1  0
 46106  1  0
 46107  1  0
 46105  1  0
 47 50  1  0
 47 49  1  0
 47 48  1  1
 49108  1  0
 50 51  1  6
 50 52  1  0
 50 63  1  0
 52 53  1  0
 53 54  2  0
 53 55  1  0
 55 62  2  0
 55 56  1  0
 56 57  2  0
 56109  1  0
 57 58  1  0
 57110  1  0
 58 61  2  0
 58 59  1  0
 59 60  1  0
 60111  1  0
 60112  1  0
 60113  1  0
 61114  1  0
 61 62  1  0
 62115  1  0
 63 64  1  6
 63 65  1  0
 65 66  1  0
 66 68  2  0
 66 67  1  0
 67118  1  0
 67116  1  0
 67117  1  0
M  END
>  <id>  (409) 
511

>  <scaffolds>  (409) 
['c1ccccc1', 'C1=C2CCCCC2C2CCC3CCCC3C2C1', 'C1=CCCCC1', 'C1=CCC2CCCCC2C1', 'C1=C2CCCCC2C2CCC3CC(OC4CCCCO4)CC3C2C1', 'C1CCOCC1', 'C1CCCCC1', 'O=C(OC1CCOC(OC2CC3CCC4C5CCCCC5=CCC4C3C2)C1)c1ccccc1', 'C1=C2CCCCC2CCC1']

>  <name>  (409) 
(22S)-cholest-5-ene-3[beta],11[alpha],16[beta],22-tetrol 16-O-{2-O-acetyl-3-O-(p-methoxybenzoyl)-[alpha]-L-rhamnopyranoside}

>  <formula>  (409) 
C43H64O11

>  <SMILES>  (409) 
[H][C@@]6(O[C@H]4C[C@@]3([H])[C@]2([H])CC=C1C[C@@H](O)CC[C@]1(C)[C@@]2([H])[C@H](O)C[C@]3(C)[C@@]4([H])[C@H](C)[C@@H](O)CCC(C)C)O[C@@H](C)[C@H](O)[C@@H](OC(=O)c5ccc(OC)cc5)[C@H]6OC(C)=O

>  <ChEMBL_id>  (409) 


>  <ZINC_id>  (409) 


>  <PubChem_id>  (409) 


>  <DrugBank_id>  (409) 


>  <CAS_no>  (409) 
249924-40-1

>  <references>  (409) 
[{'journal': {'name': 'Phytochemistry', 'id': 10}, 'title': 'Cholestane rhamnosides from the bulbs of Ornithogalum saundersiae', 'year': 1999, 'start_page': 445, 'volume': 52, 'issue': 3, 'doi': '10.1016/S0031-9422(99)00240-X', 'isbn': '', 'despositor': {'code': 'NFA', 'first_name': 'Ngonidzashe', 'last_name': 'Faya', 'id': 21}, 'refauthors_set': [{'author': {'first_name': 'Minpei', 'initials': 'M', 'last_name': 'Kuroda', 'id': 644}, 'first_author': True, 'id': 1186}, {'author': {'first_name': 'Yoshihiro ', 'initials': 'Y', 'last_name': 'Mimaki', 'id': 643}, 'first_author': None, 'id': 1187}, {'author': {'first_name': 'Yutaka', 'initials': 'Y', 'last_name': 'Sashida', 'id': 645}, 'first_author': None, 'id': 1188}], 'id': 342}]

>  <classifications>  (409) 
[{'classification': 'Cholestane', 'id': 761}, {'classification': 'Rhamnoside', 'id': 823}, {'classification': 'Steroids and steroid derivatives (Classyfire)', 'id': 942}]

>  <molecular_mass>  (409) 
756.96

$$$$
SANC00512_minRM1.pdb
     RDKit          3D

105109  0  0  1  0  0  0  0  0999 V2000
    2.7030   -0.5730   -2.0280 H   0  0  0  0  0  0  0  0  0  0  0  0
    2.3110   -1.0320   -1.0780 C   0  0  2  0  0  0  0  0  0  0  0  0
    1.3530   -0.2650   -0.4070 O   0  0  0  0  0  0  0  0  0  0  0  0
    0.3900    0.3500   -1.2330 C   0  0  1  0  0  0  0  0  0  0  0  0
    0.7940    0.5640   -2.2590 H   0  0  0  0  0  0  0  0  0  0  0  0
   -0.8460   -0.5730   -1.3210 C   0  0  0  0  0  0  0  0  0  0  0  0
   -2.0150    0.3590   -1.0410 C   0  0  1  0  0  0  0  0  0  0  0  0
   -2.2450    0.9210   -1.9870 H   0  0  0  0  0  0  0  0  0  0  0  0
   -3.2930   -0.3010   -0.5540 C   0  0  2  0  0  0  0  0  0  0  0  0
   -3.1020   -0.8250    0.4220 H   0  0  0  0  0  0  0  0  0  0  0  0
   -3.7690   -1.3290   -1.5790 C   0  0  0  0  0  0  0  0  0  0  0  0
   -5.1440   -1.7980   -1.2790 C   0  0  0  0  0  0  0  0  0  0  0  0
   -5.9780   -1.1730   -0.4460 C   0  0  0  0  0  0  0  0  0  0  0  0
   -7.3140   -1.7720   -0.1640 C   0  0  0  0  0  0  0  0  0  0  0  0
   -8.4080   -0.7090   -0.3320 C   0  0  1  0  0  0  0  0  0  0  0  0
   -8.4110   -0.3270   -1.3900 H   0  0  0  0  0  0  0  0  0  0  0  0
   -9.6620   -1.2260    0.0150 O   0  0  0  0  0  0  0  0  0  0  0  0
   -8.1390    0.4310    0.6440 C   0  0  0  0  0  0  0  0  0  0  0  0
   -6.7910    1.0620    0.3340 C   0  0  0  0  0  0  0  0  0  0  0  0
   -5.6140    0.0770    0.3070 C   0  0  1  0  0  0  0  0  0  0  0  0
   -5.2610   -0.3460    1.7350 C   0  0  0  0  0  0  0  0  0  0  0  0
   -4.3900    0.7580   -0.3710 C   0  0  1  0  0  0  0  0  0  0  0  0
   -4.7010    1.1130   -1.3900 H   0  0  0  0  0  0  0  0  0  0  0  0
   -3.8860    1.9790    0.4350 C   0  0  2  0  0  0  0  0  0  0  0  0
   -3.9220    1.7430    1.5380 H   0  0  0  0  0  0  0  0  0  0  0  0
   -4.7780    3.0180    0.1180 O   0  0  0  0  0  0  0  0  0  0  0  0
   -2.4680    2.4780    0.0740 C   0  0  0  0  0  0  0  0  0  0  0  0
   -1.4620    1.3360    0.0150 C   0  0  1  0  0  0  0  0  0  0  0  0
   -1.2970    0.6910    1.3840 C   0  0  0  0  0  0  0  0  0  0  0  0
   -0.0820    1.6920   -0.5860 C   0  0  1  0  0  0  0  0  0  0  0  0
   -0.2460    2.4160   -1.4270 H   0  0  0  0  0  0  0  0  0  0  0  0
    0.9460    2.3210    0.3580 C   0  0  2  0  0  0  0  0  0  0  0  0
    1.2180    1.6020    1.1730 H   0  0  0  0  0  0  0  0  0  0  0  0
    0.4090    3.5930    1.0040 C   0  0  0  0  0  0  0  0  0  0  0  0
    2.2420    2.6540   -0.4280 C   0  0  1  0  0  0  0  0  0  0  0  0
    2.6000    1.7750   -1.0230 H   0  0  0  0  0  0  0  0  0  0  0  0
    2.0050    3.6040   -1.4190 O   0  0  0  0  0  0  0  0  0  0  0  0
    3.3520    3.0970    0.5490 C   0  0  0  0  0  0  0  0  0  0  0  0
    4.5710    3.5060   -0.1970 C   0  0  0  0  0  0  0  0  0  0  0  0
    5.2670    4.6220    0.0290 C   0  0  0  0  0  0  0  0  0  0  0  0
    4.9060    5.6320    1.0630 C   0  0  0  0  0  0  0  0  0  0  0  0
    6.4850    4.9420   -0.7660 C   0  0  0  0  0  0  0  0  0  0  0  0
    1.7150   -2.2090   -1.5260 O   0  0  0  0  0  0  0  0  0  0  0  0
    1.2180   -3.0810   -0.5370 C   0  0  1  0  0  0  0  0  0  0  0  0
    0.3820   -2.5920    0.0410 H   0  0  0  0  0  0  0  0  0  0  0  0
    0.6780   -4.2790   -1.3170 C   0  0  0  0  0  0  0  0  0  0  0  0
    2.3630   -3.5040    0.4150 C   0  0  2  0  0  0  0  0  0  0  0  0
    3.1600   -4.0640   -0.1450 H   0  0  0  0  0  0  0  0  0  0  0  0
    1.8440   -4.2400    1.4810 O   0  0  0  0  0  0  0  0  0  0  0  0
    2.9470   -2.2270    1.0640 C   0  0  1  0  0  0  0  0  0  0  0  0
    2.1650   -1.7010    1.6780 H   0  0  0  0  0  0  0  0  0  0  0  0
    4.0940   -2.6250    1.7790 O   0  0  0  0  0  0  0  0  0  0  0  0
    4.0990   -2.5640    3.1370 C   0  0  0  0  0  0  0  0  0  0  0  0
    5.3140   -3.2370    3.6970 C   0  0  0  0  0  0  0  0  0  0  0  0
    3.2150   -2.0020    3.7530 O   0  0  0  0  0  0  0  0  0  0  0  0
    3.4410   -1.2680   -0.0390 C   0  0  1  0  0  0  0  0  0  0  0  0
    3.7720   -0.2930    0.4120 H   0  0  0  0  0  0  0  0  0  0  0  0
    4.4920   -1.9440   -0.6900 O   0  0  0  0  0  0  0  0  0  0  0  0
    5.3520   -1.2250   -1.4550 C   0  0  0  0  0  0  0  0  0  0  0  0
    6.4080   -2.0930   -2.0580 C   0  0  0  0  0  0  0  0  0  0  0  0
    5.2030   -0.0250   -1.5940 O   0  0  0  0  0  0  0  0  0  0  0  0
   -0.9170   -1.0740   -2.3050 H   0  0  0  0  0  0  0  0  0  0  0  0
   -0.8020   -1.4110   -0.5900 H   0  0  0  0  0  0  0  0  0  0  0  0
   -3.7460   -0.9170   -2.6120 H   0  0  0  0  0  0  0  0  0  0  0  0
   -3.0730   -2.1950   -1.6100 H   0  0  0  0  0  0  0  0  0  0  0  0
   -5.4430   -2.7110   -1.8080 H   0  0  0  0  0  0  0  0  0  0  0  0
   -7.5250   -2.6480   -0.8150 H   0  0  0  0  0  0  0  0  0  0  0  0
   -7.3320   -2.1940    0.8640 H   0  0  0  0  0  0  0  0  0  0  0  0
   -9.8710   -1.9260   -0.6110 H   0  0  0  0  0  0  0  0  0  0  0  0
   -8.9460    1.1930    0.5790 H   0  0  0  0  0  0  0  0  0  0  0  0
   -8.1980    0.0710    1.6920 H   0  0  0  0  0  0  0  0  0  0  0  0
   -6.8560    1.6020   -0.6310 H   0  0  0  0  0  0  0  0  0  0  0  0
   -6.6070    1.8490    1.0890 H   0  0  0  0  0  0  0  0  0  0  0  0
   -6.1240   -0.7260    2.2970 H   0  0  0  0  0  0  0  0  0  0  0  0
   -4.5010   -1.1420    1.7550 H   0  0  0  0  0  0  0  0  0  0  0  0
   -4.8500    0.4900    2.3250 H   0  0  0  0  0  0  0  0  0  0  0  0
   -4.5800    3.7610    0.6950 H   0  0  0  0  0  0  0  0  0  0  0  0
   -2.4910    3.0290   -0.8920 H   0  0  0  0  0  0  0  0  0  0  0  0
   -2.1700    3.2480    0.8150 H   0  0  0  0  0  0  0  0  0  0  0  0
   -2.2010    0.1560    1.7200 H   0  0  0  0  0  0  0  0  0  0  0  0
   -0.4890   -0.0540    1.4110 H   0  0  0  0  0  0  0  0  0  0  0  0
   -1.0670    1.4290    2.1660 H   0  0  0  0  0  0  0  0  0  0  0  0
   -0.3230    3.3830    1.7970 H   0  0  0  0  0  0  0  0  0  0  0  0
    1.2100    4.1750    1.4910 H   0  0  0  0  0  0  0  0  0  0  0  0
   -0.0790    4.2700    0.2870 H   0  0  0  0  0  0  0  0  0  0  0  0
    1.9210    4.4680   -1.0080 H   0  0  0  0  0  0  0  0  0  0  0  0
    2.9630    3.8840    1.2310 H   0  0  0  0  0  0  0  0  0  0  0  0
    3.6130    2.2540    1.2240 H   0  0  0  0  0  0  0  0  0  0  0  0
    4.8870    2.7960   -0.9750 H   0  0  0  0  0  0  0  0  0  0  0  0
    4.7940    5.1780    2.0640 H   0  0  0  0  0  0  0  0  0  0  0  0
    5.6530    6.4290    1.1650 H   0  0  0  0  0  0  0  0  0  0  0  0
    3.9600    6.1330    0.8200 H   0  0  0  0  0  0  0  0  0  0  0  0
    6.7260    4.1870   -1.5240 H   0  0  0  0  0  0  0  0  0  0  0  0
    6.3770    5.8970   -1.2990 H   0  0  0  0  0  0  0  0  0  0  0  0
    7.3740    5.0310   -0.1240 H   0  0  0  0  0  0  0  0  0  0  0  0
    1.4650   -4.8280   -1.8520 H   0  0  0  0  0  0  0  0  0  0  0  0
    0.1660   -4.9910   -0.6540 H   0  0  0  0  0  0  0  0  0  0  0  0
   -0.0610   -3.9720   -2.0700 H   0  0  0  0  0  0  0  0  0  0  0  0
    1.7010   -5.1380    1.1700 H   0  0  0  0  0  0  0  0  0  0  0  0
    6.1980   -3.1380    3.0570 H   0  0  0  0  0  0  0  0  0  0  0  0
    5.5660   -2.8240    4.6770 H   0  0  0  0  0  0  0  0  0  0  0  0
    5.1280   -4.3130    3.8150 H   0  0  0  0  0  0  0  0  0  0  0  0
    6.0210   -2.6030   -2.9500 H   0  0  0  0  0  0  0  0  0  0  0  0
    7.2760   -1.4970   -2.3690 H   0  0  0  0  0  0  0  0  0  0  0  0
    6.7650   -2.8700   -1.3710 H   0  0  0  0  0  0  0  0  0  0  0  0
  2  1  1  6
  2 43  1  0
  2  3  1  0
  2 56  1  0
  3  4  1  0
  4  5  1  6
  4  6  1  0
  4 30  1  0
  6 62  1  0
  6  7  1  0
  6 63  1  0
  7  8  1  6
  7  9  1  0
  7 28  1  0
  9 11  1  0
  9 22  1  0
  9 10  1  1
 11 64  1  0
 11 65  1  0
 11 12  1  0
 12 66  1  0
 12 13  2  0
 13 14  1  0
 13 20  1  0
 14 67  1  0
 14 15  1  0
 14 68  1  0
 15 16  1  6
 15 17  1  0
 15 18  1  0
 17 69  1  0
 18 19  1  0
 18 70  1  0
 18 71  1  0
 19 72  1  0
 19 20  1  0
 19 73  1  0
 20 22  1  0
 20 21  1  1
 21 75  1  0
 21 74  1  0
 21 76  1  0
 22 23  1  6
 22 24  1  0
 24 27  1  0
 24 26  1  0
 24 25  1  1
 26 77  1  0
 27 78  1  0
 27 28  1  0
 27 79  1  0
 28 30  1  0
 28 29  1  1
 29 81  1  0
 29 80  1  0
 29 82  1  0
 30 31  1  6
 30 32  1  0
 32 35  1  0
 32 34  1  0
 32 33  1  1
 34 85  1  0
 34 84  1  0
 34 83  1  0
 35 37  1  0
 35 36  1  6
 35 38  1  0
 37 86  1  0
 38 39  1  0
 38 88  1  0
 38 87  1  0
 39 89  1  0
 39 40  2  0
 40 42  1  0
 40 41  1  0
 41 92  1  0
 41 91  1  0
 41 90  1  0
 42 93  1  0
 42 94  1  0
 42 95  1  0
 43 44  1  0
 44 46  1  0
 44 45  1  1
 44 47  1  0
 46 98  1  0
 46 96  1  0
 46 97  1  0
 47 48  1  6
 47 50  1  0
 47 49  1  0
 49 99  1  0
 50 56  1  0
 50 51  1  1
 50 52  1  0
 52 53  1  0
 53 54  1  0
 53 55  2  0
 54100  1  0
 54102  1  0
 54101  1  0
 56 58  1  0
 56 57  1  1
 58 59  1  0
 59 60  1  0
 59 61  2  0
 60103  1  0
 60104  1  0
 60105  1  0
M  END
>  <id>  (410) 
512

>  <scaffolds>  (410) 
['C1=C2CCCCC2C2CCC3CCCC3C2C1', 'C1=CCCCC1', 'C1=CCC2CCCCC2C1', 'C1=C2CCCCC2C2CCC3CC(OC4CCCCO4)CC3C2C1', 'C1CCOCC1', 'C1CCCCC1', 'C1=C2CCCCC2CCC1']

>  <name>  (410) 
(22S)-cholesta-5,24-diene-3[beta],11[alpha],16[beta],22-tetrol 16-O-(2,3-di-O-acetyl-[alpha]-L-rhamnopyranoside)

>  <formula>  (410) 
C37H58O10

>  <SMILES>  (410) 
[H][C@@]5(O[C@H]4C[C@@]3([H])[C@]2([H])CC=C1C[C@@H](O)CC[C@]1(C)[C@@]2([H])[C@H](O)C[C@]3(C)[C@@]4([H])[C@H](C)[C@@H](O)C/C=C(C)/C)O[C@@H](C)[C@H](O)[C@@H](OC(C)=O)[C@H]5OC(C)=O

>  <ChEMBL_id>  (410) 


>  <ZINC_id>  (410) 


>  <PubChem_id>  (410) 


>  <DrugBank_id>  (410) 


>  <CAS_no>  (410) 
249924-41-2

>  <references>  (410) 
[{'journal': {'name': 'Phytochemistry', 'id': 10}, 'title': 'Cholestane rhamnosides from the bulbs of Ornithogalum saundersiae', 'year': 1999, 'start_page': 445, 'volume': 52, 'issue': 3, 'doi': '10.1016/S0031-9422(99)00240-X', 'isbn': '', 'despositor': {'code': 'NFA', 'first_name': 'Ngonidzashe', 'last_name': 'Faya', 'id': 21}, 'refauthors_set': [{'author': {'first_name': 'Minpei', 'initials': 'M', 'last_name': 'Kuroda', 'id': 644}, 'first_author': True, 'id': 1186}, {'author': {'first_name': 'Yoshihiro ', 'initials': 'Y', 'last_name': 'Mimaki', 'id': 643}, 'first_author': None, 'id': 1187}, {'author': {'first_name': 'Yutaka', 'initials': 'Y', 'last_name': 'Sashida', 'id': 645}, 'first_author': None, 'id': 1188}], 'id': 342}]

>  <classifications>  (410) 
[{'classification': 'Cholestane', 'id': 761}, {'classification': 'Rhamnoside', 'id': 823}, {'classification': 'Steroids and steroid derivatives (Classyfire)', 'id': 942}]

>  <molecular_mass>  (410) 
662.85

$$$$
SANC00513_minRM1.pdb
     RDKit          3D

 39 41  0  0  1  0  0  0  0  0999 V2000
    5.5310   -1.6320    0.4040 C   0  0  0  0  0  0  0  0  0  0  0  0
    5.2200   -0.2710    0.2600 O   0  0  0  0  0  0  0  0  0  0  0  0
    3.9390    0.0330   -0.1140 C   0  0  0  0  0  0  0  0  0  0  0  0
    2.8850   -0.8650   -0.2110 C   0  0  0  0  0  0  0  0  0  0  0  0
    1.6290   -0.3990   -0.5950 C   0  0  0  0  0  0  0  0  0  0  0  0
    0.5030   -1.3690   -0.7390 C   0  0  0  0  0  0  0  0  0  0  0  0
   -0.1900   -1.5350    0.6180 C   0  0  2  0  0  0  0  0  0  0  0  0
    0.5650   -1.8210    1.3950 H   0  0  0  0  0  0  0  0  0  0  0  0
   -1.2740   -2.6140    0.5530 C   0  0  0  0  0  0  0  0  0  0  0  0
   -2.2930   -2.2840   -0.3670 O   0  0  0  0  0  0  0  0  0  0  0  0
   -2.8800   -1.0730   -0.1520 C   0  0  0  0  0  0  0  0  0  0  0  0
   -4.1440   -0.8980   -0.6950 C   0  0  0  0  0  0  0  0  0  0  0  0
   -4.7560    0.3500   -0.5040 C   0  0  0  0  0  0  0  0  0  0  0  0
   -5.9870    0.4710   -1.0410 O   0  0  0  0  0  0  0  0  0  0  0  0
   -4.1470    1.3940    0.1870 C   0  0  0  0  0  0  0  0  0  0  0  0
   -2.8730    1.1750    0.7200 C   0  0  0  0  0  0  0  0  0  0  0  0
   -2.3360    2.1890    1.4050 O   0  0  0  0  0  0  0  0  0  0  0  0
   -2.2080   -0.0480    0.5300 C   0  0  0  0  0  0  0  0  0  0  0  0
   -0.8440   -0.2280    0.9810 C   0  0  0  0  0  0  0  0  0  0  0  0
   -0.2600    0.6640    1.5940 O   0  0  0  0  0  0  0  0  0  0  0  0
    1.4230    0.9480   -0.8660 C   0  0  0  0  0  0  0  0  0  0  0  0
    2.4740    1.8520   -0.7740 C   0  0  0  0  0  0  0  0  0  0  0  0
    3.7360    1.3980   -0.4000 C   0  0  0  0  0  0  0  0  0  0  0  0
    4.7240    2.3300   -0.4050 O   0  0  0  0  0  0  0  0  0  0  0  0
    6.6100   -1.6260    0.6210 H   0  0  0  0  0  0  0  0  0  0  0  0
    5.0040   -2.1110    1.2490 H   0  0  0  0  0  0  0  0  0  0  0  0
    5.3630   -2.2260   -0.5110 H   0  0  0  0  0  0  0  0  0  0  0  0
    3.0200   -1.9320   -0.0250 H   0  0  0  0  0  0  0  0  0  0  0  0
   -0.2270   -1.0450   -1.5110 H   0  0  0  0  0  0  0  0  0  0  0  0
    0.8640   -2.3540   -1.1040 H   0  0  0  0  0  0  0  0  0  0  0  0
   -0.8920   -3.5830    0.1700 H   0  0  0  0  0  0  0  0  0  0  0  0
   -1.7050   -2.8100    1.5630 H   0  0  0  0  0  0  0  0  0  0  0  0
   -4.6380   -1.6890   -1.2660 H   0  0  0  0  0  0  0  0  0  0  0  0
   -6.3860    1.2910   -0.7440 H   0  0  0  0  0  0  0  0  0  0  0  0
   -4.6240    2.3640    0.3110 H   0  0  0  0  0  0  0  0  0  0  0  0
   -1.4000    1.9850    1.6450 H   0  0  0  0  0  0  0  0  0  0  0  0
    0.4360    1.3050   -1.1780 H   0  0  0  0  0  0  0  0  0  0  0  0
    2.3190    2.9120   -1.0060 H   0  0  0  0  0  0  0  0  0  0  0  0
    5.4290    2.0550    0.2000 H   0  0  0  0  0  0  0  0  0  0  0  0
  1 27  1  0
  1  2  1  0
  1 25  1  0
  1 26  1  0
  2  3  1  0
  3 23  2  0
  3  4  1  0
  4  5  2  0
  4 28  1  0
  5 21  1  0
  5  6  1  0
  6 29  1  0
  6 30  1  0
  6  7  1  0
  7  9  1  0
  7 19  1  0
  7  8  1  1
  9 10  1  0
  9 31  1  0
  9 32  1  0
 10 11  1  0
 11 12  2  0
 11 18  1  0
 12 33  1  0
 12 13  1  0
 13 14  1  0
 13 15  2  0
 14 34  1  0
 15 35  1  0
 15 16  1  0
 16 18  2  0
 16 17  1  0
 17 36  1  0
 18 19  1  0
 19 20  2  0
 21 37  1  0
 21 22  2  0
 22 38  1  0
 22 23  1  0
 23 24  1  0
 24 39  1  0
M  END
>  <id>  (411) 
513

>  <scaffolds>  (411) 
['c1ccccc1', 'O=C1c2ccccc2OCC1Cc1ccccc1', 'O=C(CCc1ccccc1)c1ccccc1']

>  <name>  (411) 
5,7-dihydroxy-(4'-hydroxy-3'-methoxybenzyl)-4-chromanone

>  <formula>  (411) 
C17H16O6

>  <SMILES>  (411) 
COc3cc(C[C@@H]2COc1cc(O)cc(O)c1C2=O)ccc3O

>  <ChEMBL_id>  (411) 


>  <ZINC_id>  (411) 


>  <PubChem_id>  (411) 


>  <DrugBank_id>  (411) 


>  <CAS_no>  (411) 
849727-89-5

>  <references>  (411) 
[{'journal': {'name': 'Biochemical Systematics and Ecology', 'id': 24}, 'title': 'A novel homoisoflavonoid from Drimia delagoensis (Urgineoideae: Hyacinthaceae)', 'year': 2005, 'start_page': 743, 'volume': 33, 'issue': None, 'doi': '10.1016/j.bse.2004.11.009', 'isbn': '', 'despositor': {'code': 'rah', 'first_name': 'Rowan', 'last_name': 'Hatherley', 'id': 20}, 'refauthors_set': [{'author': {'first_name': 'Chantal', 'initials': 'C', 'last_name': 'Koorbanally', 'id': 523}, 'first_author': True, 'id': 1031}, {'author': {'first_name': 'Dulcie', 'initials': 'DA', 'last_name': 'Mulholland', 'id': 525}, 'first_author': None, 'id': 1032}, {'author': {'first_name': 'Neil', 'initials': 'NR', 'last_name': 'Crouch', 'id': 524}, 'first_author': None, 'id': 1033}], 'id': 343}, {'journal': {'name': 'Bioorganic & Medicinal Chemistry', 'id': 34}, 'title': 'Anti-inflammatory activity and QSAR studies of compounds isolated from Hyacinthaceae species and Tachiadenus longiflorus Griseb. (Gentianaceae)', 'year': 2005, 'start_page': 2561, 'volume': 13, 'issue': 7, 'doi': '10.1016/j.bmc.2005.01.036', 'isbn': '', 'despositor': {'code': 'rah', 'first_name': 'Rowan', 'last_name': 'Hatherley', 'id': 20}, 'refauthors_set': [{'author': {'first_name': 'Karen', 'initials': 'K', 'last_name': 'Du Toit', 'id': 713}, 'first_author': True, 'id': 1075}, {'author': {'first_name': 'Esameldin', 'initials': 'EE', 'last_name': 'Elgorashi', 'id': 594}, 'first_author': None, 'id': 1076}, {'author': {'first_name': 'Sarel', 'initials': 'SF', 'last_name': 'Malan', 'id': 759}, 'first_author': None, 'id': 1077}, {'author': {'first_name': 'Siegfried', 'initials': 'SE', 'last_name': 'Drewes', 'id': 613}, 'first_author': None, 'id': 1078}, {'author': {'first_name': 'Johannes', 'initials': 'J', 'last_name': 'Van Staden', 'id': 489}, 'first_author': None, 'id': 1079}, {'author': {'first_name': 'Neil', 'initials': 'NR', 'last_name': 'Crouch', 'id': 524}, 'first_author': None, 'id': 1080}, {'author': {'first_name': 'Dulcie', 'initials': 'DA', 'last_name': 'Mulholland', 'id': 525}, 'first_author': None, 'id': 1081}], 'id': 362}]

>  <classifications>  (411) 
[{'classification': 'Flavonoids', 'id': 776}, {'classification': 'Homoisoflavonoid', 'id': 783}, {'classification': 'Homoisoflavonoids (Classyfire)', 'id': 964}]

>  <molecular_mass>  (411) 
316.3

$$$$
SANC00515_minRM1.pdb
     RDKit          3D

 49 53  0  0  1  0  0  0  0  0999 V2000
    0.4860   -1.3000   -1.8260 H   0  0  0  0  0  0  0  0  0  0  0  0
    0.9970   -1.3810   -0.8300 C   0  0  2  0  0  0  0  0  0  0  0  0
    2.4780   -1.6500   -1.0690 C   0  0  0  0  0  0  0  0  0  0  0  0
    3.0760   -0.4570   -1.7970 C   0  0  0  0  0  0  0  0  0  0  0  0
    2.9950    0.7880   -0.9210 C   0  0  2  0  0  0  0  0  0  0  0  0
    3.3770    1.6800   -1.4920 H   0  0  0  0  0  0  0  0  0  0  0  0
    3.7350    0.6090    0.2680 O   0  0  0  0  0  0  0  0  0  0  0  0
    5.0910    0.6670    0.2090 C   0  0  0  0  0  0  0  0  0  0  0  0
    5.7110    0.4090    1.5440 C   0  0  0  0  0  0  0  0  0  0  0  0
    5.6640    0.9300   -0.8320 O   0  0  0  0  0  0  0  0  0  0  0  0
    1.5440    1.0860   -0.4480 C   0  0  2  0  0  0  0  0  0  0  0  0
    1.0140    1.5270   -1.3420 H   0  0  0  0  0  0  0  0  0  0  0  0
    1.5790    1.9780    0.6260 O   0  0  0  0  0  0  0  0  0  0  0  0
    0.7380   -0.1250    0.0400 C   0  0  2  0  0  0  0  0  0  0  0  0
    1.0750   -0.6110    1.4600 C   0  0  0  0  0  0  0  0  0  0  0  0
    0.7970   -2.1260    1.4090 C   0  0  0  0  0  0  0  0  0  0  0  0
    0.4040   -2.4840    0.0030 N   0  0  0  0  0  0  0  0  0  0  0  0
   -1.0740   -2.3910   -0.1520 C   0  0  0  0  0  0  0  0  0  0  0  0
   -1.6070   -0.9910   -0.0460 C   0  0  0  0  0  0  0  0  0  0  0  0
   -3.0080   -0.8380   -0.0570 C   0  0  0  0  0  0  0  0  0  0  0  0
   -3.7910   -1.9390   -0.2480 O   0  0  0  0  0  0  0  0  0  0  0  0
   -4.7250   -2.1550    0.7880 C   0  0  0  0  0  0  0  0  0  0  0  0
   -3.5110    0.4410    0.0180 C   0  0  0  0  0  0  0  0  0  0  0  0
   -4.8100    0.8760    0.0220 O   0  0  0  0  0  0  0  0  0  0  0  0
   -4.7500    2.3000    0.0930 C   0  0  0  0  0  0  0  0  0  0  0  0
   -3.3840    2.6910    0.1920 O   0  0  0  0  0  0  0  0  0  0  0  0
   -2.6450    1.5380    0.1190 C   0  0  0  0  0  0  0  0  0  0  0  0
   -1.2760    1.4190    0.1320 C   0  0  0  0  0  0  0  0  0  0  0  0
   -0.7570    0.1180    0.0250 C   0  0  0  0  0  0  0  0  0  0  0  0
    3.0340   -1.8550   -0.1310 H   0  0  0  0  0  0  0  0  0  0  0  0
    2.6030   -2.5790   -1.6660 H   0  0  0  0  0  0  0  0  0  0  0  0
    4.1250   -0.6650   -2.0940 H   0  0  0  0  0  0  0  0  0  0  0  0
    2.5540   -0.2690   -2.7590 H   0  0  0  0  0  0  0  0  0  0  0  0
    5.1220   -0.2800    2.1680 H   0  0  0  0  0  0  0  0  0  0  0  0
    6.7180   -0.0200    1.4330 H   0  0  0  0  0  0  0  0  0  0  0  0
    5.8100    1.3500    2.1050 H   0  0  0  0  0  0  0  0  0  0  0  0
    2.1190    2.7350    0.3740 H   0  0  0  0  0  0  0  0  0  0  0  0
    2.1200   -0.3950    1.7480 H   0  0  0  0  0  0  0  0  0  0  0  0
    0.4750   -0.0890    2.2300 H   0  0  0  0  0  0  0  0  0  0  0  0
    1.6960   -2.7280    1.6650 H   0  0  0  0  0  0  0  0  0  0  0  0
    0.0390   -2.4360    2.1620 H   0  0  0  0  0  0  0  0  0  0  0  0
   -1.3450   -2.8250   -1.1440 H   0  0  0  0  0  0  0  0  0  0  0  0
   -1.5720   -3.0610    0.5870 H   0  0  0  0  0  0  0  0  0  0  0  0
   -5.2330   -3.0850    0.4890 H   0  0  0  0  0  0  0  0  0  0  0  0
   -4.2440   -2.3060    1.7700 H   0  0  0  0  0  0  0  0  0  0  0  0
   -5.4780   -1.3550    0.8880 H   0  0  0  0  0  0  0  0  0  0  0  0
   -5.1940    2.7350   -0.8280 H   0  0  0  0  0  0  0  0  0  0  0  0
   -5.3030    2.6520    0.9890 H   0  0  0  0  0  0  0  0  0  0  0  0
   -0.6690    2.3170    0.2410 H   0  0  0  0  0  0  0  0  0  0  0  0
  2  1  1  6
  2  3  1  0
  2 17  1  0
  2 14  1  0
  3  4  1  0
  3 31  1  0
  3 30  1  0
  4 33  1  0
  4 32  1  0
  4  5  1  0
  5  6  1  6
  5 11  1  0
  5  7  1  0
  7  8  1  0
  8 10  2  0
  8  9  1  0
  9 35  1  0
  9 36  1  0
  9 34  1  0
 11 12  1  6
 11 14  1  0
 11 13  1  0
 13 37  1  0
 14 29  1  0
 14 15  1  1
 15 16  1  0
 15 38  1  0
 15 39  1  0
 16 40  1  0
 16 41  1  0
 17 16  1  0
 17 18  1  0
 18 42  1  0
 18 19  1  0
 18 43  1  0
 19 20  2  0
 19 29  1  0
 20 21  1  0
 20 23  1  0
 21 22  1  0
 22 44  1  0
 22 46  1  0
 22 45  1  0
 23 24  1  0
 23 27  2  0
 24 25  1  0
 25 47  1  0
 25 26  1  0
 25 48  1  0
 26 27  1  0
 27 28  1  0
 28 29  2  0
 28 49  1  0
M  END
>  <id>  (412) 
515

>  <scaffolds>  (412) 
['c1ccccc1', 'C1CCCCC1', 'c1ccc(C23CCCCC2NCC3)cc1', 'C1CCNC1', 'c1ccc2c(c1)OCO2', 'c1c2c(cc3c1OCO3)C13CCCCC1N(CC3)C2']

>  <name>  (412) 
1-epideacetylbowdensine

>  <formula>  (412) 
C19H23NO6

>  <SMILES>  (412) 
[H][C@@]12CC[C@H](OC(C)=O)[C@H](O)[C@]15CC[N@]2Cc4c(OC)c3OCOc3cc45

>  <ChEMBL_id>  (412) 


>  <ZINC_id>  (412) 


>  <PubChem_id>  (412) 


>  <DrugBank_id>  (412) 


>  <CAS_no>  (412) 
265992-99-2

>  <references>  (412) 
[{'journal': {'name': 'Journal of Natural Products', 'id': 5}, 'title': 'Alkaloid Production in Crinum moorei Cultures', 'year': 2003, 'start_page': 1524, 'volume': 66, 'issue': 11, 'doi': '10.1021/np030206o', 'isbn': '', 'despositor': {'code': 'rah', 'first_name': 'Rowan', 'last_name': 'Hatherley', 'id': 20}, 'refauthors_set': [{'author': {'first_name': '', 'initials': 'CW', 'last_name': 'Fennell', 'id': 714}, 'first_author': True, 'id': 1043}, {'author': {'first_name': 'Esameldin', 'initials': 'EE', 'last_name': 'Elgorashi', 'id': 594}, 'first_author': None, 'id': 1121}, {'author': {'first_name': 'Johannes', 'initials': 'J', 'last_name': 'Van Staden', 'id': 489}, 'first_author': None, 'id': 1122}], 'id': 345}]

>  <classifications>  (412) 
[{'classification': 'Alkaloid', 'id': 738}, {'classification': 'Phenanthridine', 'id': 804}, {'classification': 'Quinolines and derivatives (Classyfire)', 'id': 948}]

>  <molecular_mass>  (412) 
361.39

$$$$
SANC00516_minRM1.pdb
     RDKit          3D

 82 86  0  0  1  0  0  0  0  0999 V2000
   -3.1420   -0.1040   -1.5380 H   0  0  0  0  0  0  0  0  0  0  0  0
   -3.3740   -0.4270   -0.4840 C   0  0  2  0  0  0  0  0  0  0  0  0
   -2.8120   -1.8330   -0.3000 C   0  0  0  0  0  0  0  0  0  0  0  0
   -1.3600   -1.8690   -0.7690 C   0  0  0  0  0  0  0  0  0  0  0  0
   -0.4860   -0.9100    0.0510 C   0  0  2  0  0  0  0  0  0  0  0  0
   -0.3790   -1.4830    1.4660 C   0  0  0  0  0  0  0  0  0  0  0  0
   -1.1250    0.4950    0.0500 C   0  0  2  0  0  0  0  0  0  0  0  0
   -1.0820    0.8740   -1.0110 H   0  0  0  0  0  0  0  0  0  0  0  0
   -0.2860    1.4470    0.8990 C   0  0  0  0  0  0  0  0  0  0  0  0
    1.1300    1.5530    0.3450 C   0  0  0  0  0  0  0  0  0  0  0  0
    1.7770    0.1750    0.2900 C   0  0  2  0  0  0  0  0  0  0  0  0
    1.8330   -0.2220    1.3400 H   0  0  0  0  0  0  0  0  0  0  0  0
    3.1950    0.2380   -0.2640 C   0  0  1  0  0  0  0  0  0  0  0  0
    3.1360    0.5180   -1.3560 H   0  0  0  0  0  0  0  0  0  0  0  0
    4.2060    1.1870    0.3920 C   0  0  2  0  0  0  0  0  0  0  0  0
    4.0560    1.1830    1.5010 H   0  0  0  0  0  0  0  0  0  0  0  0
    4.1270    2.5960   -0.1100 C   0  0  0  0  0  0  0  0  0  0  0  0
    4.0540    3.6320    0.7230 C   0  0  0  0  0  0  0  0  0  0  0  0
    4.1770    2.8100   -1.5820 C   0  0  0  0  0  0  0  0  0  0  0  0
    5.5780    0.5600    0.0390 C   0  0  0  0  0  0  0  0  0  0  0  0
    5.3060   -0.8300   -0.5600 C   0  0  0  0  0  0  0  0  0  0  0  0
    3.8650   -1.1430   -0.1430 C   0  0  1  0  0  0  0  0  0  0  0  0
    3.8940   -1.6510    1.3150 C   0  0  0  0  0  0  0  0  0  0  0  0
    4.4050   -2.9550    1.2740 O   0  0  0  0  0  0  0  0  0  0  0  0
    3.1030   -2.1030   -1.0450 C   0  0  0  0  0  0  0  0  0  0  0  0
    1.6350   -2.1720   -0.6250 C   0  0  0  0  0  0  0  0  0  0  0  0
    0.9420   -0.7950   -0.5800 C   0  0  1  0  0  0  0  0  0  0  0  0
    0.8550   -0.2850   -2.0240 C   0  0  0  0  0  0  0  0  0  0  0  0
   -2.6220    0.5350    0.4530 C   0  0  2  0  0  0  0  0  0  0  0  0
   -2.8190    0.2100    1.9270 C   0  0  0  0  0  0  0  0  0  0  0  0
   -3.1530    1.9580    0.2020 C   0  0  0  0  0  0  0  0  0  0  0  0
   -4.6570    2.0290    0.4090 C   0  0  0  0  0  0  0  0  0  0  0  0
   -5.3640    1.0790   -0.5660 C   0  0  2  0  0  0  0  0  0  0  0  0
   -5.1280    1.4050   -1.6200 H   0  0  0  0  0  0  0  0  0  0  0  0
   -6.7470    1.1030   -0.3530 O   0  0  0  0  0  0  0  0  0  0  0  0
   -4.9120   -0.3900   -0.3760 C   0  0  1  0  0  0  0  0  0  0  0  0
   -5.4960   -1.2140   -1.5350 C   0  0  0  0  0  0  0  0  0  0  0  0
   -5.4600   -0.9800    0.9180 C   0  0  0  0  0  0  0  0  0  0  0  0
   -2.8780   -2.1620    0.7620 H   0  0  0  0  0  0  0  0  0  0  0  0
   -3.4150   -2.5800   -0.8610 H   0  0  0  0  0  0  0  0  0  0  0  0
   -0.9780   -2.9100   -0.6920 H   0  0  0  0  0  0  0  0  0  0  0  0
   -1.3170   -1.6430   -1.8540 H   0  0  0  0  0  0  0  0  0  0  0  0
    0.3240   -2.3310    1.5270 H   0  0  0  0  0  0  0  0  0  0  0  0
   -0.0470   -0.7460    2.2120 H   0  0  0  0  0  0  0  0  0  0  0  0
   -1.3430   -1.8730    1.8370 H   0  0  0  0  0  0  0  0  0  0  0  0
   -0.7530    2.4560    0.9400 H   0  0  0  0  0  0  0  0  0  0  0  0
   -0.2610    1.1160    1.9620 H   0  0  0  0  0  0  0  0  0  0  0  0
    1.1360    2.0470   -0.6490 H   0  0  0  0  0  0  0  0  0  0  0  0
    1.7300    2.2360    0.9850 H   0  0  0  0  0  0  0  0  0  0  0  0
    4.0130    4.6640    0.3910 H   0  0  0  0  0  0  0  0  0  0  0  0
    4.0280    3.5470    1.8040 H   0  0  0  0  0  0  0  0  0  0  0  0
    3.8570    1.9220   -2.1540 H   0  0  0  0  0  0  0  0  0  0  0  0
    3.5320    3.6400   -1.9090 H   0  0  0  0  0  0  0  0  0  0  0  0
    5.1980    3.0550   -1.9160 H   0  0  0  0  0  0  0  0  0  0  0  0
    6.1630    1.1860   -0.6630 H   0  0  0  0  0  0  0  0  0  0  0  0
    6.2240    0.4980    0.9360 H   0  0  0  0  0  0  0  0  0  0  0  0
    5.4160   -0.8230   -1.6630 H   0  0  0  0  0  0  0  0  0  0  0  0
    6.0320   -1.5910   -0.2180 H   0  0  0  0  0  0  0  0  0  0  0  0
    4.5290   -1.0040    1.9650 H   0  0  0  0  0  0  0  0  0  0  0  0
    2.8810   -1.6090    1.7850 H   0  0  0  0  0  0  0  0  0  0  0  0
    4.3970   -3.2880    2.1760 H   0  0  0  0  0  0  0  0  0  0  0  0
    3.1940   -1.7990   -2.1090 H   0  0  0  0  0  0  0  0  0  0  0  0
    3.5550   -3.1170   -1.0290 H   0  0  0  0  0  0  0  0  0  0  0  0
    1.1010   -2.8550   -1.3210 H   0  0  0  0  0  0  0  0  0  0  0  0
    1.5470   -2.6890    0.3570 H   0  0  0  0  0  0  0  0  0  0  0  0
    0.6460   -1.0820   -2.7530 H   0  0  0  0  0  0  0  0  0  0  0  0
    0.0730    0.4760   -2.1770 H   0  0  0  0  0  0  0  0  0  0  0  0
    1.7920    0.1840   -2.3660 H   0  0  0  0  0  0  0  0  0  0  0  0
   -2.0990    0.7280    2.5760 H   0  0  0  0  0  0  0  0  0  0  0  0
   -3.8190    0.5020    2.2960 H   0  0  0  0  0  0  0  0  0  0  0  0
   -2.7270   -0.8680    2.1420 H   0  0  0  0  0  0  0  0  0  0  0  0
   -2.6380    2.6830    0.8700 H   0  0  0  0  0  0  0  0  0  0  0  0
   -2.8980    2.3070   -0.8220 H   0  0  0  0  0  0  0  0  0  0  0  0
   -4.9300    1.7990    1.4620 H   0  0  0  0  0  0  0  0  0  0  0  0
   -5.0130    3.0720    0.2620 H   0  0  0  0  0  0  0  0  0  0  0  0
   -7.0530    1.9940   -0.5450 H   0  0  0  0  0  0  0  0  0  0  0  0
   -5.1780   -0.8530   -2.5240 H   0  0  0  0  0  0  0  0  0  0  0  0
   -5.1920   -2.2710   -1.4780 H   0  0  0  0  0  0  0  0  0  0  0  0
   -6.5950   -1.2000   -1.5420 H   0  0  0  0  0  0  0  0  0  0  0  0
   -6.5580   -1.0630    0.9030 H   0  0  0  0  0  0  0  0  0  0  0  0
   -5.0890   -1.9970    1.1100 H   0  0  0  0  0  0  0  0  0  0  0  0
   -5.2260   -0.3810    1.8090 H   0  0  0  0  0  0  0  0  0  0  0  0
  2  1  1  6
  2 36  1  0
  2  3  1  0
  2 29  1  0
  3 40  1  0
  3  4  1  0
  3 39  1  0
  4 42  1  0
  4 41  1  0
  4  5  1  0
  5 27  1  0
  5  7  1  0
  5  6  1  1
  6 43  1  0
  6 45  1  0
  6 44  1  0
  7  8  1  6
  7 29  1  0
  7  9  1  0
  9 10  1  0
  9 46  1  0
  9 47  1  0
 10 48  1  0
 10 11  1  0
 10 49  1  0
 11 27  1  0
 11 13  1  0
 11 12  1  1
 13 14  1  6
 13 22  1  0
 13 15  1  0
 15 17  1  0
 15 20  1  0
 15 16  1  1
 17 19  1  0
 17 18  2  0
 18 50  1  0
 18 51  1  0
 19 52  1  0
 19 54  1  0
 19 53  1  0
 20 55  1  0
 20 21  1  0
 20 56  1  0
 21 57  1  0
 21 58  1  0
 21 22  1  0
 22 25  1  0
 22 23  1  1
 23 24  1  0
 23 60  1  0
 23 59  1  0
 24 61  1  0
 25 62  1  0
 25 63  1  0
 25 26  1  0
 26 64  1  0
 26 27  1  0
 26 65  1  0
 27 28  1  6
 28 66  1  0
 28 68  1  0
 28 67  1  0
 29 31  1  0
 29 30  1  1
 30 71  1  0
 30 70  1  0
 30 69  1  0
 31 73  1  0
 31 32  1  0
 31 72  1  0
 32 33  1  0
 32 75  1  0
 32 74  1  0
 33 34  1  6
 33 36  1  0
 33 35  1  0
 35 76  1  0
 36 37  1  6
 36 38  1  0
 37 77  1  0
 37 79  1  0
 37 78  1  0
 38 80  1  0
 38 81  1  0
 38 82  1  0
M  END
>  <id>  (413) 
516

>  <scaffolds>  (413) 
['C1CCC2C(C1)CCC1C2CCC2C3CCCC3CCC21', 'C1CCC(C2CCCC2)CC1', 'C1CCCCC1', 'C1CCC2C(C1)CCC1C3CCCC3CCC21', 'C1CCC2CCCCC2C1']

>  <name>  (413) 
Betulin

>  <formula>  (413) 
C30H50O2

>  <SMILES>  (413) 
[H][C@@]45CC[C@]3(C)[C@]([H])(CC[C@]2([H])[C@@]1([H])[C@H](C(=C)C)CC[C@]1(CO)CC[C@]23C)[C@@]4(C)CC[C@H](O)C5(C)C

>  <ChEMBL_id>  (413) 


>  <ZINC_id>  (413) 


>  <PubChem_id>  (413) 


>  <DrugBank_id>  (413) 


>  <CAS_no>  (413) 
473-98-3

>  <references>  (413) 
[{'journal': {'name': 'Journal of Natural Products', 'id': 5}, 'title': 'Antibacterial Activity of Naphthoquinones and Triterpenoids from Euclea natalensis Root Bark', 'year': 2004, 'start_page': 1936, 'volume': 67, 'issue': 11, 'doi': '10.1021/np030465d', 'isbn': '', 'despositor': {'code': 'NFA', 'first_name': 'Ngonidzashe', 'last_name': 'Faya', 'id': 21}, 'refauthors_set': [{'author': {'first_name': 'Oliver', 'initials': 'O', 'last_name': 'Weigenand', 'id': 715}, 'first_author': True, 'id': 1044}, {'author': {'first_name': 'Ahmed', 'initials': 'AA', 'last_name': 'Hussein', 'id': 440}, 'first_author': None, 'id': 1123}, {'author': {'first_name': 'Namrita', 'initials': 'N', 'last_name': 'Lall', 'id': 441}, 'first_author': None, 'id': 1124}, {'author': {'first_name': 'Jacobus', 'initials': 'JM', 'last_name': 'Meyer', 'id': 716}, 'first_author': None, 'id': 1125}], 'id': 346}]

>  <classifications>  (413) 
[{'classification': 'Terpenoid', 'id': 839}, {'classification': 'Triterpene', 'id': 842}, {'classification': 'Phenol lipids (Classyfire)', 'id': 951}]

>  <molecular_mass>  (413) 
442.71

$$$$
SANC00517_minRM1.pdb
     RDKit          3D

 50 53  0  0  1  0  0  0  0  0999 V2000
   -7.1260    0.2580   -0.0370 C   0  0  0  0  0  0  0  0  0  0  0  0
   -5.6600    0.0210   -0.1210 C   0  0  0  0  0  0  0  0  0  0  0  0
   -5.1810   -1.0530   -0.8600 C   0  0  0  0  0  0  0  0  0  0  0  0
   -3.8020   -1.2520   -0.9460 C   0  0  0  0  0  0  0  0  0  0  0  0
   -3.2660   -2.2700   -1.6690 O   0  0  0  0  0  0  0  0  0  0  0  0
   -2.8910   -0.4070   -0.3030 C   0  0  0  0  0  0  0  0  0  0  0  0
   -3.4000    0.6670    0.4220 C   0  0  0  0  0  0  0  0  0  0  0  0
   -4.7720    0.8830    0.5150 C   0  0  0  0  0  0  0  0  0  0  0  0
   -2.4790    1.6150    1.0930 C   0  0  0  0  0  0  0  0  0  0  0  0
   -2.8690    2.4010    1.9380 O   0  0  0  0  0  0  0  0  0  0  0  0
   -1.0430    1.5570    0.6520 C   0  0  0  0  0  0  0  0  0  0  0  0
   -0.6140    0.0950    0.6570 C   0  0  2  0  0  0  0  0  0  0  0  0
   -0.9190   -0.3150    1.6620 H   0  0  0  0  0  0  0  0  0  0  0  0
    0.8500   -0.1780    0.4870 C   0  0  0  0  0  0  0  0  0  0  0  0
    1.3520   -1.3840    0.9670 C   0  0  0  0  0  0  0  0  0  0  0  0
    0.4610   -2.3720    1.6360 C   0  0  0  0  0  0  0  0  0  0  0  0
    2.7050   -1.7210    0.8270 C   0  0  0  0  0  0  0  0  0  0  0  0
    3.5760   -0.8530    0.2040 C   0  0  0  0  0  0  0  0  0  0  0  0
    3.1180    0.3740   -0.2720 C   0  0  0  0  0  0  0  0  0  0  0  0
    4.0360    1.3360   -0.8670 C   0  0  0  0  0  0  0  0  0  0  0  0
    3.6110    2.3660   -1.3880 O   0  0  0  0  0  0  0  0  0  0  0  0
    5.5060    1.0470   -0.7970 C   0  0  0  0  0  0  0  0  0  0  0  0
    5.7400   -0.4350   -1.0290 C   0  0  0  0  0  0  0  0  0  0  0  0
    5.0190   -1.2610    0.0480 C   0  0  1  0  0  0  0  0  0  0  0  0
    5.5850   -1.0450    1.3090 O   0  0  0  0  0  0  0  0  0  0  0  0
    1.7510    0.6960   -0.1560 C   0  0  0  0  0  0  0  0  0  0  0  0
    1.2730    1.8510   -0.6290 O   0  0  0  0  0  0  0  0  0  0  0  0
   -1.4100   -0.6690   -0.4260 C   0  0  2  0  0  0  0  0  0  0  0  0
   -1.2140   -1.7760   -0.2970 H   0  0  0  0  0  0  0  0  0  0  0  0
   -0.9420   -0.2060   -1.6580 O   0  0  0  0  0  0  0  0  0  0  0  0
   -7.4900    0.7750   -0.9380 H   0  0  0  0  0  0  0  0  0  0  0  0
   -7.6990   -0.6770    0.0520 H   0  0  0  0  0  0  0  0  0  0  0  0
   -7.4150    0.8800    0.8240 H   0  0  0  0  0  0  0  0  0  0  0  0
   -5.8810   -1.7250   -1.3630 H   0  0  0  0  0  0  0  0  0  0  0  0
   -3.9760   -2.8430   -1.9740 H   0  0  0  0  0  0  0  0  0  0  0  0
   -5.1500    1.7360    1.0870 H   0  0  0  0  0  0  0  0  0  0  0  0
   -0.9880    2.0220   -0.3570 H   0  0  0  0  0  0  0  0  0  0  0  0
   -0.3890    2.1750    1.3020 H   0  0  0  0  0  0  0  0  0  0  0  0
   -0.2860   -2.7700    0.9260 H   0  0  0  0  0  0  0  0  0  0  0  0
    0.9920   -3.2370    2.0570 H   0  0  0  0  0  0  0  0  0  0  0  0
   -0.0980   -1.9200    2.4730 H   0  0  0  0  0  0  0  0  0  0  0  0
    3.0750   -2.6720    1.2250 H   0  0  0  0  0  0  0  0  0  0  0  0
    6.0780    1.6650   -1.5230 H   0  0  0  0  0  0  0  0  0  0  0  0
    5.8790    1.3640    0.2030 H   0  0  0  0  0  0  0  0  0  0  0  0
    5.3830   -0.7340   -2.0360 H   0  0  0  0  0  0  0  0  0  0  0  0
    6.8260   -0.6610   -1.0360 H   0  0  0  0  0  0  0  0  0  0  0  0
    5.0710   -2.3510   -0.2380 H   0  0  0  0  0  0  0  0  0  0  0  0
    6.4760   -1.3980    1.2970 H   0  0  0  0  0  0  0  0  0  0  0  0
    1.9540    2.3460   -1.1560 H   0  0  0  0  0  0  0  0  0  0  0  0
   -1.3890   -0.7110   -2.3450 H   0  0  0  0  0  0  0  0  0  0  0  0
  1 31  1  0
  1  2  1  0
  1 32  1  0
  1 33  1  0
  2  3  2  0
  2  8  1  0
  3 34  1  0
  3  4  1  0
  4  5  1  0
  4  6  2  0
  5 35  1  0
  6 28  1  0
  6  7  1  0
  7  8  2  0
  7  9  1  0
  8 36  1  0
  9 11  1  0
  9 10  2  0
 11 37  1  0
 11 12  1  0
 11 38  1  0
 12 28  1  0
 12 14  1  0
 12 13  1  1
 14 26  2  0
 14 15  1  0
 15 17  2  0
 15 16  1  0
 16 39  1  0
 16 40  1  0
 16 41  1  0
 17 18  1  0
 17 42  1  0
 18 19  2  0
 18 24  1  0
 19 20  1  0
 19 26  1  0
 20 21  2  0
 20 22  1  0
 22 43  1  0
 22 23  1  0
 22 44  1  0
 23 45  1  0
 23 46  1  0
 23 24  1  0
 24 47  1  6
 24 25  1  0
 25 48  1  0
 26 27  1  0
 27 49  1  0
 28 30  1  0
 28 29  1  6
 30 50  1  0
M  END
>  <id>  (414) 
517

>  <scaffolds>  (414) 
['c1ccccc1', 'c1ccc(CCc2ccccc2)cc1', 'O=C(CCc1ccccc1)c1ccccc1', 'c1ccc2c(c1)CCCC2', 'O=C1CCCc2ccccc21']

>  <name>  (414) 
Octahydroeuclein

>  <formula>  (414) 
C22H22O6

>  <SMILES>  (414) 
Cc1cc(O)c4c(c1)C(=O)C[C@H](c3c(C)cc2c(C(=O)CCC2O)c3O)[C@@H]4O

>  <ChEMBL_id>  (414) 


>  <ZINC_id>  (414) 


>  <PubChem_id>  (414) 


>  <DrugBank_id>  (414) 


>  <CAS_no>  (414) 
816429-73-9

>  <references>  (414) 
[{'journal': {'name': 'Journal of Natural Products', 'id': 5}, 'title': 'Antibacterial Activity of Naphthoquinones and Triterpenoids from Euclea natalensis Root Bark', 'year': 2004, 'start_page': 1936, 'volume': 67, 'issue': 11, 'doi': '10.1021/np030465d', 'isbn': '', 'despositor': {'code': 'NFA', 'first_name': 'Ngonidzashe', 'last_name': 'Faya', 'id': 21}, 'refauthors_set': [{'author': {'first_name': 'Oliver', 'initials': 'O', 'last_name': 'Weigenand', 'id': 715}, 'first_author': True, 'id': 1044}, {'author': {'first_name': 'Ahmed', 'initials': 'AA', 'last_name': 'Hussein', 'id': 440}, 'first_author': None, 'id': 1123}, {'author': {'first_name': 'Namrita', 'initials': 'N', 'last_name': 'Lall', 'id': 441}, 'first_author': None, 'id': 1124}, {'author': {'first_name': 'Jacobus', 'initials': 'JM', 'last_name': 'Meyer', 'id': 716}, 'first_author': None, 'id': 1125}], 'id': 346}]

>  <classifications>  (414) 
[{'classification': 'Naphthoquinone', 'id': 798}]

>  <molecular_mass>  (414) 
382.41

$$$$
SANC00518_minRM1.pdb
     RDKit          3D

102107  0  0  1  0  0  0  0  0999 V2000
    0.5350   -1.2430   -1.3110 H   0  0  0  0  0  0  0  0  0  0  0  0
    0.4270   -1.3150   -0.1910 C   0  0  2  0  0  0  0  0  0  0  0  0
    1.2580   -2.5070    0.2700 C   0  0  0  0  0  0  0  0  0  0  0  0
    2.6630   -2.4050   -0.3200 C   0  0  0  0  0  0  0  0  0  0  0  0
    3.3800   -1.1380    0.1670 C   0  0  2  0  0  0  0  0  0  0  0  0
    3.6760   -1.3290    1.6560 C   0  0  0  0  0  0  0  0  0  0  0  0
    2.4850    0.0870   -0.1160 C   0  0  2  0  0  0  0  0  0  0  0  0
    2.4090    0.1770   -1.2380 H   0  0  0  0  0  0  0  0  0  0  0  0
    3.1470    1.3690    0.3860 C   0  0  0  0  0  0  0  0  0  0  0  0
    4.5170    1.5650   -0.2510 C   0  0  0  0  0  0  0  0  0  0  0  0
    5.3980    0.3430   -0.0140 C   0  0  2  0  0  0  0  0  0  0  0  0
    5.5190    0.2170    1.0970 H   0  0  0  0  0  0  0  0  0  0  0  0
    6.7660    0.5230   -0.6480 C   0  0  1  0  0  0  0  0  0  0  0  0
    6.5960    0.5250   -1.7670 H   0  0  0  0  0  0  0  0  0  0  0  0
    7.6040    1.7860   -0.4070 C   0  0  1  0  0  0  0  0  0  0  0  0
    7.5610    2.5100    0.8990 C   0  0  0  0  0  0  0  0  0  0  0  0
    6.9520    2.1270    2.0140 C   0  0  0  0  0  0  0  0  0  0  0  0
    8.2660    3.8270    0.8830 C   0  0  0  0  0  0  0  0  0  0  0  0
    9.0530    1.3120   -0.6940 C   0  0  0  0  0  0  0  0  0  0  0  0
    8.9980   -0.1910   -1.0030 C   0  0  0  0  0  0  0  0  0  0  0  0
    7.6960   -0.6590   -0.3370 C   0  0  1  0  0  0  0  0  0  0  0  0
    7.9790   -0.8830    1.1430 C   0  0  0  0  0  0  0  0  0  0  0  0
    7.0780   -1.9180   -0.9350 C   0  0  0  0  0  0  0  0  0  0  0  0
    5.6690   -2.1380   -0.3850 C   0  0  0  0  0  0  0  0  0  0  0  0
    4.7340   -0.9310   -0.5900 C   0  0  1  0  0  0  0  0  0  0  0  0
    4.5030   -0.7910   -2.0980 C   0  0  0  0  0  0  0  0  0  0  0  0
    1.0250   -0.0270    0.3990 C   0  0  2  0  0  0  0  0  0  0  0  0
    0.9710    0.0230    1.9190 C   0  0  0  0  0  0  0  0  0  0  0  0
    0.2250    1.1670   -0.1540 C   0  0  0  0  0  0  0  0  0  0  0  0
   -1.2610    1.0360    0.1440 C   0  0  0  0  0  0  0  0  0  0  0  0
   -1.7990   -0.2520   -0.4790 C   0  0  2  0  0  0  0  0  0  0  0  0
   -1.6780   -0.2100   -1.5970 H   0  0  0  0  0  0  0  0  0  0  0  0
   -3.1640   -0.3990   -0.1210 O   0  0  0  0  0  0  0  0  0  0  0  0
   -4.0880    0.3370   -0.7920 C   0  0  0  0  0  0  0  0  0  0  0  0
   -3.7660    1.0680   -1.7180 O   0  0  0  0  0  0  0  0  0  0  0  0
   -5.4420    0.1250   -0.2660 C   0  0  0  0  0  0  0  0  0  0  0  0
   -6.4900    0.6670   -0.8960 C   0  0  0  0  0  0  0  0  0  0  0  0
   -7.8640    0.5180   -0.4370 C   0  0  0  0  0  0  0  0  0  0  0  0
   -8.1660   -0.1440    0.7500 C   0  0  0  0  0  0  0  0  0  0  0  0
   -9.4820   -0.2800    1.1790 C   0  0  0  0  0  0  0  0  0  0  0  0
  -10.5060    0.2700    0.4210 C   0  0  0  0  0  0  0  0  0  0  0  0
  -11.8380    0.2180    0.7130 O   0  0  0  0  0  0  0  0  0  0  0  0
  -12.2020   -0.3290    1.9540 C   0  0  0  0  0  0  0  0  0  0  0  0
  -10.2070    0.9590   -0.7720 C   0  0  0  0  0  0  0  0  0  0  0  0
  -11.1510    1.4820   -1.5940 O   0  0  0  0  0  0  0  0  0  0  0  0
   -8.8910    1.0710   -1.2060 C   0  0  0  0  0  0  0  0  0  0  0  0
   -1.0820   -1.5130    0.0620 C   0  0  1  0  0  0  0  0  0  0  0  0
   -1.5570   -2.7190   -0.7620 C   0  0  0  0  0  0  0  0  0  0  0  0
   -1.4370   -1.7910    1.5170 C   0  0  0  0  0  0  0  0  0  0  0  0
    1.3060   -2.5660    1.3800 H   0  0  0  0  0  0  0  0  0  0  0  0
    0.7840   -3.4660   -0.0370 H   0  0  0  0  0  0  0  0  0  0  0  0
    3.2390   -3.3150   -0.0450 H   0  0  0  0  0  0  0  0  0  0  0  0
    2.6050   -2.4450   -1.4270 H   0  0  0  0  0  0  0  0  0  0  0  0
    4.4290   -2.1170    1.8300 H   0  0  0  0  0  0  0  0  0  0  0  0
    4.0740   -0.4250    2.1410 H   0  0  0  0  0  0  0  0  0  0  0  0
    2.7920   -1.6370    2.2370 H   0  0  0  0  0  0  0  0  0  0  0  0
    2.5060    2.2520    0.1660 H   0  0  0  0  0  0  0  0  0  0  0  0
    3.2200    1.3740    1.4970 H   0  0  0  0  0  0  0  0  0  0  0  0
    4.4220    1.7980   -1.3320 H   0  0  0  0  0  0  0  0  0  0  0  0
    4.9970    2.4740    0.1720 H   0  0  0  0  0  0  0  0  0  0  0  0
    7.2860    2.5420   -1.1740 H   0  0  0  0  0  0  0  0  0  0  0  0
    6.9640    2.7200    2.9230 H   0  0  0  0  0  0  0  0  0  0  0  0
    6.3840    1.2120    2.1410 H   0  0  0  0  0  0  0  0  0  0  0  0
    8.9780    3.9410    0.0560 H   0  0  0  0  0  0  0  0  0  0  0  0
    7.5460    4.6540    0.7780 H   0  0  0  0  0  0  0  0  0  0  0  0
    8.8370    4.0120    1.8040 H   0  0  0  0  0  0  0  0  0  0  0  0
    9.5050    1.8800   -1.5300 H   0  0  0  0  0  0  0  0  0  0  0  0
    9.7280    1.5100    0.1620 H   0  0  0  0  0  0  0  0  0  0  0  0
    8.9910   -0.3790   -2.0960 H   0  0  0  0  0  0  0  0  0  0  0  0
    9.8920   -0.7310   -0.6410 H   0  0  0  0  0  0  0  0  0  0  0  0
    8.4440   -0.0120    1.6250 H   0  0  0  0  0  0  0  0  0  0  0  0
    7.0840   -1.1230    1.7340 H   0  0  0  0  0  0  0  0  0  0  0  0
    8.6730   -1.7240    1.2960 H   0  0  0  0  0  0  0  0  0  0  0  0
    7.0650   -1.8730   -2.0440 H   0  0  0  0  0  0  0  0  0  0  0  0
    7.7130   -2.8040   -0.7210 H   0  0  0  0  0  0  0  0  0  0  0  0
    5.2430   -3.0480   -0.8610 H   0  0  0  0  0  0  0  0  0  0  0  0
    5.7210   -2.4120    0.6930 H   0  0  0  0  0  0  0  0  0  0  0  0
    4.3410   -1.7540   -2.6040 H   0  0  0  0  0  0  0  0  0  0  0  0
    3.6320   -0.1670   -2.3560 H   0  0  0  0  0  0  0  0  0  0  0  0
    5.3610   -0.3250   -2.6130 H   0  0  0  0  0  0  0  0  0  0  0  0
    1.6560    0.7760    2.3390 H   0  0  0  0  0  0  0  0  0  0  0  0
   -0.0310    0.2730    2.3060 H   0  0  0  0  0  0  0  0  0  0  0  0
    1.2400   -0.9390    2.3870 H   0  0  0  0  0  0  0  0  0  0  0  0
    0.6150    2.1190    0.2680 H   0  0  0  0  0  0  0  0  0  0  0  0
    0.3770    1.2770   -1.2490 H   0  0  0  0  0  0  0  0  0  0  0  0
   -1.4590    1.0740    1.2360 H   0  0  0  0  0  0  0  0  0  0  0  0
   -1.8060    1.9190   -0.2560 H   0  0  0  0  0  0  0  0  0  0  0  0
   -5.5350   -0.4790    0.6410 H   0  0  0  0  0  0  0  0  0  0  0  0
   -6.3430    1.2610   -1.8080 H   0  0  0  0  0  0  0  0  0  0  0  0
   -7.3630   -0.5710    1.3600 H   0  0  0  0  0  0  0  0  0  0  0  0
   -9.6770   -0.8300    2.1040 H   0  0  0  0  0  0  0  0  0  0  0  0
  -13.2910   -0.1910    1.9900 H   0  0  0  0  0  0  0  0  0  0  0  0
  -11.9750   -1.4040    2.0360 H   0  0  0  0  0  0  0  0  0  0  0  0
  -11.7560    0.2020    2.8130 H   0  0  0  0  0  0  0  0  0  0  0  0
  -11.9230    1.7290   -1.0680 H   0  0  0  0  0  0  0  0  0  0  0  0
   -8.6800    1.5780   -2.1510 H   0  0  0  0  0  0  0  0  0  0  0  0
   -1.3660   -2.6080   -1.8390 H   0  0  0  0  0  0  0  0  0  0  0  0
   -1.0510   -3.6470   -0.4510 H   0  0  0  0  0  0  0  0  0  0  0  0
   -2.6360   -2.8970   -0.6590 H   0  0  0  0  0  0  0  0  0  0  0  0
   -2.4910   -2.0860    1.6380 H   0  0  0  0  0  0  0  0  0  0  0  0
   -0.8480   -2.6140    1.9450 H   0  0  0  0  0  0  0  0  0  0  0  0
   -1.2990   -0.9220    2.1780 H   0  0  0  0  0  0  0  0  0  0  0  0
  2  1  1  6
  2 47  1  0
  2  3  1  0
  2 27  1  0
  3  4  1  0
  3 51  1  0
  3 50  1  0
  4 53  1  0
  4 52  1  0
  4  5  1  0
  5 25  1  0
  5  7  1  0
  5  6  1  1
  6 54  1  0
  6 55  1  0
  6 56  1  0
  7  8  1  6
  7  9  1  0
  7 27  1  0
  9 10  1  0
  9 57  1  0
  9 58  1  0
 10 59  1  0
 10 11  1  0
 10 60  1  0
 11 13  1  0
 11 25  1  0
 11 12  1  1
 13 14  1  6
 13 15  1  0
 13 21  1  0
 15 61  1  6
 15 19  1  0
 15 16  1  0
 16 18  1  0
 16 17  2  0
 17 63  1  0
 17 62  1  0
 18 64  1  0
 18 65  1  0
 18 66  1  0
 19 67  1  0
 19 20  1  0
 19 68  1  0
 20 69  1  0
 20 70  1  0
 20 21  1  0
 21 23  1  0
 21 22  1  1
 22 73  1  0
 22 71  1  0
 22 72  1  0
 23 74  1  0
 23 75  1  0
 23 24  1  0
 24 76  1  0
 24 25  1  0
 24 77  1  0
 25 26  1  6
 26 80  1  0
 26 78  1  0
 26 79  1  0
 27 29  1  0
 27 28  1  1
 28 82  1  0
 28 81  1  0
 28 83  1  0
 29 85  1  0
 29 30  1  0
 29 84  1  0
 30 31  1  0
 30 87  1  0
 30 86  1  0
 31 32  1  6
 31 33  1  0
 31 47  1  0
 33 34  1  0
 34 35  2  0
 34 36  1  0
 36 37  2  0
 36 88  1  0
 37 89  1  0
 37 38  1  0
 38 46  2  0
 38 39  1  0
 39 40  2  0
 39 90  1  0
 40 41  1  0
 40 91  1  0
 41 44  2  0
 41 42  1  0
 42 43  1  0
 43 92  1  0
 43 93  1  0
 43 94  1  0
 44 45  1  0
 44 46  1  0
 45 95  1  0
 46 96  1  0
 47 48  1  6
 47 49  1  0
 48 97  1  0
 48 99  1  0
 48 98  1  0
 49100  1  0
 49101  1  0
 49102  1  0
M  END
>  <id>  (415) 
518

>  <scaffolds>  (415) 
['c1ccccc1', 'C1CCC2C(C1)CCC1C2CCC2C3CCCC3CCC21', 'C1CCC(C2CCCC2)CC1', 'C1CCCCC1', 'O=C(C=Cc1ccccc1)OC1CCC2C(CCC3C2CCC2C4CCCC4CCC23)C1', 'C1CCC2C(C1)CCC1C3CCCC3CCC21', 'O=C(C=Cc1ccccc1)OC1CCCCC1', 'C1CCC2CCCCC2C1']

>  <name>  (415) 
20(29)-lupene-3[beta]-isoferulate

>  <formula>  (415) 
C40H58O4

>  <SMILES>  (415) 
[H][C@@]46CC[C@]3(C)[C@]([H])(CC[C@]2([H])[C@@]1([H])C(C(=C)C)CC[C@]1(C)CC[C@]23C)[C@@]4(C)CC[C@H](OC(=O)/C=C/c5ccc(OC)c(O)c5)C6(C)C

>  <ChEMBL_id>  (415) 


>  <ZINC_id>  (415) 


>  <PubChem_id>  (415) 


>  <DrugBank_id>  (415) 


>  <CAS_no>  (415) 
816429-13-7

>  <references>  (415) 
[{'journal': {'name': 'Journal of Natural Products', 'id': 5}, 'title': 'Antibacterial Activity of Naphthoquinones and Triterpenoids from Euclea natalensis Root Bark', 'year': 2004, 'start_page': 1936, 'volume': 67, 'issue': 11, 'doi': '10.1021/np030465d', 'isbn': '', 'despositor': {'code': 'NFA', 'first_name': 'Ngonidzashe', 'last_name': 'Faya', 'id': 21}, 'refauthors_set': [{'author': {'first_name': 'Oliver', 'initials': 'O', 'last_name': 'Weigenand', 'id': 715}, 'first_author': True, 'id': 1044}, {'author': {'first_name': 'Ahmed', 'initials': 'AA', 'last_name': 'Hussein', 'id': 440}, 'first_author': None, 'id': 1123}, {'author': {'first_name': 'Namrita', 'initials': 'N', 'last_name': 'Lall', 'id': 441}, 'first_author': None, 'id': 1124}, {'author': {'first_name': 'Jacobus', 'initials': 'JM', 'last_name': 'Meyer', 'id': 716}, 'first_author': None, 'id': 1125}], 'id': 346}]

>  <classifications>  (415) 
[{'classification': 'Terpenoid', 'id': 839}, {'classification': 'Triterpene', 'id': 842}, {'classification': 'Phenol lipids (Classyfire)', 'id': 951}]

>  <molecular_mass>  (415) 
602.88

$$$$
SANC00519_minRM1.pdb
     RDKit          3D

 35 36  0  0  0  0  0  0  0  0999 V2000
    5.7410   -0.9680   -1.0140 C   0  0  0  0  0  0  0  0  0  0  0  0
    5.2270   -0.5420    0.2300 O   0  0  0  0  0  0  0  0  0  0  0  0
    4.0040    0.0580    0.1030 C   0  0  0  0  0  0  0  0  0  0  0  0
    3.9170    1.4450    0.0750 C   0  0  0  0  0  0  0  0  0  0  0  0
    5.0040    2.2580    0.1040 O   0  0  0  0  0  0  0  0  0  0  0  0
    2.6680    2.0780    0.0680 C   0  0  0  0  0  0  0  0  0  0  0  0
    1.5260    1.3070    0.0750 C   0  0  0  0  0  0  0  0  0  0  0  0
    1.5720   -0.0920    0.0760 C   0  0  0  0  0  0  0  0  0  0  0  0
    0.3350   -0.8860    0.0490 C   0  0  0  0  0  0  0  0  0  0  0  0
    0.3980   -2.1130    0.0140 O   0  0  0  0  0  0  0  0  0  0  0  0
   -0.9560   -0.1780    0.0410 C   0  0  0  0  0  0  0  0  0  0  0  0
   -2.1310   -0.8180    0.0440 C   0  0  0  0  0  0  0  0  0  0  0  0
   -3.4110   -0.1160   -0.0080 C   0  0  0  0  0  0  0  0  0  0  0  0
   -3.4800    1.2790   -0.0300 C   0  0  0  0  0  0  0  0  0  0  0  0
   -4.7040    1.9260   -0.1540 C   0  0  0  0  0  0  0  0  0  0  0  0
   -5.8860    1.2000   -0.1660 C   0  0  0  0  0  0  0  0  0  0  0  0
   -5.8110   -0.1910   -0.0860 C   0  0  0  0  0  0  0  0  0  0  0  0
   -6.9600   -0.9140    0.0390 O   0  0  0  0  0  0  0  0  0  0  0  0
   -4.5910   -0.8610   -0.0210 C   0  0  0  0  0  0  0  0  0  0  0  0
    2.8280   -0.7170    0.0950 C   0  0  0  0  0  0  0  0  0  0  0  0
    3.0410   -2.0470    0.1200 O   0  0  0  0  0  0  0  0  0  0  0  0
    6.6790   -1.4830   -0.7570 H   0  0  0  0  0  0  0  0  0  0  0  0
    5.0820   -1.6610   -1.5600 H   0  0  0  0  0  0  0  0  0  0  0  0
    5.9690   -0.1220   -1.6820 H   0  0  0  0  0  0  0  0  0  0  0  0
    5.5910    1.9780   -0.6000 H   0  0  0  0  0  0  0  0  0  0  0  0
    2.6200    3.1710    0.0510 H   0  0  0  0  0  0  0  0  0  0  0  0
    0.5540    1.8180    0.0530 H   0  0  0  0  0  0  0  0  0  0  0  0
   -0.9180    0.9210    0.0330 H   0  0  0  0  0  0  0  0  0  0  0  0
   -2.1770   -1.9150    0.0840 H   0  0  0  0  0  0  0  0  0  0  0  0
   -2.5670    1.8730    0.0980 H   0  0  0  0  0  0  0  0  0  0  0  0
   -4.7390    3.0170   -0.2400 H   0  0  0  0  0  0  0  0  0  0  0  0
   -6.8590    1.7000   -0.2090 H   0  0  0  0  0  0  0  0  0  0  0  0
   -7.2590   -1.0930   -0.8610 H   0  0  0  0  0  0  0  0  0  0  0  0
   -4.5770   -1.9530    0.0590 H   0  0  0  0  0  0  0  0  0  0  0  0
    2.3100   -2.5070   -0.3180 H   0  0  0  0  0  0  0  0  0  0  0  0
  1 24  1  0
  1 23  1  0
  1 22  1  0
  1  2  1  0
  2  3  1  0
  3  4  2  0
  3 20  1  0
  4  6  1  0
  4  5  1  0
  5 25  1  0
  6 26  1  0
  6  7  2  0
  7 27  1  0
  7  8  1  0
  8  9  1  0
  8 20  2  0
  9 10  2  0
  9 11  1  0
 11 28  1  0
 11 12  2  0
 12 13  1  0
 12 29  1  0
 13 14  2  0
 13 19  1  0
 14 15  1  0
 14 30  1  0
 15 31  1  0
 15 16  2  0
 16 32  1  0
 16 17  1  0
 17 19  2  0
 17 18  1  0
 18 33  1  0
 19 34  1  0
 20 21  1  0
 21 35  1  0
M  END
>  <id>  (416) 
519

>  <scaffolds>  (416) 
['c1ccccc1', 'O=C(C=Cc1ccccc1)c1ccccc1', 'C(=Cc1ccccc1)Cc1ccccc1']

>  <name>  (416) 
(E)-3,2',4'-Trihydroxy-3'-methoxychalcone

>  <formula>  (416) 
C16H14O5

>  <SMILES>  (416) 
COc2c(O)ccc(C(=O)/C=C/c1cccc(O)c1)c2O

>  <ChEMBL_id>  (416) 


>  <ZINC_id>  (416) 


>  <PubChem_id>  (416) 


>  <DrugBank_id>  (416) 


>  <CAS_no>  (416) 
1196896-74-8

>  <references>  (416) 
[{'journal': {'name': 'Journal of Natural Products', 'id': 5}, 'title': 'Antimycobacterial Flavonoids from the Leaf Extract of Galenia africana', 'year': 2009, 'start_page': 2169, 'volume': 72, 'issue': 12, 'doi': '10.1021/np800778b', 'isbn': '', 'despositor': {'code': 'NFA', 'first_name': 'Ngonidzashe', 'last_name': 'Faya', 'id': 21}, 'refauthors_set': [{'author': {'first_name': 'Sannah', 'initials': 'SPN', 'last_name': 'Mativandlela', 'id': 717}, 'first_author': True, 'id': 1045}, {'author': {'first_name': 'Tshilidzi', 'initials': 'T', 'last_name': 'Muthivhi', 'id': 562}, 'first_author': None, 'id': 1126}, {'author': {'first_name': 'Haruhisa', 'initials': 'H', 'last_name': 'Kikuchi', 'id': 718}, 'first_author': None, 'id': 1127}, {'author': {'first_name': 'Yoshiteru', 'initials': 'Y', 'last_name': 'Oshima', 'id': 719}, 'first_author': None, 'id': 1128}, {'author': {'first_name': 'Chris', 'initials': 'C', 'last_name': 'Hamilton', 'id': 720}, 'first_author': None, 'id': 1129}, {'author': {'first_name': 'Ahmed', 'initials': 'AA', 'last_name': 'Hussein', 'id': 440}, 'first_author': None, 'id': 1130}, {'author': {'first_name': 'Martha', 'initials': 'ML', 'last_name': 'van der Walt', 'id': 721}, 'first_author': None, 'id': 1131}, {'author': {'first_name': 'Namrita', 'initials': 'N', 'last_name': 'Lall', 'id': 441}, 'first_author': None, 'id': 1132}], 'id': 347}]

>  <classifications>  (416) 
[{'classification': 'Flavonoids', 'id': 776}, {'classification': 'Linear 1,3-diarylpropanoids (Classyfire)', 'id': 943}]

>  <molecular_mass>  (416) 
286.28

$$$$
SANC00520_minRM1.pdb
     RDKit          3D

 32 34  0  0  1  0  0  0  0  0999 V2000
   -1.3840    2.7660    0.7300 O   0  0  0  0  0  0  0  0  0  0  0  0
   -0.9180    1.6480    0.5320 C   0  0  0  0  0  0  0  0  0  0  0  0
    0.5390    1.3300    0.6610 C   0  0  0  0  0  0  0  0  0  0  0  0
    0.9070    0.1950   -0.3010 C   0  0  1  0  0  0  0  0  0  0  0  0
    0.7640    0.5230   -1.3670 H   0  0  0  0  0  0  0  0  0  0  0  0
    2.3220   -0.2330   -0.0410 C   0  0  0  0  0  0  0  0  0  0  0  0
    2.6320   -1.2280    0.8800 C   0  0  0  0  0  0  0  0  0  0  0  0
    3.9530   -1.6010    1.0960 C   0  0  0  0  0  0  0  0  0  0  0  0
    4.9830   -0.9700    0.4090 C   0  0  0  0  0  0  0  0  0  0  0  0
    4.7010    0.0380   -0.5010 C   0  0  0  0  0  0  0  0  0  0  0  0
    3.3700    0.4000   -0.7180 C   0  0  0  0  0  0  0  0  0  0  0  0
    3.0360    1.4310   -1.5400 O   0  0  0  0  0  0  0  0  0  0  0  0
    0.0950   -0.9540   -0.0980 O   0  0  0  0  0  0  0  0  0  0  0  0
   -1.2420   -0.7340   -0.0690 C   0  0  0  0  0  0  0  0  0  0  0  0
   -2.0420   -1.8510   -0.2740 C   0  0  0  0  0  0  0  0  0  0  0  0
   -3.4310   -1.6700   -0.1910 C   0  0  0  0  0  0  0  0  0  0  0  0
   -4.1550   -2.7910   -0.3770 O   0  0  0  0  0  0  0  0  0  0  0  0
   -4.0200   -0.4310    0.0540 C   0  0  0  0  0  0  0  0  0  0  0  0
   -3.1790    0.6680    0.2550 C   0  0  0  0  0  0  0  0  0  0  0  0
   -3.7840    1.8340    0.5030 O   0  0  0  0  0  0  0  0  0  0  0  0
   -1.7800    0.5290    0.2130 C   0  0  0  0  0  0  0  0  0  0  0  0
    1.1770    2.2180    0.4570 H   0  0  0  0  0  0  0  0  0  0  0  0
    0.7570    1.0550    1.7150 H   0  0  0  0  0  0  0  0  0  0  0  0
    1.8390   -1.7360    1.4400 H   0  0  0  0  0  0  0  0  0  0  0  0
    4.1840   -2.3900    1.8190 H   0  0  0  0  0  0  0  0  0  0  0  0
    6.0220   -1.2600    0.5920 H   0  0  0  0  0  0  0  0  0  0  0  0
    5.5100    0.5450   -1.0350 H   0  0  0  0  0  0  0  0  0  0  0  0
    3.6410    1.4140   -2.3030 H   0  0  0  0  0  0  0  0  0  0  0  0
   -1.6100   -2.8300   -0.4890 H   0  0  0  0  0  0  0  0  0  0  0  0
   -5.0960   -2.5800   -0.2950 H   0  0  0  0  0  0  0  0  0  0  0  0
   -5.1030   -0.3030    0.0990 H   0  0  0  0  0  0  0  0  0  0  0  0
   -3.1090    2.5370    0.6320 H   0  0  0  0  0  0  0  0  0  0  0  0
  1  2  2  0
  2 21  1  0
  2  3  1  0
  3  4  1  0
  3 22  1  0
  3 23  1  0
  4  5  1  6
  4 13  1  0
  4  6  1  0
  6 11  2  0
  6  7  1  0
  7  8  2  0
  7 24  1  0
  8  9  1  0
  8 25  1  0
  9 10  2  0
  9 26  1  0
 10 27  1  0
 10 11  1  0
 11 12  1  0
 12 28  1  0
 13 14  1  0
 14 15  2  0
 14 21  1  0
 15 29  1  0
 15 16  1  0
 16 17  1  0
 16 18  2  0
 17 30  1  0
 18 31  1  0
 18 19  1  0
 19 21  2  0
 19 20  1  0
 20 32  1  0
M  END
>  <id>  (417) 
520

>  <scaffolds>  (417) 
['c1ccccc1', 'O=C1CC(c2ccccc2)Oc2ccccc21', 'c1ccc(C2CCc3ccccc3O2)cc1', 'O=C(CCc1ccccc1)c1ccccc1']

>  <name>  (417) 
(2S)-5,7,2'-Trihydroxyflavanone

>  <formula>  (417) 
C15H12O5

>  <SMILES>  (417) 
O=C2C[C@@H](c1ccccc1O)Oc3cc(O)cc(O)c23

>  <ChEMBL_id>  (417) 


>  <ZINC_id>  (417) 


>  <PubChem_id>  (417) 


>  <DrugBank_id>  (417) 


>  <CAS_no>  (417) 
111199-94-1

>  <references>  (417) 
[{'journal': {'name': 'Journal of Natural Products', 'id': 5}, 'title': 'Antimycobacterial Flavonoids from the Leaf Extract of Galenia africana', 'year': 2009, 'start_page': 2169, 'volume': 72, 'issue': 12, 'doi': '10.1021/np800778b', 'isbn': '', 'despositor': {'code': 'NFA', 'first_name': 'Ngonidzashe', 'last_name': 'Faya', 'id': 21}, 'refauthors_set': [{'author': {'first_name': 'Sannah', 'initials': 'SPN', 'last_name': 'Mativandlela', 'id': 717}, 'first_author': True, 'id': 1045}, {'author': {'first_name': 'Tshilidzi', 'initials': 'T', 'last_name': 'Muthivhi', 'id': 562}, 'first_author': None, 'id': 1126}, {'author': {'first_name': 'Haruhisa', 'initials': 'H', 'last_name': 'Kikuchi', 'id': 718}, 'first_author': None, 'id': 1127}, {'author': {'first_name': 'Yoshiteru', 'initials': 'Y', 'last_name': 'Oshima', 'id': 719}, 'first_author': None, 'id': 1128}, {'author': {'first_name': 'Chris', 'initials': 'C', 'last_name': 'Hamilton', 'id': 720}, 'first_author': None, 'id': 1129}, {'author': {'first_name': 'Ahmed', 'initials': 'AA', 'last_name': 'Hussein', 'id': 440}, 'first_author': None, 'id': 1130}, {'author': {'first_name': 'Martha', 'initials': 'ML', 'last_name': 'van der Walt', 'id': 721}, 'first_author': None, 'id': 1131}, {'author': {'first_name': 'Namrita', 'initials': 'N', 'last_name': 'Lall', 'id': 441}, 'first_author': None, 'id': 1132}], 'id': 347}]

>  <classifications>  (417) 
[{'classification': 'Flavonoids', 'id': 776}, {'classification': 'Flavonoids (Classyfire)', 'id': 941}]

>  <molecular_mass>  (417) 
272.25

$$$$
SANC00521_minRM1.pdb
     RDKit          3D

 31 32  0  0  0  0  0  0  0  0999 V2000
   -0.9760   -2.2010   -0.1200 O   0  0  0  0  0  0  0  0  0  0  0  0
   -0.9450   -0.9660   -0.0750 C   0  0  0  0  0  0  0  0  0  0  0  0
    0.3220   -0.2300   -0.0390 C   0  0  0  0  0  0  0  0  0  0  0  0
    1.5100   -0.8460   -0.0370 C   0  0  0  0  0  0  0  0  0  0  0  0
    2.7680   -0.1100   -0.0120 C   0  0  0  0  0  0  0  0  0  0  0  0
    2.7870    1.2850   -0.0070 C   0  0  0  0  0  0  0  0  0  0  0  0
    3.9920    1.9760    0.0050 C   0  0  0  0  0  0  0  0  0  0  0  0
    5.1960    1.2880    0.0200 C   0  0  0  0  0  0  0  0  0  0  0  0
    5.1680   -0.1070    0.0230 C   0  0  0  0  0  0  0  0  0  0  0  0
    6.3210   -0.8320   -0.0390 O   0  0  0  0  0  0  0  0  0  0  0  0
    3.9700   -0.8180    0.0060 C   0  0  0  0  0  0  0  0  0  0  0  0
   -2.2010   -0.2220   -0.0570 C   0  0  0  0  0  0  0  0  0  0  0  0
   -2.2350    1.1740    0.0400 C   0  0  0  0  0  0  0  0  0  0  0  0
   -3.4270    1.8630    0.0400 C   0  0  0  0  0  0  0  0  0  0  0  0
   -4.6250    1.1350   -0.0630 C   0  0  0  0  0  0  0  0  0  0  0  0
   -5.7530    1.8850   -0.0360 O   0  0  0  0  0  0  0  0  0  0  0  0
   -4.6480   -0.2490   -0.1410 C   0  0  0  0  0  0  0  0  0  0  0  0
   -3.4170   -0.9250   -0.1310 C   0  0  0  0  0  0  0  0  0  0  0  0
   -3.4950   -2.2580   -0.2180 O   0  0  0  0  0  0  0  0  0  0  0  0
    0.2510    0.8680   -0.0170 H   0  0  0  0  0  0  0  0  0  0  0  0
    1.5780   -1.9440   -0.0580 H   0  0  0  0  0  0  0  0  0  0  0  0
    1.8440    1.8450   -0.0110 H   0  0  0  0  0  0  0  0  0  0  0  0
    3.9900    3.0710    0.0040 H   0  0  0  0  0  0  0  0  0  0  0  0
    6.1480    1.8250    0.0240 H   0  0  0  0  0  0  0  0  0  0  0  0
    6.8080   -0.6430    0.7760 H   0  0  0  0  0  0  0  0  0  0  0  0
    3.9870   -1.9130   -0.0040 H   0  0  0  0  0  0  0  0  0  0  0  0
   -1.2910    1.7310    0.0990 H   0  0  0  0  0  0  0  0  0  0  0  0
   -3.4520    2.9530    0.1270 H   0  0  0  0  0  0  0  0  0  0  0  0
   -6.4350    1.4250   -0.5490 H   0  0  0  0  0  0  0  0  0  0  0  0
   -5.5820   -0.8140   -0.1930 H   0  0  0  0  0  0  0  0  0  0  0  0
   -2.5980   -2.6650   -0.1490 H   0  0  0  0  0  0  0  0  0  0  0  0
  1  2  2  0
  2 12  1  0
  2  3  1  0
  3  4  2  0
  3 20  1  0
  4 21  1  0
  4  5  1  0
  5  6  2  0
  5 11  1  0
  6 22  1  0
  6  7  1  0
  7 23  1  0
  7  8  2  0
  8  9  1  0
  8 24  1  0
  9 10  1  0
  9 11  2  0
 10 25  1  0
 11 26  1  0
 12 18  2  0
 12 13  1  0
 13 14  2  0
 13 27  1  0
 14 15  1  0
 14 28  1  0
 15 17  2  0
 15 16  1  0
 16 29  1  0
 17 30  1  0
 17 18  1  0
 18 19  1  0
 19 31  1  0
M  END
>  <id>  (418) 
521

>  <scaffolds>  (418) 
['c1ccccc1', 'O=C(C=Cc1ccccc1)c1ccccc1', 'C(=Cc1ccccc1)Cc1ccccc1']

>  <name>  (418) 
(E)-3,2',4'-Trihydroxychalcone

>  <formula>  (418) 
C15H12O4

>  <SMILES>  (418) 
O=C(/C=C/c1cccc(O)c1)c2ccc(O)cc2O

>  <ChEMBL_id>  (418) 


>  <ZINC_id>  (418) 


>  <PubChem_id>  (418) 


>  <DrugBank_id>  (418) 


>  <CAS_no>  (418) 
34000-37-8

>  <references>  (418) 
[{'journal': {'name': 'Journal of Natural Products', 'id': 5}, 'title': 'Antimycobacterial Flavonoids from the Leaf Extract of Galenia africana', 'year': 2009, 'start_page': 2169, 'volume': 72, 'issue': 12, 'doi': '10.1021/np800778b', 'isbn': '', 'despositor': {'code': 'NFA', 'first_name': 'Ngonidzashe', 'last_name': 'Faya', 'id': 21}, 'refauthors_set': [{'author': {'first_name': 'Sannah', 'initials': 'SPN', 'last_name': 'Mativandlela', 'id': 717}, 'first_author': True, 'id': 1045}, {'author': {'first_name': 'Tshilidzi', 'initials': 'T', 'last_name': 'Muthivhi', 'id': 562}, 'first_author': None, 'id': 1126}, {'author': {'first_name': 'Haruhisa', 'initials': 'H', 'last_name': 'Kikuchi', 'id': 718}, 'first_author': None, 'id': 1127}, {'author': {'first_name': 'Yoshiteru', 'initials': 'Y', 'last_name': 'Oshima', 'id': 719}, 'first_author': None, 'id': 1128}, {'author': {'first_name': 'Chris', 'initials': 'C', 'last_name': 'Hamilton', 'id': 720}, 'first_author': None, 'id': 1129}, {'author': {'first_name': 'Ahmed', 'initials': 'AA', 'last_name': 'Hussein', 'id': 440}, 'first_author': None, 'id': 1130}, {'author': {'first_name': 'Martha', 'initials': 'ML', 'last_name': 'van der Walt', 'id': 721}, 'first_author': None, 'id': 1131}, {'author': {'first_name': 'Namrita', 'initials': 'N', 'last_name': 'Lall', 'id': 441}, 'first_author': None, 'id': 1132}], 'id': 347}]

>  <classifications>  (418) 
[{'classification': 'Flavonoids', 'id': 776}, {'classification': 'Linear 1,3-diarylpropanoids (Classyfire)', 'id': 943}]

>  <molecular_mass>  (418) 
256.25

$$$$
SANC00522_minRM1.pdb
     RDKit          3D

 30 31  0  0  0  0  0  0  0  0999 V2000
   -0.5420   -2.2760   -0.0810 O   0  0  0  0  0  0  0  0  0  0  0  0
   -0.5260   -1.0500   -0.0310 C   0  0  0  0  0  0  0  0  0  0  0  0
    0.7480   -0.3130    0.0050 C   0  0  0  0  0  0  0  0  0  0  0  0
    1.9320   -0.9380   -0.0100 C   0  0  0  0  0  0  0  0  0  0  0  0
    3.2020   -0.2180   -0.0150 C   0  0  0  0  0  0  0  0  0  0  0  0
    3.2430    1.1770   -0.0090 C   0  0  0  0  0  0  0  0  0  0  0  0
    4.4610    1.8430   -0.0050 C   0  0  0  0  0  0  0  0  0  0  0  0
    5.6490    1.1240   -0.0060 C   0  0  0  0  0  0  0  0  0  0  0  0
    5.6160   -0.2660   -0.0190 C   0  0  0  0  0  0  0  0  0  0  0  0
    4.4000   -0.9360   -0.0100 C   0  0  0  0  0  0  0  0  0  0  0  0
   -1.7860   -0.2860   -0.0150 C   0  0  0  0  0  0  0  0  0  0  0  0
   -1.7760    1.1130    0.0050 C   0  0  0  0  0  0  0  0  0  0  0  0
   -2.9480    1.8440   -0.0020 C   0  0  0  0  0  0  0  0  0  0  0  0
   -4.1680    1.1610   -0.0060 C   0  0  0  0  0  0  0  0  0  0  0  0
   -5.3310    1.8720    0.0710 O   0  0  0  0  0  0  0  0  0  0  0  0
   -4.2330   -0.2230   -0.0210 C   0  0  0  0  0  0  0  0  0  0  0  0
   -3.0280   -0.9380   -0.0330 C   0  0  0  0  0  0  0  0  0  0  0  0
   -3.1860   -2.2800    0.0190 O   0  0  0  0  0  0  0  0  0  0  0  0
    0.6890    0.7840    0.0450 H   0  0  0  0  0  0  0  0  0  0  0  0
    1.9900   -2.0350   -0.0080 H   0  0  0  0  0  0  0  0  0  0  0  0
    2.3100    1.7510    0.0220 H   0  0  0  0  0  0  0  0  0  0  0  0
    4.4870    2.9370    0.0060 H   0  0  0  0  0  0  0  0  0  0  0  0
    6.6090    1.6490   -0.0060 H   0  0  0  0  0  0  0  0  0  0  0  0
    6.5520   -0.8310   -0.0450 H   0  0  0  0  0  0  0  0  0  0  0  0
    4.3910   -2.0300    0.0200 H   0  0  0  0  0  0  0  0  0  0  0  0
   -0.8190    1.6510    0.0310 H   0  0  0  0  0  0  0  0  0  0  0  0
   -2.9380    2.9380    0.0160 H   0  0  0  0  0  0  0  0  0  0  0  0
   -5.5740    2.0510   -0.8470 H   0  0  0  0  0  0  0  0  0  0  0  0
   -5.1910   -0.7520   -0.0030 H   0  0  0  0  0  0  0  0  0  0  0  0
   -2.6230   -2.6960   -0.6590 H   0  0  0  0  0  0  0  0  0  0  0  0
  1  2  2  0
  2 11  1  0
  2  3  1  0
  3  4  2  0
  3 19  1  0
  4  5  1  0
  4 20  1  0
  5 10  2  0
  5  6  1  0
  6  7  2  0
  6 21  1  0
  7  8  1  0
  7 22  1  0
  8  9  2  0
  8 23  1  0
  9 24  1  0
  9 10  1  0
 10 25  1  0
 11 17  2  0
 11 12  1  0
 12 13  2  0
 12 26  1  0
 13 14  1  0
 13 27  1  0
 14 16  2  0
 14 15  1  0
 15 28  1  0
 16 17  1  0
 16 29  1  0
 17 18  1  0
 18 30  1  0
M  END
>  <id>  (419) 
522

>  <scaffolds>  (419) 
['c1ccccc1', 'O=C(C=Cc1ccccc1)c1ccccc1', 'C(=Cc1ccccc1)Cc1ccccc1']

>  <name>  (419) 
(E)-2',4'-Dihydroxychalcone

>  <formula>  (419) 
C15H12O3

>  <SMILES>  (419) 
O=C(/C=C/c1ccccc1)c2ccc(O)cc2O

>  <ChEMBL_id>  (419) 


>  <ZINC_id>  (419) 


>  <PubChem_id>  (419) 


>  <DrugBank_id>  (419) 


>  <CAS_no>  (419) 
25515-43-9

>  <references>  (419) 
[{'journal': {'name': 'Journal of Natural Products', 'id': 5}, 'title': 'Antimycobacterial Flavonoids from the Leaf Extract of Galenia africana', 'year': 2009, 'start_page': 2169, 'volume': 72, 'issue': 12, 'doi': '10.1021/np800778b', 'isbn': '', 'despositor': {'code': 'NFA', 'first_name': 'Ngonidzashe', 'last_name': 'Faya', 'id': 21}, 'refauthors_set': [{'author': {'first_name': 'Sannah', 'initials': 'SPN', 'last_name': 'Mativandlela', 'id': 717}, 'first_author': True, 'id': 1045}, {'author': {'first_name': 'Tshilidzi', 'initials': 'T', 'last_name': 'Muthivhi', 'id': 562}, 'first_author': None, 'id': 1126}, {'author': {'first_name': 'Haruhisa', 'initials': 'H', 'last_name': 'Kikuchi', 'id': 718}, 'first_author': None, 'id': 1127}, {'author': {'first_name': 'Yoshiteru', 'initials': 'Y', 'last_name': 'Oshima', 'id': 719}, 'first_author': None, 'id': 1128}, {'author': {'first_name': 'Chris', 'initials': 'C', 'last_name': 'Hamilton', 'id': 720}, 'first_author': None, 'id': 1129}, {'author': {'first_name': 'Ahmed', 'initials': 'AA', 'last_name': 'Hussein', 'id': 440}, 'first_author': None, 'id': 1130}, {'author': {'first_name': 'Martha', 'initials': 'ML', 'last_name': 'van der Walt', 'id': 721}, 'first_author': None, 'id': 1131}, {'author': {'first_name': 'Namrita', 'initials': 'N', 'last_name': 'Lall', 'id': 441}, 'first_author': None, 'id': 1132}], 'id': 347}]

>  <classifications>  (419) 
[{'classification': 'Flavonoids', 'id': 776}, {'classification': 'Linear 1,3-diarylpropanoids (Classyfire)', 'id': 943}]

>  <molecular_mass>  (419) 
240.25

$$$$
SANC00523_minRM1.pdb
     RDKit          3D

 37 39  0  0  0  0  0  0  0  0999 V2000
   -2.6660    3.2520   -1.0280 C   0  0  0  0  0  0  0  0  0  0  0  0
   -3.0250    2.5660    0.1510 O   0  0  0  0  0  0  0  0  0  0  0  0
   -3.0220    1.2080   -0.0130 C   0  0  0  0  0  0  0  0  0  0  0  0
   -4.2510    0.5270   -0.1200 C   0  0  0  0  0  0  0  0  0  0  0  0
   -5.4380    1.1600   -0.1660 O   0  0  0  0  0  0  0  0  0  0  0  0
   -4.3080   -0.8640   -0.1800 C   0  0  0  0  0  0  0  0  0  0  0  0
   -3.1070   -1.5790   -0.1330 C   0  0  0  0  0  0  0  0  0  0  0  0
   -3.2130   -2.9100   -0.2150 O   0  0  0  0  0  0  0  0  0  0  0  0
   -1.8650   -0.9240   -0.0200 C   0  0  0  0  0  0  0  0  0  0  0  0
   -0.6280   -1.6740   -0.0090 C   0  0  0  0  0  0  0  0  0  0  0  0
   -0.6350   -2.9050   -0.0770 O   0  0  0  0  0  0  0  0  0  0  0  0
    0.6090   -0.8840    0.0870 C   0  0  0  0  0  0  0  0  0  0  0  0
    1.7860   -1.4120   -0.2680 C   0  0  0  0  0  0  0  0  0  0  0  0
    3.0510   -0.6940   -0.1760 C   0  0  0  0  0  0  0  0  0  0  0  0
    3.4610   -0.1400    1.0320 C   0  0  0  0  0  0  0  0  0  0  0  0
    4.6910    0.4990    1.1240 C   0  0  0  0  0  0  0  0  0  0  0  0
    5.4960    0.5780   -0.0130 C   0  0  0  0  0  0  0  0  0  0  0  0
    6.6990    1.2000   -0.0240 O   0  0  0  0  0  0  0  0  0  0  0  0
    5.0920    0.0310   -1.2360 C   0  0  0  0  0  0  0  0  0  0  0  0
    3.8690   -0.6130   -1.3050 C   0  0  0  0  0  0  0  0  0  0  0  0
    0.4380    0.4970    0.6210 C   0  0  0  0  0  0  0  0  0  0  0  0
   -0.6850    1.1760    0.0920 O   0  0  0  0  0  0  0  0  0  0  0  0
   -1.8420    0.4730    0.0430 C   0  0  0  0  0  0  0  0  0  0  0  0
   -1.6700    2.9850   -1.4140 H   0  0  0  0  0  0  0  0  0  0  0  0
   -3.3950    3.1080   -1.8440 H   0  0  0  0  0  0  0  0  0  0  0  0
   -2.6600    4.3120   -0.7340 H   0  0  0  0  0  0  0  0  0  0  0  0
   -5.3090    2.1140   -0.1050 H   0  0  0  0  0  0  0  0  0  0  0  0
   -5.2660   -1.3850   -0.2600 H   0  0  0  0  0  0  0  0  0  0  0  0
   -2.3330   -3.3400   -0.1160 H   0  0  0  0  0  0  0  0  0  0  0  0
    1.8550   -2.4420   -0.6510 H   0  0  0  0  0  0  0  0  0  0  0  0
    2.8280   -0.2240    1.9210 H   0  0  0  0  0  0  0  0  0  0  0  0
    5.0130    0.9260    2.0780 H   0  0  0  0  0  0  0  0  0  0  0  0
    7.0150    1.2800    0.8850 H   0  0  0  0  0  0  0  0  0  0  0  0
    5.7430    0.1010   -2.1120 H   0  0  0  0  0  0  0  0  0  0  0  0
    3.5440   -1.0620   -2.2490 H   0  0  0  0  0  0  0  0  0  0  0  0
    0.3700    0.4740    1.7320 H   0  0  0  0  0  0  0  0  0  0  0  0
    1.2660    1.1870    0.3440 H   0  0  0  0  0  0  0  0  0  0  0  0
  1 25  1  0
  1 24  1  0
  1 26  1  0
  1  2  1  0
  2  3  1  0
  3  4  2  0
  3 23  1  0
  4  6  1  0
  4  5  1  0
  5 27  1  0
  6 28  1  0
  6  7  2  0
  7  8  1  0
  7  9  1  0
  8 29  1  0
  9 10  1  0
  9 23  2  0
 10 11  2  0
 10 12  1  0
 12 13  2  0
 12 21  1  0
 13 30  1  0
 13 14  1  0
 14 20  2  0
 14 15  1  0
 15 16  2  0
 15 31  1  0
 16 17  1  0
 16 32  1  0
 17 19  2  0
 17 18  1  0
 18 33  1  0
 19 34  1  0
 19 20  1  0
 20 35  1  0
 21 22  1  0
 21 37  1  0
 21 36  1  0
 22 23  1  0
M  END
>  <id>  (420) 
523

>  <scaffolds>  (420) 
['c1ccccc1', 'O=C1C(=Cc2ccccc2)COc2ccccc21', 'O=C(C=Cc1ccccc1)c1ccccc1', 'C(=Cc1ccccc1)Cc1ccccc1']

>  <name>  (420) 
Punctatin

>  <formula>  (420) 
C17H14O6

>  <SMILES>  (420) 
COc2c(O)cc(O)c3C(=O)/C(=C/c1ccc(O)cc1)COc23

>  <ChEMBL_id>  (420) 


>  <ZINC_id>  (420) 


>  <PubChem_id>  (420) 


>  <DrugBank_id>  (420) 


>  <CAS_no>  (420) 
34818-82-1

>  <references>  (420) 
[{'journal': {'name': 'South African Journal of Botany', 'id': 1}, 'title': 'Homoisoflavanones and spirocyclic nortriterpenoids from three Eucomis species: E. comosa, E. schiffii and E. pallidiflora subsp. pole-evansii (Hyacinthaceae)', 'year': 2006, 'start_page': 428, 'volume': 72, 'issue': None, 'doi': '10.1016/j.sajb.2005.12.006', 'isbn': '', 'despositor': {'code': 'rah', 'first_name': 'Rowan', 'last_name': 'Hatherley', 'id': 20}, 'refauthors_set': [{'author': {'first_name': 'Chantal', 'initials': 'C', 'last_name': 'Koorbanally', 'id': 523}, 'first_author': True, 'id': 1034}, {'author': {'first_name': 'Neil', 'initials': 'NR', 'last_name': 'Crouch', 'id': 524}, 'first_author': None, 'id': 1035}, {'author': {'first_name': 'Angela', 'initials': 'A', 'last_name': 'Langlois', 'id': 712}, 'first_author': None, 'id': 1036}, {'author': {'first_name': 'Karen', 'initials': 'K', 'last_name': 'Du Toit', 'id': 713}, 'first_author': None, 'id': 1037}, {'author': {'first_name': 'Dulcie', 'initials': 'DA', 'last_name': 'Mulholland', 'id': 525}, 'first_author': None, 'id': 1038}, {'author': {'first_name': 'Siegfried', 'initials': 'SE', 'last_name': 'Drewes', 'id': 613}, 'first_author': None, 'id': 1039}], 'id': 344}]

>  <classifications>  (420) 
[{'classification': 'Flavonoids', 'id': 776}, {'classification': 'Homoisoflavonoid', 'id': 783}, {'classification': 'Homoisoflavonoids (Classyfire)', 'id': 964}]

>  <molecular_mass>  (420) 
314.29

$$$$
SANC00524_minRM1.pdb
     RDKit          3D

104111  0  0  1  0  0  0  0  0999 V2000
   -2.7590    5.8090   -0.3280 C   0  0  0  0  0  0  0  0  0  0  0  0
   -3.1520    4.3850   -0.1890 C   0  0  0  0  0  0  0  0  0  0  0  0
   -2.3620    3.4250    0.2990 C   0  0  0  0  0  0  0  0  0  0  0  0
   -1.0380    3.6480    0.8540 C   0  0  0  0  0  0  0  0  0  0  0  0
   -0.7190    4.5780    1.8100 C   0  0  0  0  0  0  0  0  0  0  0  0
   -1.7390    5.3400    2.5730 C   0  0  0  0  0  0  0  0  0  0  0  0
    0.6400    4.7880    2.1440 C   0  0  0  0  0  0  0  0  0  0  0  0
    1.6260    4.0480    1.5340 C   0  0  0  0  0  0  0  0  0  0  0  0
    2.9060    4.3970    1.8210 O   0  0  0  0  0  0  0  0  0  0  0  0
    1.3150    3.0080    0.6090 C   0  0  0  0  0  0  0  0  0  0  0  0
    2.2720    2.1800   -0.0500 C   0  0  0  0  0  0  0  0  0  0  0  0
    3.5650    2.5270    0.2310 O   0  0  0  0  0  0  0  0  0  0  0  0
    4.5950    1.9250   -0.5040 C   0  0  2  0  0  0  0  0  0  0  0  0
    4.4160    1.9370   -1.6170 H   0  0  0  0  0  0  0  0  0  0  0  0
    4.6730    0.6320    0.0420 O   0  0  0  0  0  0  0  0  0  0  0  0
    5.7060   -0.1410   -0.5160 C   0  0  2  0  0  0  0  0  0  0  0  0
    5.5720   -0.2730   -1.6240 H   0  0  0  0  0  0  0  0  0  0  0  0
    5.6180   -1.4980    0.2110 C   0  0  0  0  0  0  0  0  0  0  0  0
    4.4240   -2.0900   -0.2530 O   0  0  0  0  0  0  0  0  0  0  0  0
    4.1460   -3.3300    0.3300 C   0  0  2  0  0  0  0  0  0  0  0  0
    4.2320   -3.3230    1.4550 H   0  0  0  0  0  0  0  0  0  0  0  0
    5.0820   -4.1990   -0.2660 O   0  0  0  0  0  0  0  0  0  0  0  0
    4.9250   -5.5280    0.1410 C   0  0  0  0  0  0  0  0  0  0  0  0
    3.5450   -6.0500   -0.3080 C   0  0  1  0  0  0  0  0  0  0  0  0
    3.4700   -6.0420   -1.4300 H   0  0  0  0  0  0  0  0  0  0  0  0
    3.3180   -7.3180    0.2300 O   0  0  0  0  0  0  0  0  0  0  0  0
    2.4300   -5.1580    0.3010 C   0  0  2  0  0  0  0  0  0  0  0  0
    2.4160   -5.2470    1.4220 H   0  0  0  0  0  0  0  0  0  0  0  0
    1.2100   -5.5080   -0.2700 O   0  0  0  0  0  0  0  0  0  0  0  0
    2.6990   -3.6930   -0.1220 C   0  0  1  0  0  0  0  0  0  0  0  0
    2.5840   -3.5730   -1.2340 H   0  0  0  0  0  0  0  0  0  0  0  0
    1.7980   -2.9170    0.6020 O   0  0  0  0  0  0  0  0  0  0  0  0
    7.0750    0.5190   -0.1980 C   0  0  1  0  0  0  0  0  0  0  0  0
    7.2640    0.5120    0.9110 H   0  0  0  0  0  0  0  0  0  0  0  0
    8.0140   -0.2400   -0.8930 O   0  0  0  0  0  0  0  0  0  0  0  0
    7.0820    1.9770   -0.7270 C   0  0  2  0  0  0  0  0  0  0  0  0
    7.0320    1.9910   -1.8510 H   0  0  0  0  0  0  0  0  0  0  0  0
    8.2760    2.5230   -0.2580 O   0  0  0  0  0  0  0  0  0  0  0  0
    5.8720    2.7260   -0.1170 C   0  0  1  0  0  0  0  0  0  0  0  0
    5.9760    2.7980    1.0000 H   0  0  0  0  0  0  0  0  0  0  0  0
    5.8540    3.9740   -0.7320 O   0  0  0  0  0  0  0  0  0  0  0  0
    1.8930    1.1470   -0.8710 C   0  0  0  0  0  0  0  0  0  0  0  0
    0.5230    0.8690   -1.0620 C   0  0  0  0  0  0  0  0  0  0  0  0
   -0.4160    1.6630   -0.4520 C   0  0  0  0  0  0  0  0  0  0  0  0
   -1.7240    1.3150   -0.6470 O   0  0  0  0  0  0  0  0  0  0  0  0
   -2.6880    1.9490    0.1780 C   0  0  1  0  0  0  0  0  0  0  0  0
   -2.5470    1.4390    1.4590 O   0  0  0  0  0  0  0  0  0  0  0  0
   -4.0170    1.6160   -0.4600 C   0  0  0  0  0  0  0  0  0  0  0  0
   -4.4200    0.3030   -0.6770 C   0  0  0  0  0  0  0  0  0  0  0  0
   -3.5220   -0.6550   -0.2830 O   0  0  0  0  0  0  0  0  0  0  0  0
   -3.8530   -2.0020   -0.4920 C   0  0  2  0  0  0  0  0  0  0  0  0
   -4.1470   -2.2220   -1.5570 H   0  0  0  0  0  0  0  0  0  0  0  0
   -4.8740   -2.2490    0.4410 O   0  0  0  0  0  0  0  0  0  0  0  0
   -5.3260   -3.5810    0.4140 C   0  0  2  0  0  0  0  0  0  0  0  0
   -5.7030   -3.8720   -0.6050 H   0  0  0  0  0  0  0  0  0  0  0  0
   -6.4750   -3.6250    1.4430 C   0  0  0  0  0  0  0  0  0  0  0  0
   -7.5320   -2.9350    0.8390 O   0  0  0  0  0  0  0  0  0  0  0  0
   -4.1690   -4.5140    0.8550 C   0  0  1  0  0  0  0  0  0  0  0  0
   -3.8700   -4.2960    1.9170 H   0  0  0  0  0  0  0  0  0  0  0  0
   -4.6670   -5.8070    0.7100 O   0  0  0  0  0  0  0  0  0  0  0  0
   -2.9590   -4.3000   -0.0940 C   0  0  2  0  0  0  0  0  0  0  0  0
   -3.2120   -4.6370   -1.1370 H   0  0  0  0  0  0  0  0  0  0  0  0
   -1.9340   -5.0700    0.4490 O   0  0  0  0  0  0  0  0  0  0  0  0
   -2.5810   -2.7980   -0.0830 C   0  0  1  0  0  0  0  0  0  0  0  0
   -2.2220   -2.4910    0.9370 H   0  0  0  0  0  0  0  0  0  0  0  0
   -1.6100   -2.6450   -1.0680 O   0  0  0  0  0  0  0  0  0  0  0  0
   -5.6670    0.0070   -1.2590 C   0  0  0  0  0  0  0  0  0  0  0  0
   -6.5110    1.0260   -1.6270 C   0  0  0  0  0  0  0  0  0  0  0  0
   -6.1170    2.3610   -1.4100 C   0  0  0  0  0  0  0  0  0  0  0  0
   -7.0100    3.2840   -1.7990 O   0  0  0  0  0  0  0  0  0  0  0  0
   -4.8750    2.6550   -0.8410 C   0  0  0  0  0  0  0  0  0  0  0  0
   -4.5010    4.0570   -0.6700 C   0  0  0  0  0  0  0  0  0  0  0  0
   -5.3200    4.9410   -0.9320 O   0  0  0  0  0  0  0  0  0  0  0  0
   -0.0380    2.7820    0.3380 C   0  0  0  0  0  0  0  0  0  0  0  0
   -3.3700    6.4680    0.3110 H   0  0  0  0  0  0  0  0  0  0  0  0
   -1.7040    6.0080   -0.0950 H   0  0  0  0  0  0  0  0  0  0  0  0
   -2.9190    6.1510   -1.3640 H   0  0  0  0  0  0  0  0  0  0  0  0
   -1.6670    5.1010    3.6470 H   0  0  0  0  0  0  0  0  0  0  0  0
   -1.6040    6.4300    2.4780 H   0  0  0  0  0  0  0  0  0  0  0  0
   -2.7750    5.1150    2.2870 H   0  0  0  0  0  0  0  0  0  0  0  0
    0.9010    5.5580    2.8780 H   0  0  0  0  0  0  0  0  0  0  0  0
    3.3730    3.6010    2.1050 H   0  0  0  0  0  0  0  0  0  0  0  0
    6.5110   -2.1180   -0.0320 H   0  0  0  0  0  0  0  0  0  0  0  0
    5.6060   -1.3650    1.3180 H   0  0  0  0  0  0  0  0  0  0  0  0
    5.7580   -6.0620   -0.3630 H   0  0  0  0  0  0  0  0  0  0  0  0
    5.0750   -5.6620    1.2360 H   0  0  0  0  0  0  0  0  0  0  0  0
    3.8700   -7.9400   -0.2530 H   0  0  0  0  0  0  0  0  0  0  0  0
    0.9530   -6.3580    0.1040 H   0  0  0  0  0  0  0  0  0  0  0  0
    1.8500   -2.0200    0.2550 H   0  0  0  0  0  0  0  0  0  0  0  0
    8.8870    0.1090   -0.6820 H   0  0  0  0  0  0  0  0  0  0  0  0
    8.3420    3.4220   -0.5970 H   0  0  0  0  0  0  0  0  0  0  0  0
    5.1800    4.5060   -0.2940 H   0  0  0  0  0  0  0  0  0  0  0  0
    2.6090    0.4930   -1.3740 H   0  0  0  0  0  0  0  0  0  0  0  0
    0.2300    0.0300   -1.6990 H   0  0  0  0  0  0  0  0  0  0  0  0
   -2.7490    0.4980    1.4840 H   0  0  0  0  0  0  0  0  0  0  0  0
   -6.7630   -4.6830    1.6500 H   0  0  0  0  0  0  0  0  0  0  0  0
   -6.1600   -3.1880    2.4180 H   0  0  0  0  0  0  0  0  0  0  0  0
   -8.1340   -2.6660    1.5380 H   0  0  0  0  0  0  0  0  0  0  0  0
   -3.9760   -6.4200    0.9840 H   0  0  0  0  0  0  0  0  0  0  0  0
   -1.1370   -4.9060   -0.0690 H   0  0  0  0  0  0  0  0  0  0  0  0
   -1.2240   -1.7690   -0.9550 H   0  0  0  0  0  0  0  0  0  0  0  0
   -6.0070   -1.0220   -1.4170 H   0  0  0  0  0  0  0  0  0  0  0  0
   -7.4860    0.8140   -2.0780 H   0  0  0  0  0  0  0  0  0  0  0  0
   -6.7060    4.1940   -1.5660 H   0  0  0  0  0  0  0  0  0  0  0  0
  1 77  1  0
  1  2  1  0
  1 76  1  0
  1 75  1  0
  2 72  1  0
  2  3  2  0
  3 46  1  0
  3  4  1  0
  4 74  2  0
  4  5  1  0
  5  7  2  0
  5  6  1  0
  6 80  1  0
  6 79  1  0
  6 78  1  0
  7  8  1  0
  7 81  1  0
  8 10  2  0
  8  9  1  0
  9 82  1  0
 10 11  1  0
 10 74  1  0
 11 42  2  0
 11 12  1  0
 12 13  1  0
 13 14  1  6
 13 39  1  0
 13 15  1  0
 15 16  1  0
 16 17  1  6
 16 33  1  0
 16 18  1  0
 18 19  1  0
 18 83  1  0
 18 84  1  0
 19 20  1  0
 20 22  1  0
 20 30  1  0
 20 21  1  1
 22 23  1  0
 23 85  1  0
 23 24  1  0
 23 86  1  0
 24 25  1  6
 24 26  1  0
 24 27  1  0
 26 87  1  0
 27 29  1  0
 27 30  1  0
 27 28  1  1
 29 88  1  0
 30 31  1  6
 30 32  1  0
 32 89  1  0
 33 35  1  0
 33 36  1  0
 33 34  1  1
 35 90  1  0
 36 37  1  6
 36 38  1  0
 36 39  1  0
 38 91  1  0
 39 41  1  0
 39 40  1  1
 41 92  1  0
 42 93  1  0
 42 43  1  0
 43 94  1  0
 43 44  2  0
 44 45  1  0
 44 74  1  0
 45 46  1  0
 46 48  1  0
 46 47  1  1
 47 95  1  0
 48 71  2  0
 48 49  1  0
 49 67  2  0
 49 50  1  0
 50 51  1  0
 51 52  1  6
 51 64  1  0
 51 53  1  0
 53 54  1  0
 54 55  1  6
 54 58  1  0
 54 56  1  0
 56 57  1  0
 56 96  1  0
 56 97  1  0
 57 98  1  0
 58 61  1  0
 58 60  1  0
 58 59  1  1
 60 99  1  0
 61 62  1  6
 61 64  1  0
 61 63  1  0
 63100  1  0
 64 66  1  0
 64 65  1  1
 66101  1  0
 67 68  1  0
 67102  1  0
 68103  1  0
 68 69  2  0
 69 70  1  0
 69 71  1  0
 70104  1  0
 71 72  1  0
 72 73  2  0
M  END
>  <id>  (421) 
524

>  <scaffolds>  (421) 
['c1ccccc1', 'c1ccc(CCc2ccccc2)cc1', 'O=C(C=Cc1ccccc1)c1ccccc1', 'C(=Cc1ccccc1)Cc1ccccc1', 'C1CCOCC1', 'c1ccc(OC2CCCCO2)cc1', 'c1ccc2ccccc2c1', 'O=C1C=C2c3cccc4c(OC5CCCC(COC6CCCCO6)O5)ccc(c34)OC2c2c(OC3CCCCO3)cccc21']

>  <name>  (421) 
1',2-binaphthalen-4-one-2',3-dimethyl-1,8'-epoxy-1,4',5,5',8,8'-hexahydroxy-8-O-[beta]-glucopyranosyl-5'-O-[beta]-xylopyranosyl(1[to]6)-[beta]-glucopyranoside

>  <formula>  (421) 
C39H44O21

>  <SMILES>  (421) 
CC6=C3c7c(C)cc(O)c8c(O[C@@H]2O[C@H](CO[C@@H]1OC[C@@H](O)[C@H](O)[C@H]1O)[C@@H](O)[C@H](O)[C@H]2O)ccc(OC3(O)c5c(O[C@@H]4O[C@H](CO)[C@@H](O)[C@H](O)[C@H]4O)ccc(O)c5C6=O)c78

>  <ChEMBL_id>  (421) 


>  <ZINC_id>  (421) 


>  <PubChem_id>  (421) 


>  <DrugBank_id>  (421) 


>  <CAS_no>  (421) 
208656-00-2

>  <references>  (421) 
[{'journal': {'name': 'Journal of Natural Products', 'id': 5}, 'title': 'Binaphthalenone Glycosides from African Chewing Sticks, Diospyros lycioides', 'year': 1998, 'start_page': 817, 'volume': 61, 'issue': 6, 'doi': '10.1021/np970524l', 'isbn': '', 'despositor': {'code': 'NFA', 'first_name': 'Ngonidzashe', 'last_name': 'Faya', 'id': 21}, 'refauthors_set': [{'author': {'first_name': 'Xing-Cong', 'initials': 'X', 'last_name': 'Li', 'id': 723}, 'first_author': True, 'id': 1133}, {'author': {'first_name': 'Pieter', 'initials': 'P', 'last_name': 'van der Bijl', 'id': 724}, 'first_author': None, 'id': 1134}, {'author': {'first_name': 'Christine', 'initials': 'CD', 'last_name': 'Wu', 'id': 725}, 'first_author': None, 'id': 1135}], 'id': 348}]

>  <classifications>  (421) 
[{'classification': 'Binaphthalenone', 'id': 747}, {'classification': 'Glycoside', 'id': 781}, {'classification': 'Organooxygen compounds (Classyfire)', 'id': 954}]

>  <molecular_mass>  (421) 
848.75

$$$$
SANC00525_minRM1.pdb
     RDKit          3D

 78 82  0  0  1  0  0  0  0  0999 V2000
   -3.0270   -1.1490   -1.0330 H   0  0  0  0  0  0  0  0  0  0  0  0
   -3.4270   -0.6360   -0.1140 C   0  0  2  0  0  0  0  0  0  0  0  0
   -2.9050   -1.3980    1.1000 C   0  0  0  0  0  0  0  0  0  0  0  0
   -1.3960   -1.5880    0.9990 C   0  0  0  0  0  0  0  0  0  0  0  0
   -0.6920   -0.4690    0.3180 C   0  0  0  0  0  0  0  0  0  0  0  0
   -1.2960    0.6050   -0.2070 C   0  0  0  0  0  0  0  0  0  0  0  0
   -0.5270    1.7090   -0.8580 C   0  0  0  0  0  0  0  0  0  0  0  0
    0.9960    1.7400   -0.6460 C   0  0  0  0  0  0  0  0  0  0  0  0
    1.4370    0.7750    0.4380 C   0  0  1  0  0  0  0  0  0  0  0  0
    0.9730    1.2850    1.8050 C   0  0  0  0  0  0  0  0  0  0  0  0
    0.7850   -0.5980    0.1390 C   0  0  2  0  0  0  0  0  0  0  0  0
    1.0010   -1.1430   -1.2770 C   0  0  0  0  0  0  0  0  0  0  0  0
    1.5840   -1.5320    1.0200 C   0  0  0  0  0  0  0  0  0  0  0  0
    1.2430   -2.6100    1.4510 O   0  0  0  0  0  0  0  0  0  0  0  0
    2.9630   -0.9490    1.2160 C   0  0  0  0  0  0  0  0  0  0  0  0
    2.9460    0.4540    0.5580 C   0  0  1  0  0  0  0  0  0  0  0  0
    3.5060    0.3830   -0.7350 O   0  0  0  0  0  0  0  0  0  0  0  0
    4.8950    0.6050   -0.6750 C   0  0  2  0  0  0  0  0  0  0  0  0
    5.1100    1.4360   -1.3980 H   0  0  0  0  0  0  0  0  0  0  0  0
    5.6370   -0.6420   -1.1320 C   0  0  0  0  0  0  0  0  0  0  0  0
    5.0640   -1.6850   -1.3630 O   0  0  0  0  0  0  0  0  0  0  0  0
    7.1230   -0.4630   -1.3080 C   0  0  0  0  0  0  0  0  0  0  0  0
    7.8510   -1.7940   -1.3560 C   0  0  0  0  0  0  0  0  0  0  0  0
    5.2440    0.9770    0.7740 C   0  0  0  0  0  0  0  0  0  0  0  0
    3.8810    1.4150    1.3300 C   0  0  1  0  0  0  0  0  0  0  0  0
    3.8130    1.2710    2.4330 H   0  0  0  0  0  0  0  0  0  0  0  0
    3.6530    2.8810    1.0040 C   0  0  0  0  0  0  0  0  0  0  0  0
   -2.8010    0.7750   -0.1190 C   0  0  2  0  0  0  0  0  0  0  0  0
   -3.0520    1.5770    1.1570 C   0  0  0  0  0  0  0  0  0  0  0  0
   -3.3490    1.5400   -1.3320 C   0  0  0  0  0  0  0  0  0  0  0  0
   -4.8680    1.5510   -1.3680 C   0  0  0  0  0  0  0  0  0  0  0  0
   -5.3960    0.1130   -1.4420 C   0  0  2  0  0  0  0  0  0  0  0  0
   -4.9950   -0.3730   -2.3770 H   0  0  0  0  0  0  0  0  0  0  0  0
   -6.7950    0.1150   -1.4620 O   0  0  0  0  0  0  0  0  0  0  0  0
   -4.9650   -0.7190   -0.2150 C   0  0  1  0  0  0  0  0  0  0  0  0
   -5.3490   -2.1810   -0.4780 C   0  0  0  0  0  0  0  0  0  0  0  0
   -5.6620   -0.2600    1.0830 C   0  0  0  0  0  0  0  0  0  0  0  0
   -6.9810   -0.6900    1.1890 O   0  0  0  0  0  0  0  0  0  0  0  0
   -3.1720   -0.8890    2.0510 H   0  0  0  0  0  0  0  0  0  0  0  0
   -3.3980   -2.3920    1.1900 H   0  0  0  0  0  0  0  0  0  0  0  0
   -0.9810   -1.7370    2.0210 H   0  0  0  0  0  0  0  0  0  0  0  0
   -1.1650   -2.5320    0.4540 H   0  0  0  0  0  0  0  0  0  0  0  0
   -0.7250    1.6800   -1.9530 H   0  0  0  0  0  0  0  0  0  0  0  0
   -0.9360    2.6850   -0.5200 H   0  0  0  0  0  0  0  0  0  0  0  0
    1.5250    1.5380   -1.6000 H   0  0  0  0  0  0  0  0  0  0  0  0
    1.3030    2.7810   -0.4090 H   0  0  0  0  0  0  0  0  0  0  0  0
   -0.1160    1.4270    1.8680 H   0  0  0  0  0  0  0  0  0  0  0  0
    1.2360    0.6030    2.6280 H   0  0  0  0  0  0  0  0  0  0  0  0
    1.4070    2.2680    2.0550 H   0  0  0  0  0  0  0  0  0  0  0  0
    2.0530   -1.3210   -1.5340 H   0  0  0  0  0  0  0  0  0  0  0  0
    0.4910   -2.1130   -1.3960 H   0  0  0  0  0  0  0  0  0  0  0  0
    0.5920   -0.4890   -2.0590 H   0  0  0  0  0  0  0  0  0  0  0  0
    3.2240   -0.9200    2.2920 H   0  0  0  0  0  0  0  0  0  0  0  0
    3.7200   -1.6250    0.7660 H   0  0  0  0  0  0  0  0  0  0  0  0
    7.3010    0.1170   -2.2390 H   0  0  0  0  0  0  0  0  0  0  0  0
    7.5360    0.1720   -0.4960 H   0  0  0  0  0  0  0  0  0  0  0  0
    8.9330   -1.6570   -1.4980 H   0  0  0  0  0  0  0  0  0  0  0  0
    7.7180   -2.3710   -0.4290 H   0  0  0  0  0  0  0  0  0  0  0  0
    7.4970   -2.4330   -2.1770 H   0  0  0  0  0  0  0  0  0  0  0  0
    5.6570    0.1160    1.3380 H   0  0  0  0  0  0  0  0  0  0  0  0
    6.0230    1.7580    0.8400 H   0  0  0  0  0  0  0  0  0  0  0  0
    3.6630    3.0850   -0.0750 H   0  0  0  0  0  0  0  0  0  0  0  0
    2.6910    3.2450    1.4010 H   0  0  0  0  0  0  0  0  0  0  0  0
    4.4270    3.5210    1.4540 H   0  0  0  0  0  0  0  0  0  0  0  0
   -2.6930    2.6130    1.0780 H   0  0  0  0  0  0  0  0  0  0  0  0
   -4.1130    1.6450    1.4320 H   0  0  0  0  0  0  0  0  0  0  0  0
   -2.5340    1.1510    2.0290 H   0  0  0  0  0  0  0  0  0  0  0  0
   -2.9910    2.5910   -1.3490 H   0  0  0  0  0  0  0  0  0  0  0  0
   -2.9590    1.0930   -2.2720 H   0  0  0  0  0  0  0  0  0  0  0  0
   -5.3010    2.1000   -0.5070 H   0  0  0  0  0  0  0  0  0  0  0  0
   -5.2180    2.1340   -2.2480 H   0  0  0  0  0  0  0  0  0  0  0  0
   -7.0790    0.5580   -2.2660 H   0  0  0  0  0  0  0  0  0  0  0  0
   -4.8420   -2.6060   -1.3560 H   0  0  0  0  0  0  0  0  0  0  0  0
   -5.0980   -2.8290    0.3760 H   0  0  0  0  0  0  0  0  0  0  0  0
   -6.4270   -2.3080   -0.6560 H   0  0  0  0  0  0  0  0  0  0  0  0
   -5.1880   -0.7150    1.9800 H   0  0  0  0  0  0  0  0  0  0  0  0
   -5.5720    0.8430    1.2170 H   0  0  0  0  0  0  0  0  0  0  0  0
   -7.5160   -0.2070    0.5560 H   0  0  0  0  0  0  0  0  0  0  0  0
  2  1  1  6
  2 35  1  0
  2 28  1  0
  2  3  1  0
  3  4  1  0
  3 40  1  0
  3 39  1  0
  4  5  1  0
  4 42  1  0
  4 41  1  0
  5  6  2  0
  5 11  1  0
  6  7  1  0
  6 28  1  0
  7 43  1  0
  7  8  1  0
  7 44  1  0
  8 45  1  0
  8 46  1  0
  8  9  1  0
  9 11  1  0
  9 16  1  0
  9 10  1  1
 10 47  1  0
 10 49  1  0
 10 48  1  0
 11 12  1  6
 11 13  1  0
 12 52  1  0
 12 50  1  0
 12 51  1  0
 13 15  1  0
 13 14  2  0
 15 16  1  0
 15 54  1  0
 15 53  1  0
 16 17  1  6
 16 25  1  0
 17 18  1  0
 18 19  1  6
 18 20  1  0
 18 24  1  0
 20 21  2  0
 20 22  1  0
 22 55  1  0
 22 23  1  0
 22 56  1  0
 23 59  1  0
 23 57  1  0
 23 58  1  0
 24 61  1  0
 24 25  1  0
 24 60  1  0
 25 27  1  0
 25 26  1  1
 27 62  1  0
 27 63  1  0
 27 64  1  0
 28 30  1  0
 28 29  1  1
 29 65  1  0
 29 66  1  0
 29 67  1  0
 30 69  1  0
 30 31  1  0
 30 68  1  0
 31 71  1  0
 31 32  1  0
 31 70  1  0
 32 33  1  6
 32 34  1  0
 32 35  1  0
 34 72  1  0
 35 36  1  6
 35 37  1  0
 36 73  1  0
 36 75  1  0
 36 74  1  0
 37 38  1  0
 37 77  1  0
 37 76  1  0
 38 78  1  0
M  END
>  <id>  (422) 
525

>  <scaffolds>  (422) 
['C1=CC2CCCCC2CC1', 'C1=CCCCC1', 'C1CCCCC1', 'C1CCC2C3=C(CCC2C1)C1CCC2(CCCO2)C1CC3', 'C1CCC2C3=C(CCC2C1)C1CCCC1CC3', 'O=C1CC2(CCCO2)C2CCC3=C(CCC4CCCCC34)C12']

>  <name>  (422) 
Eucosterol

>  <formula>  (422) 
C29H44O5

>  <SMILES>  (422) 
[H][C@@]45CCC1=C(CC[C@@]2(C)[C@@]1(C)C(=O)C[C@@]23O[C@H](C(=O)CC)C[C@H]3C)[C@@]4(C)CC[C@H](O)[C@]5(C)CO

>  <ChEMBL_id>  (422) 


>  <ZINC_id>  (422) 


>  <PubChem_id>  (422) 


>  <DrugBank_id>  (422) 


>  <CAS_no>  (422) 
57092-34-9

>  <references>  (422) 
[{'journal': {'name': 'South African Journal of Botany', 'id': 1}, 'title': 'Homoisoflavanones and spirocyclic nortriterpenoids from three Eucomis species: E. comosa, E. schiffii and E. pallidiflora subsp. pole-evansii (Hyacinthaceae)', 'year': 2006, 'start_page': 428, 'volume': 72, 'issue': None, 'doi': '10.1016/j.sajb.2005.12.006', 'isbn': '', 'despositor': {'code': 'rah', 'first_name': 'Rowan', 'last_name': 'Hatherley', 'id': 20}, 'refauthors_set': [{'author': {'first_name': 'Chantal', 'initials': 'C', 'last_name': 'Koorbanally', 'id': 523}, 'first_author': True, 'id': 1034}, {'author': {'first_name': 'Neil', 'initials': 'NR', 'last_name': 'Crouch', 'id': 524}, 'first_author': None, 'id': 1035}, {'author': {'first_name': 'Angela', 'initials': 'A', 'last_name': 'Langlois', 'id': 712}, 'first_author': None, 'id': 1036}, {'author': {'first_name': 'Karen', 'initials': 'K', 'last_name': 'Du Toit', 'id': 713}, 'first_author': None, 'id': 1037}, {'author': {'first_name': 'Dulcie', 'initials': 'DA', 'last_name': 'Mulholland', 'id': 525}, 'first_author': None, 'id': 1038}, {'author': {'first_name': 'Siegfried', 'initials': 'SE', 'last_name': 'Drewes', 'id': 613}, 'first_author': None, 'id': 1039}], 'id': 344}]

>  <classifications>  (422) 
[{'classification': 'Nortriterpene', 'id': 800}, {'classification': 'Spirocyclic', 'id': 832}, {'classification': 'Terpenoid', 'id': 839}, {'classification': 'Phenol lipids (Classyfire)', 'id': 951}]

>  <molecular_mass>  (422) 
472.65

$$$$
SANC00526_minRM1.pdb
     RDKit          3D

121129  0  0  1  0  0  0  0  0999 V2000
    0.4800   -6.2310   -0.6000 C   0  0  0  0  0  0  0  0  0  0  0  0
    1.0870   -4.8770   -0.5380 C   0  0  0  0  0  0  0  0  0  0  0  0
    0.4940   -3.8020   -0.0120 C   0  0  0  0  0  0  0  0  0  0  0  0
   -0.7880   -3.8240    0.6730 C   0  0  0  0  0  0  0  0  0  0  0  0
   -1.1360   -4.6950    1.6760 C   0  0  0  0  0  0  0  0  0  0  0  0
   -0.1560   -5.5820    2.3500 C   0  0  0  0  0  0  0  0  0  0  0  0
   -2.4660   -4.6970    2.1590 C   0  0  0  0  0  0  0  0  0  0  0  0
   -3.3960   -3.8330    1.6290 C   0  0  0  0  0  0  0  0  0  0  0  0
   -4.6690   -3.9790    2.0770 O   0  0  0  0  0  0  0  0  0  0  0  0
   -3.0390   -2.8640    0.6450 C   0  0  0  0  0  0  0  0  0  0  0  0
   -3.9320   -1.9130    0.0690 C   0  0  0  0  0  0  0  0  0  0  0  0
   -5.2210   -2.0610    0.5050 O   0  0  0  0  0  0  0  0  0  0  0  0
   -6.2320   -1.3430   -0.1550 C   0  0  2  0  0  0  0  0  0  0  0  0
   -6.1680   -1.4030   -1.2780 H   0  0  0  0  0  0  0  0  0  0  0  0
   -6.0780   -0.0420    0.3550 O   0  0  0  0  0  0  0  0  0  0  0  0
   -7.0520    0.8530   -0.1200 C   0  0  2  0  0  0  0  0  0  0  0  0
   -7.0240    0.9420   -1.2410 H   0  0  0  0  0  0  0  0  0  0  0  0
   -6.7070    2.2010    0.5440 C   0  0  0  0  0  0  0  0  0  0  0  0
   -5.4950    2.6070   -0.0540 O   0  0  0  0  0  0  0  0  0  0  0  0
   -4.9830    3.8010    0.4600 C   0  0  2  0  0  0  0  0  0  0  0  0
   -4.9520    3.8220    1.5880 H   0  0  0  0  0  0  0  0  0  0  0  0
   -5.8410    4.7900   -0.0630 O   0  0  0  0  0  0  0  0  0  0  0  0
   -5.4480    6.0870    0.2830 C   0  0  0  0  0  0  0  0  0  0  0  0
   -4.0630    6.3910   -0.3250 C   0  0  1  0  0  0  0  0  0  0  0  0
   -4.1110    6.3500   -1.4470 H   0  0  0  0  0  0  0  0  0  0  0  0
   -3.5970    7.6210    0.1430 O   0  0  0  0  0  0  0  0  0  0  0  0
   -3.0310    5.3550    0.1970 C   0  0  2  0  0  0  0  0  0  0  0  0
   -2.8850    5.4620    1.3080 H   0  0  0  0  0  0  0  0  0  0  0  0
   -1.8410    5.5090   -0.5080 O   0  0  0  0  0  0  0  0  0  0  0  0
   -3.5530    3.9390   -0.1460 C   0  0  1  0  0  0  0  0  0  0  0  0
   -3.5720    3.7810   -1.2580 H   0  0  0  0  0  0  0  0  0  0  0  0
   -2.7030    3.0520    0.5090 O   0  0  0  0  0  0  0  0  0  0  0  0
   -8.4550    0.3940    0.3610 C   0  0  1  0  0  0  0  0  0  0  0  0
   -8.5190    0.4440    1.4830 H   0  0  0  0  0  0  0  0  0  0  0  0
   -9.3540    1.2620   -0.2540 O   0  0  0  0  0  0  0  0  0  0  0  0
   -8.7150   -1.0590   -0.1170 C   0  0  2  0  0  0  0  0  0  0  0  0
   -8.7880   -1.0980   -1.2390 H   0  0  0  0  0  0  0  0  0  0  0  0
   -9.9130   -1.4290    0.4890 O   0  0  0  0  0  0  0  0  0  0  0  0
   -7.5580   -1.9550    0.3860 C   0  0  1  0  0  0  0  0  0  0  0  0
   -7.5520   -1.9940    1.5100 H   0  0  0  0  0  0  0  0  0  0  0  0
   -7.7720   -3.2030   -0.1850 O   0  0  0  0  0  0  0  0  0  0  0  0
   -3.5000   -0.9550   -0.8130 C   0  0  0  0  0  0  0  0  0  0  0  0
   -2.1310   -0.8750   -1.1470 C   0  0  0  0  0  0  0  0  0  0  0  0
   -1.2520   -1.7840   -0.6120 C   0  0  0  0  0  0  0  0  0  0  0  0
    0.0610   -1.6380   -0.9610 O   0  0  0  0  0  0  0  0  0  0  0  0
    1.0070   -2.3910   -0.2190 C   0  0  1  0  0  0  0  0  0  0  0  0
    1.0740   -1.8480    1.0560 O   0  0  0  0  0  0  0  0  0  0  0  0
    2.2990   -2.2690   -0.9930 C   0  0  0  0  0  0  0  0  0  0  0  0
    2.8600   -1.0320   -1.2930 C   0  0  0  0  0  0  0  0  0  0  0  0
    2.1440    0.0540   -0.8650 O   0  0  0  0  0  0  0  0  0  0  0  0
    2.6630    1.3330   -1.1090 C   0  0  2  0  0  0  0  0  0  0  0  0
    2.9250    1.5020   -2.1930 H   0  0  0  0  0  0  0  0  0  0  0  0
    3.7630    1.4290   -0.2400 O   0  0  0  0  0  0  0  0  0  0  0  0
    4.4050    2.6790   -0.2990 C   0  0  2  0  0  0  0  0  0  0  0  0
    4.8050    2.8850   -1.3290 H   0  0  0  0  0  0  0  0  0  0  0  0
    5.5520    2.5800    0.7300 C   0  0  0  0  0  0  0  0  0  0  0  0
    6.4930    1.7180    0.1310 O   0  0  0  0  0  0  0  0  0  0  0  0
    7.7520    1.7040    0.7390 C   0  0  1  0  0  0  0  0  0  0  0  0
    7.5310    1.0940    1.9900 O   0  0  0  0  0  0  0  0  0  0  0  0
    8.7040    0.9940    2.7520 C   0  0  0  0  0  0  0  0  0  0  0  0
    9.7490    0.0990    2.0570 C   0  0  1  0  0  0  0  0  0  0  0  0
   10.7180    0.1420    2.6250 H   0  0  0  0  0  0  0  0  0  0  0  0
    9.4210   -1.2500    2.0740 O   0  0  0  0  0  0  0  0  0  0  0  0
    9.9840    0.5680    0.5960 C   0  0  2  0  0  0  0  0  0  0  0  0
   10.5940   -0.1980    0.0440 H   0  0  0  0  0  0  0  0  0  0  0  0
   10.5870    1.8290    0.6250 O   0  0  0  0  0  0  0  0  0  0  0  0
    8.6340    0.7740   -0.1360 C   0  0  1  0  0  0  0  0  0  0  0  0
    8.7920    1.2420   -1.1450 H   0  0  0  0  0  0  0  0  0  0  0  0
    8.1100   -0.5070   -0.2910 O   0  0  0  0  0  0  0  0  0  0  0  0
    3.4210    3.7970    0.1370 C   0  0  1  0  0  0  0  0  0  0  0  0
    3.1500    3.6790    1.2220 H   0  0  0  0  0  0  0  0  0  0  0  0
    4.1050    4.9880   -0.0990 O   0  0  0  0  0  0  0  0  0  0  0  0
    2.1400    3.7390   -0.7360 C   0  0  2  0  0  0  0  0  0  0  0  0
    2.3770    4.0000   -1.8050 H   0  0  0  0  0  0  0  0  0  0  0  0
    1.2780    4.6740   -0.1720 O   0  0  0  0  0  0  0  0  0  0  0  0
    1.5490    2.3110   -0.6420 C   0  0  1  0  0  0  0  0  0  0  0  0
    1.2280    2.0870    0.4120 H   0  0  0  0  0  0  0  0  0  0  0  0
    0.4970    2.2740   -1.5530 O   0  0  0  0  0  0  0  0  0  0  0  0
    4.0700   -0.9320   -2.0040 C   0  0  0  0  0  0  0  0  0  0  0  0
    4.7140   -2.0680   -2.4310 C   0  0  0  0  0  0  0  0  0  0  0  0
    4.1590   -3.3280   -2.1310 C   0  0  0  0  0  0  0  0  0  0  0  0
    4.8800   -4.3780   -2.5500 O   0  0  0  0  0  0  0  0  0  0  0  0
    2.9530   -3.4270   -1.4300 C   0  0  0  0  0  0  0  0  0  0  0  0
    2.4030   -4.7560   -1.1780 C   0  0  0  0  0  0  0  0  0  0  0  0
    3.0400   -5.7470   -1.5220 O   0  0  0  0  0  0  0  0  0  0  0  0
   -1.7010   -2.8280    0.2410 C   0  0  0  0  0  0  0  0  0  0  0  0
    1.0400   -6.9520    0.0160 H   0  0  0  0  0  0  0  0  0  0  0  0
   -0.5750   -6.2680   -0.2890 H   0  0  0  0  0  0  0  0  0  0  0  0
    0.5010   -6.6220   -1.6310 H   0  0  0  0  0  0  0  0  0  0  0  0
   -0.1270   -5.3770    3.4340 H   0  0  0  0  0  0  0  0  0  0  0  0
   -0.4200   -6.6460    2.2350 H   0  0  0  0  0  0  0  0  0  0  0  0
    0.8800   -5.4630    1.9940 H   0  0  0  0  0  0  0  0  0  0  0  0
   -2.7440   -5.3840    2.9610 H   0  0  0  0  0  0  0  0  0  0  0  0
   -5.0020   -3.0960    2.3030 H   0  0  0  0  0  0  0  0  0  0  0  0
   -7.5250    2.9350    0.3670 H   0  0  0  0  0  0  0  0  0  0  0  0
   -6.6010    2.0910    1.6490 H   0  0  0  0  0  0  0  0  0  0  0  0
   -6.2430    6.7310   -0.1490 H   0  0  0  0  0  0  0  0  0  0  0  0
   -5.4580    6.2600    1.3830 H   0  0  0  0  0  0  0  0  0  0  0  0
   -4.1120    8.3070   -0.2910 H   0  0  0  0  0  0  0  0  0  0  0  0
   -1.4230    6.3160   -0.1860 H   0  0  0  0  0  0  0  0  0  0  0  0
   -2.9230    2.1640    0.2050 H   0  0  0  0  0  0  0  0  0  0  0  0
  -10.2370    1.0370    0.0580 H   0  0  0  0  0  0  0  0  0  0  0  0
  -10.1340   -2.3160    0.1860 H   0  0  0  0  0  0  0  0  0  0  0  0
   -7.1380   -3.8190    0.1960 H   0  0  0  0  0  0  0  0  0  0  0  0
   -4.1690   -0.2150   -1.2610 H   0  0  0  0  0  0  0  0  0  0  0  0
   -1.7950   -0.1020   -1.8440 H   0  0  0  0  0  0  0  0  0  0  0  0
    1.4430   -0.9590    1.0340 H   0  0  0  0  0  0  0  0  0  0  0  0
    5.9740    3.5910    0.9310 H   0  0  0  0  0  0  0  0  0  0  0  0
    5.2010    2.1760    1.7040 H   0  0  0  0  0  0  0  0  0  0  0  0
    8.2040    2.7320    0.8340 H   0  0  0  0  0  0  0  0  0  0  0  0
    9.1400    1.9910    2.9870 H   0  0  0  0  0  0  0  0  0  0  0  0
    8.3560    0.5560    3.7120 H   0  0  0  0  0  0  0  0  0  0  0  0
    8.4860   -1.3400    1.9750 H   0  0  0  0  0  0  0  0  0  0  0  0
   11.5370    1.6850    0.6740 H   0  0  0  0  0  0  0  0  0  0  0  0
    7.1530   -0.4750   -0.2730 H   0  0  0  0  0  0  0  0  0  0  0  0
    3.5330    5.7160    0.1650 H   0  0  0  0  0  0  0  0  0  0  0  0
    0.4300    4.6040   -0.6250 H   0  0  0  0  0  0  0  0  0  0  0  0
    0.0060    1.4620   -1.3840 H   0  0  0  0  0  0  0  0  0  0  0  0
    4.5230    0.0380   -2.2450 H   0  0  0  0  0  0  0  0  0  0  0  0
    5.6550   -2.0080   -2.9890 H   0  0  0  0  0  0  0  0  0  0  0  0
    4.4090   -5.2250   -2.3380 H   0  0  0  0  0  0  0  0  0  0  0  0
  1 89  1  0
  1  2  1  0
  1 88  1  0
  1 87  1  0
  2 84  1  0
  2  3  2  0
  3 46  1  0
  3  4  1  0
  4 86  2  0
  4  5  1  0
  5  7  2  0
  5  6  1  0
  6 92  1  0
  6 91  1  0
  6 90  1  0
  7  8  1  0
  7 93  1  0
  8 10  2  0
  8  9  1  0
  9 94  1  0
 10 11  1  0
 10 86  1  0
 11 42  2  0
 11 12  1  0
 12 13  1  0
 13 14  1  6
 13 15  1  0
 13 39  1  0
 15 16  1  0
 16 17  1  6
 16 33  1  0
 16 18  1  0
 18 19  1  0
 18 95  1  0
 18 96  1  0
 19 20  1  0
 20 30  1  0
 20 22  1  0
 20 21  1  1
 22 23  1  0
 23 24  1  0
 23 97  1  0
 23 98  1  0
 24 25  1  6
 24 26  1  0
 24 27  1  0
 26 99  1  0
 27 29  1  0
 27 30  1  0
 27 28  1  1
 29100  1  0
 30 31  1  6
 30 32  1  0
 32101  1  0
 33 35  1  0
 33 36  1  0
 33 34  1  1
 35102  1  0
 36 37  1  6
 36 39  1  0
 36 38  1  0
 38103  1  0
 39 41  1  0
 39 40  1  1
 41104  1  0
 42105  1  0
 42 43  1  0
 43106  1  0
 43 44  2  0
 44 45  1  0
 44 86  1  0
 45 46  1  0
 46 48  1  0
 46 47  1  1
 47107  1  0
 48 83  2  0
 48 49  1  0
 49 79  2  0
 49 50  1  0
 50 51  1  0
 51 52  1  6
 51 76  1  0
 51 53  1  0
 53 54  1  0
 54 55  1  6
 54 70  1  0
 54 56  1  0
 56 57  1  0
 56108  1  0
 56109  1  0
 57 58  1  0
 58 67  1  0
 58110  1  1
 58 59  1  0
 59 60  1  0
 60 61  1  0
 60111  1  0
 60112  1  0
 61 64  1  0
 61 63  1  0
 61 62  1  1
 63113  1  0
 64 67  1  0
 64 65  1  6
 64 66  1  0
 66114  1  0
 67 68  1  6
 67 69  1  0
 69115  1  0
 70 73  1  0
 70 72  1  0
 70 71  1  1
 72116  1  0
 73 74  1  6
 73 76  1  0
 73 75  1  0
 75117  1  0
 76 78  1  0
 76 77  1  1
 78118  1  0
 79 80  1  0
 79119  1  0
 80120  1  0
 80 81  2  0
 81 82  1  0
 81 83  1  0
 82121  1  0
 83 84  1  0
 84 85  2  0
M  END
>  <id>  (423) 
526

>  <scaffolds>  (423) 
['c1ccccc1', 'c1ccc(CCc2ccccc2)cc1', 'O=C(C=Cc1ccccc1)c1ccccc1', 'C(=Cc1ccccc1)Cc1ccccc1', 'C1CCOCC1', 'c1ccc(OC2CCCCO2)cc1', 'O=C1C=C2c3cccc4c(OC5CCCC(COC6CCCCO6)O5)ccc(c34)OC2c2c(OC3CCCC(COC4CCCCO4)O3)cccc21', 'c1ccc2ccccc2c1', 'O=C1C=C2c3cccc4c(OC5CCCC(COC6CCCCO6)O5)ccc(c34)OC2c2c(OC3CCCCO3)cccc21']

>  <name>  (423) 
1',2-binaphthalen-4-one-2',3-dimethyl-1,8'-epoxy-1,4',5,5',8,8'-hexahydroxy-5',8-di-O-[beta]-xylopyranosyl(1[to]6)-[beta]-glucopyranoside

>  <formula>  (423) 
C44H52O25

>  <SMILES>  (423) 
CC7=C3c8c(C)cc(O)c9c(O[C@@H]2O[C@H](CO[C@@H]1OC[C@@H](O)[C@H](O)[C@H]1O)[C@@H](O)[C@H](O)[C@H]2O)ccc(OC3(O)c6c(O[C@@H]5O[C@H](COC4OC[C@@H](O)[C@H](O)[C@H]4O)[C@@H](O)[C@H](O)[C@H]5O)ccc(O)c6C7=O)c89

>  <ChEMBL_id>  (423) 


>  <ZINC_id>  (423) 


>  <PubChem_id>  (423) 


>  <DrugBank_id>  (423) 


>  <CAS_no>  (423) 
208656-02-4

>  <references>  (423) 
[{'journal': {'name': 'Journal of Natural Products', 'id': 5}, 'title': 'Binaphthalenone Glycosides from African Chewing Sticks, Diospyros lycioides', 'year': 1998, 'start_page': 817, 'volume': 61, 'issue': 6, 'doi': '10.1021/np970524l', 'isbn': '', 'despositor': {'code': 'NFA', 'first_name': 'Ngonidzashe', 'last_name': 'Faya', 'id': 21}, 'refauthors_set': [{'author': {'first_name': 'Xing-Cong', 'initials': 'X', 'last_name': 'Li', 'id': 723}, 'first_author': True, 'id': 1133}, {'author': {'first_name': 'Pieter', 'initials': 'P', 'last_name': 'van der Bijl', 'id': 724}, 'first_author': None, 'id': 1134}, {'author': {'first_name': 'Christine', 'initials': 'CD', 'last_name': 'Wu', 'id': 725}, 'first_author': None, 'id': 1135}], 'id': 348}]

>  <classifications>  (423) 
[{'classification': 'Binaphthalenone', 'id': 747}, {'classification': 'Glycoside', 'id': 781}, {'classification': 'Organooxygen compounds (Classyfire)', 'id': 954}]

>  <molecular_mass>  (423) 
980.87

$$$$
SANC00527_minRM1.pdb
     RDKit          3D

 36 38  0  0  0  0  0  0  0  0999 V2000
    6.4680    1.2490    0.1210 C   0  0  0  0  0  0  0  0  0  0  0  0
    5.1900    1.5360    0.6250 O   0  0  0  0  0  0  0  0  0  0  0  0
    4.2230    0.5900    0.4540 C   0  0  0  0  0  0  0  0  0  0  0  0
    4.3980   -0.6410   -0.1700 C   0  0  0  0  0  0  0  0  0  0  0  0
    3.3090   -1.4970   -0.2810 C   0  0  0  0  0  0  0  0  0  0  0  0
    2.0650   -1.1290    0.2140 C   0  0  0  0  0  0  0  0  0  0  0  0
    0.9450   -2.0510    0.0960 C   0  0  0  0  0  0  0  0  0  0  0  0
   -0.2730   -1.6870   -0.3070 C   0  0  0  0  0  0  0  0  0  0  0  0
   -1.4250   -2.6370   -0.3720 C   0  0  0  0  0  0  0  0  0  0  0  0
   -2.5440   -2.1750    0.3560 O   0  0  0  0  0  0  0  0  0  0  0  0
   -2.8770   -0.8670    0.2060 C   0  0  0  0  0  0  0  0  0  0  0  0
   -4.1390   -0.5070    0.6590 C   0  0  0  0  0  0  0  0  0  0  0  0
   -4.4940    0.8460    0.5560 C   0  0  0  0  0  0  0  0  0  0  0  0
   -5.7270    1.1370    1.0250 O   0  0  0  0  0  0  0  0  0  0  0  0
   -3.6620    1.8120   -0.0110 C   0  0  0  0  0  0  0  0  0  0  0  0
   -2.4110    1.3990   -0.4790 C   0  0  0  0  0  0  0  0  0  0  0  0
   -1.6470    2.3450   -1.0360 O   0  0  0  0  0  0  0  0  0  0  0  0
   -1.9880    0.0640   -0.3480 C   0  0  0  0  0  0  0  0  0  0  0  0
   -0.6450   -0.3290   -0.7250 C   0  0  0  0  0  0  0  0  0  0  0  0
    0.0910    0.4360   -1.3410 O   0  0  0  0  0  0  0  0  0  0  0  0
    1.9090    0.1000    0.8610 C   0  0  0  0  0  0  0  0  0  0  0  0
    2.9800    0.9660    0.9860 C   0  0  0  0  0  0  0  0  0  0  0  0
    7.0460    2.1570    0.3550 H   0  0  0  0  0  0  0  0  0  0  0  0
    6.9500    0.3850    0.6050 H   0  0  0  0  0  0  0  0  0  0  0  0
    6.4800    1.1080   -0.9740 H   0  0  0  0  0  0  0  0  0  0  0  0
    5.3570   -0.9570   -0.5820 H   0  0  0  0  0  0  0  0  0  0  0  0
    3.4370   -2.4660   -0.7700 H   0  0  0  0  0  0  0  0  0  0  0  0
    1.1570   -3.0920    0.3820 H   0  0  0  0  0  0  0  0  0  0  0  0
   -1.7160   -2.8190   -1.4330 H   0  0  0  0  0  0  0  0  0  0  0  0
   -1.2220   -3.6300    0.0850 H   0  0  0  0  0  0  0  0  0  0  0  0
   -4.8290   -1.2430    1.0780 H   0  0  0  0  0  0  0  0  0  0  0  0
   -5.8310    2.0980    1.0690 H   0  0  0  0  0  0  0  0  0  0  0  0
   -3.9610    2.8580   -0.1090 H   0  0  0  0  0  0  0  0  0  0  0  0
   -0.8080    1.9530   -1.3770 H   0  0  0  0  0  0  0  0  0  0  0  0
    0.9400    0.3800    1.2880 H   0  0  0  0  0  0  0  0  0  0  0  0
    2.8610    1.9340    1.4840 H   0  0  0  0  0  0  0  0  0  0  0  0
  1 25  1  0
  1 23  1  0
  1 24  1  0
  1  2  1  0
  2  3  1  0
  3  4  2  0
  3 22  1  0
  4 26  1  0
  4  5  1  0
  5 27  1  0
  5  6  2  0
  6  7  1  0
  6 21  1  0
  7  8  2  0
  7 28  1  0
  8 19  1  0
  8  9  1  0
  9 29  1  0
  9 30  1  0
  9 10  1  0
 10 11  1  0
 11 18  2  0
 11 12  1  0
 12 13  2  0
 12 31  1  0
 13 15  1  0
 13 14  1  0
 14 32  1  0
 15 16  2  0
 15 33  1  0
 16 17  1  0
 16 18  1  0
 17 34  1  0
 18 19  1  0
 19 20  2  0
 21 22  2  0
 21 35  1  0
 22 36  1  0
M  END
>  <id>  (424) 
527

>  <scaffolds>  (424) 
['c1ccccc1', 'O=C1C(=Cc2ccccc2)COc2ccccc21', 'O=C(C=Cc1ccccc1)c1ccccc1', 'C(=Cc1ccccc1)Cc1ccccc1']

>  <name>  (424) 
(Z)-Eucomin

>  <formula>  (424) 
C17H14O5

>  <SMILES>  (424) 
COc3ccc(/C=C\2COc1cc(O)cc(O)c1C2=O)cc3

>  <ChEMBL_id>  (424) 


>  <ZINC_id>  (424) 


>  <PubChem_id>  (424) 


>  <DrugBank_id>  (424) 


>  <CAS_no>  (424) 
61350-54-7

>  <references>  (424) 
[{'journal': {'name': 'South African Journal of Botany', 'id': 1}, 'title': 'Homoisoflavanones and spirocyclic nortriterpenoids from three Eucomis species: E. comosa, E. schiffii and E. pallidiflora subsp. pole-evansii (Hyacinthaceae)', 'year': 2006, 'start_page': 428, 'volume': 72, 'issue': None, 'doi': '10.1016/j.sajb.2005.12.006', 'isbn': '', 'despositor': {'code': 'rah', 'first_name': 'Rowan', 'last_name': 'Hatherley', 'id': 20}, 'refauthors_set': [{'author': {'first_name': 'Chantal', 'initials': 'C', 'last_name': 'Koorbanally', 'id': 523}, 'first_author': True, 'id': 1034}, {'author': {'first_name': 'Neil', 'initials': 'NR', 'last_name': 'Crouch', 'id': 524}, 'first_author': None, 'id': 1035}, {'author': {'first_name': 'Angela', 'initials': 'A', 'last_name': 'Langlois', 'id': 712}, 'first_author': None, 'id': 1036}, {'author': {'first_name': 'Karen', 'initials': 'K', 'last_name': 'Du Toit', 'id': 713}, 'first_author': None, 'id': 1037}, {'author': {'first_name': 'Dulcie', 'initials': 'DA', 'last_name': 'Mulholland', 'id': 525}, 'first_author': None, 'id': 1038}, {'author': {'first_name': 'Siegfried', 'initials': 'SE', 'last_name': 'Drewes', 'id': 613}, 'first_author': None, 'id': 1039}], 'id': 344}]

>  <classifications>  (424) 
[{'classification': 'Flavonoids', 'id': 776}, {'classification': 'Homoisoflavonoid', 'id': 783}, {'classification': 'Homoisoflavonoids (Classyfire)', 'id': 964}]

>  <molecular_mass>  (424) 
298.29

$$$$
SANC00528_minRM1.pdb
     RDKit          3D

 80 84  0  0  1  0  0  0  0  0999 V2000
   -2.6950   -1.1280   -0.8030 H   0  0  0  0  0  0  0  0  0  0  0  0
   -3.1610   -0.5140    0.0190 C   0  0  2  0  0  0  0  0  0  0  0  0
   -2.7300   -1.1160    1.3520 C   0  0  0  0  0  0  0  0  0  0  0  0
   -1.2130   -1.2630    1.4170 C   0  0  0  0  0  0  0  0  0  0  0  0
   -0.4600   -0.2930    0.5770 C   0  0  0  0  0  0  0  0  0  0  0  0
   -1.0230    0.6900   -0.1360 C   0  0  0  0  0  0  0  0  0  0  0  0
   -0.2180    1.6960   -0.8970 C   0  0  0  0  0  0  0  0  0  0  0  0
    1.3070    1.5330   -0.8520 C   0  0  0  0  0  0  0  0  0  0  0  0
    1.7340    0.8590    0.4390 C   0  0  1  0  0  0  0  0  0  0  0  0
    1.3330    1.7320    1.6310 C   0  0  0  0  0  0  0  0  0  0  0  0
    1.0170   -0.5130    0.4980 C   0  0  2  0  0  0  0  0  0  0  0  0
    1.2370   -1.3850   -0.7440 C   0  0  0  0  0  0  0  0  0  0  0  0
    1.7090   -1.1910    1.6830 C   0  0  0  0  0  0  0  0  0  0  0  0
    3.1770   -0.7560    1.5550 C   0  0  0  0  0  0  0  0  0  0  0  0
    3.2190    0.4780    0.6100 C   0  0  1  0  0  0  0  0  0  0  0  0
    3.7460    0.1070   -0.6480 O   0  0  0  0  0  0  0  0  0  0  0  0
    5.1420    0.2790   -0.6630 C   0  0  2  0  0  0  0  0  0  0  0  0
    5.3650    0.9380   -1.5410 H   0  0  0  0  0  0  0  0  0  0  0  0
    5.8340   -1.0600   -0.8690 C   0  0  0  0  0  0  0  0  0  0  0  0
    5.2430   -2.1180   -0.8060 O   0  0  0  0  0  0  0  0  0  0  0  0
    7.3070   -0.9610   -1.1780 C   0  0  0  0  0  0  0  0  0  0  0  0
    7.9840   -2.3190   -1.1540 C   0  0  0  0  0  0  0  0  0  0  0  0
    5.5450    0.9290    0.6720 C   0  0  0  0  0  0  0  0  0  0  0  0
    4.2160    1.5360    1.1450 C   0  0  1  0  0  0  0  0  0  0  0  0
    4.0460    2.9140    0.5290 C   0  0  0  0  0  0  0  0  0  0  0  0
   -2.5270    0.8870   -0.1160 C   0  0  2  0  0  0  0  0  0  0  0  0
   -2.7960    1.8210    1.0650 C   0  0  0  0  0  0  0  0  0  0  0  0
   -3.0380    1.5260   -1.4130 C   0  0  0  0  0  0  0  0  0  0  0  0
   -4.5560    1.5440   -1.4870 C   0  0  0  0  0  0  0  0  0  0  0  0
   -5.0840    0.1060   -1.4720 C   0  0  2  0  0  0  0  0  0  0  0  0
   -4.6640   -0.4510   -2.3520 H   0  0  0  0  0  0  0  0  0  0  0  0
   -6.4750    0.2280   -1.5590 O   0  0  0  0  0  0  0  0  0  0  0  0
   -4.6850   -0.6240   -0.1730 C   0  0  1  0  0  0  0  0  0  0  0  0
   -4.9990   -2.1380   -0.3280 C   0  0  0  0  0  0  0  0  0  0  0  0
   -6.3070   -2.3890   -0.7180 O   0  0  0  0  0  0  0  0  0  0  0  0
   -5.4800   -0.0860    1.0290 C   0  0  0  0  0  0  0  0  0  0  0  0
   -6.8540   -0.2400    0.8570 O   0  0  0  0  0  0  0  0  0  0  0  0
   -3.0920   -0.5070    2.2090 H   0  0  0  0  0  0  0  0  0  0  0  0
   -3.2120   -2.1080    1.5100 H   0  0  0  0  0  0  0  0  0  0  0  0
   -0.8890   -1.1570    2.4770 H   0  0  0  0  0  0  0  0  0  0  0  0
   -0.9160   -2.2950    1.1340 H   0  0  0  0  0  0  0  0  0  0  0  0
   -0.5180    1.7030   -1.9680 H   0  0  0  0  0  0  0  0  0  0  0  0
   -0.4850    2.7080   -0.5170 H   0  0  0  0  0  0  0  0  0  0  0  0
    1.6570    0.9530   -1.7340 H   0  0  0  0  0  0  0  0  0  0  0  0
    1.7900    2.5220   -0.9850 H   0  0  0  0  0  0  0  0  0  0  0  0
    0.2480    1.7690    1.8040 H   0  0  0  0  0  0  0  0  0  0  0  0
    1.7720    1.4030    2.5830 H   0  0  0  0  0  0  0  0  0  0  0  0
    1.6480    2.7800    1.4960 H   0  0  0  0  0  0  0  0  0  0  0  0
    2.2630   -1.7700   -0.8380 H   0  0  0  0  0  0  0  0  0  0  0  0
    0.5890   -2.2740   -0.7300 H   0  0  0  0  0  0  0  0  0  0  0  0
    1.0170   -0.8530   -1.6800 H   0  0  0  0  0  0  0  0  0  0  0  0
    1.2800   -0.8830    2.6570 H   0  0  0  0  0  0  0  0  0  0  0  0
    1.5960   -2.2920    1.6750 H   0  0  0  0  0  0  0  0  0  0  0  0
    3.6090   -0.5330    2.5500 H   0  0  0  0  0  0  0  0  0  0  0  0
    3.8050   -1.5850    1.1700 H   0  0  0  0  0  0  0  0  0  0  0  0
    7.4290   -0.4840   -2.1750 H   0  0  0  0  0  0  0  0  0  0  0  0
    7.7970   -0.2640   -0.4660 H   0  0  0  0  0  0  0  0  0  0  0  0
    7.9000   -2.8010   -0.1680 H   0  0  0  0  0  0  0  0  0  0  0  0
    7.5450   -3.0160   -1.8820 H   0  0  0  0  0  0  0  0  0  0  0  0
    9.0560   -2.2470   -1.3770 H   0  0  0  0  0  0  0  0  0  0  0  0
    5.9370    0.1880    1.3960 H   0  0  0  0  0  0  0  0  0  0  0  0
    6.3570    1.6700    0.5570 H   0  0  0  0  0  0  0  0  0  0  0  0
    4.1730    1.6280    2.2550 H   0  0  0  0  0  0  0  0  0  0  0  0
    4.0670    2.8970   -0.5690 H   0  0  0  0  0  0  0  0  0  0  0  0
    3.1000    3.3930    0.8300 H   0  0  0  0  0  0  0  0  0  0  0  0
    4.8460    3.6010    0.8470 H   0  0  0  0  0  0  0  0  0  0  0  0
   -2.4370    2.8440    0.8740 H   0  0  0  0  0  0  0  0  0  0  0  0
   -3.8640    1.9140    1.3150 H   0  0  0  0  0  0  0  0  0  0  0  0
   -2.2920    1.4920    1.9860 H   0  0  0  0  0  0  0  0  0  0  0  0
   -2.6650    2.5670   -1.5240 H   0  0  0  0  0  0  0  0  0  0  0  0
   -2.6310    0.9840   -2.2940 H   0  0  0  0  0  0  0  0  0  0  0  0
   -5.0080    2.1580   -0.6820 H   0  0  0  0  0  0  0  0  0  0  0  0
   -4.8880    2.0570   -2.4170 H   0  0  0  0  0  0  0  0  0  0  0  0
   -6.8090   -0.5470   -2.0150 H   0  0  0  0  0  0  0  0  0  0  0  0
   -4.3930   -2.5990   -1.1390 H   0  0  0  0  0  0  0  0  0  0  0  0
   -4.7180   -2.6840    0.6090 H   0  0  0  0  0  0  0  0  0  0  0  0
   -6.9070   -2.1360   -0.0050 H   0  0  0  0  0  0  0  0  0  0  0  0
   -5.2750   -0.6640    1.9570 H   0  0  0  0  0  0  0  0  0  0  0  0
   -5.2040    0.9710    1.2600 H   0  0  0  0  0  0  0  0  0  0  0  0
   -7.1580    0.3800    0.1700 H   0  0  0  0  0  0  0  0  0  0  0  0
  2  1  1  6
  2 33  1  0
  2 26  1  0
  2  3  1  0
  3  4  1  0
  3 39  1  0
  3 38  1  0
  4  5  1  0
  4 41  1  0
  4 40  1  0
  5  6  2  0
  5 11  1  0
  6  7  1  0
  6 26  1  0
  7 42  1  0
  7  8  1  0
  7 43  1  0
  8 44  1  0
  8 45  1  0
  8  9  1  0
  9 11  1  0
  9 15  1  0
  9 10  1  1
 10 48  1  0
 10 46  1  0
 10 47  1  0
 11 12  1  6
 11 13  1  0
 12 51  1  0
 12 49  1  0
 12 50  1  0
 13 14  1  0
 13 53  1  0
 13 52  1  0
 14 15  1  0
 14 55  1  0
 14 54  1  0
 15 16  1  6
 15 24  1  0
 16 17  1  0
 17 18  1  6
 17 19  1  0
 17 23  1  0
 19 21  1  0
 19 20  2  0
 21 56  1  0
 21 22  1  0
 21 57  1  0
 22 59  1  0
 22 60  1  0
 22 58  1  0
 23 62  1  0
 23 24  1  0
 23 61  1  0
 24 25  1  0
 24 63  1  1
 25 64  1  0
 25 65  1  0
 25 66  1  0
 26 28  1  0
 26 27  1  1
 27 67  1  0
 27 68  1  0
 27 69  1  0
 28 71  1  0
 28 70  1  0
 28 29  1  0
 29 73  1  0
 29 30  1  0
 29 72  1  0
 30 31  1  6
 30 32  1  0
 30 33  1  0
 32 74  1  0
 33 34  1  6
 33 36  1  0
 34 75  1  0
 34 35  1  0
 34 76  1  0
 35 77  1  0
 36 37  1  0
 36 79  1  0
 36 78  1  0
 37 80  1  0
M  END
>  <id>  (425) 
528

>  <scaffolds>  (425) 
['C1=CC2CCCCC2CC1', 'C1=CCCCC1', 'C1CCCCC1', 'C1CCC2C3=C(CCC2C1)C1CCC2(CCCO2)C1CC3', 'C1CCC2C3=C(CCC2C1)C1CCCC1CC3']

>  <name>  (425) 
(23S)-17[alpha],23-epoxy-3[beta],28,29-trihydroxy-27-norlanost-8-en-24-one

>  <formula>  (425) 
C29H46O5

>  <SMILES>  (425) 
[H][C@@]45CCC1=C(CC[C@@]2(C)[C@@]1(C)CC[C@@]23O[C@H](C(=O)CC)CC3C)[C@@]4(C)CC[C@H](O)C5(CO)CO

>  <ChEMBL_id>  (425) 


>  <ZINC_id>  (425) 


>  <PubChem_id>  (425) 


>  <DrugBank_id>  (425) 


>  <CAS_no>  (425) 
78161-22-5

>  <references>  (425) 
[{'journal': {'name': 'South African Journal of Botany', 'id': 1}, 'title': 'Homoisoflavanones and spirocyclic nortriterpenoids from three Eucomis species: E. comosa, E. schiffii and E. pallidiflora subsp. pole-evansii (Hyacinthaceae)', 'year': 2006, 'start_page': 428, 'volume': 72, 'issue': None, 'doi': '10.1016/j.sajb.2005.12.006', 'isbn': '', 'despositor': {'code': 'rah', 'first_name': 'Rowan', 'last_name': 'Hatherley', 'id': 20}, 'refauthors_set': [{'author': {'first_name': 'Chantal', 'initials': 'C', 'last_name': 'Koorbanally', 'id': 523}, 'first_author': True, 'id': 1034}, {'author': {'first_name': 'Neil', 'initials': 'NR', 'last_name': 'Crouch', 'id': 524}, 'first_author': None, 'id': 1035}, {'author': {'first_name': 'Angela', 'initials': 'A', 'last_name': 'Langlois', 'id': 712}, 'first_author': None, 'id': 1036}, {'author': {'first_name': 'Karen', 'initials': 'K', 'last_name': 'Du Toit', 'id': 713}, 'first_author': None, 'id': 1037}, {'author': {'first_name': 'Dulcie', 'initials': 'DA', 'last_name': 'Mulholland', 'id': 525}, 'first_author': None, 'id': 1038}, {'author': {'first_name': 'Siegfried', 'initials': 'SE', 'last_name': 'Drewes', 'id': 613}, 'first_author': None, 'id': 1039}], 'id': 344}]

>  <classifications>  (425) 
[{'classification': 'Nortriterpene', 'id': 800}, {'classification': 'Spirocyclic', 'id': 832}, {'classification': 'Terpenoid', 'id': 839}, {'classification': 'Phenol lipids (Classyfire)', 'id': 951}]

>  <molecular_mass>  (425) 
474.67

$$$$
SANC00529_minRM1.pdb
     RDKit          3D

 38 40  0  0  0  0  0  0  0  0999 V2000
    4.2290    1.9460    1.8300 C   0  0  0  0  0  0  0  0  0  0  0  0
    4.0800    1.6280    0.4650 O   0  0  0  0  0  0  0  0  0  0  0  0
    3.1970    0.6070    0.2630 C   0  0  0  0  0  0  0  0  0  0  0  0
    3.6320   -0.7270    0.3410 C   0  0  0  0  0  0  0  0  0  0  0  0
    4.8860   -0.9040    0.7830 O   0  0  0  0  0  0  0  0  0  0  0  0
    2.7770   -1.7700   -0.0440 C   0  0  0  0  0  0  0  0  0  0  0  0
    3.3030   -3.0270   -0.0480 O   0  0  0  0  0  0  0  0  0  0  0  0
    1.4850   -1.4770   -0.4990 C   0  0  0  0  0  0  0  0  0  0  0  0
    0.7230   -2.5190   -0.8560 O   0  0  0  0  0  0  0  0  0  0  0  0
    1.0200   -0.1530   -0.5060 C   0  0  0  0  0  0  0  0  0  0  0  0
   -0.3610    0.1410   -0.8510 C   0  0  0  0  0  0  0  0  0  0  0  0
   -1.1030   -0.7430   -1.2760 O   0  0  0  0  0  0  0  0  0  0  0  0
   -0.7580    1.5370   -0.6350 C   0  0  0  0  0  0  0  0  0  0  0  0
   -1.9680    1.9310   -0.2330 C   0  0  0  0  0  0  0  0  0  0  0  0
   -3.0470    1.0120    0.1000 C   0  0  0  0  0  0  0  0  0  0  0  0
   -2.8150   -0.0670    0.9490 C   0  0  0  0  0  0  0  0  0  0  0  0
   -3.8530   -0.9220    1.2950 C   0  0  0  0  0  0  0  0  0  0  0  0
   -5.1240   -0.6810    0.7720 C   0  0  0  0  0  0  0  0  0  0  0  0
   -6.1950   -1.4710    1.0280 O   0  0  0  0  0  0  0  0  0  0  0  0
   -5.3740    0.4030   -0.0800 C   0  0  0  0  0  0  0  0  0  0  0  0
   -4.3270    1.2470   -0.4050 C   0  0  0  0  0  0  0  0  0  0  0  0
    0.3630    2.4940   -0.8930 C   0  0  0  0  0  0  0  0  0  0  0  0
    1.5120    2.1810   -0.1270 O   0  0  0  0  0  0  0  0  0  0  0  0
    1.8920    0.8800   -0.1420 C   0  0  0  0  0  0  0  0  0  0  0  0
    4.9580    2.7690    1.8350 H   0  0  0  0  0  0  0  0  0  0  0  0
    3.2900    2.2940    2.2920 H   0  0  0  0  0  0  0  0  0  0  0  0
    4.6260    1.1110    2.4300 H   0  0  0  0  0  0  0  0  0  0  0  0
    5.1030   -1.8530    0.8200 H   0  0  0  0  0  0  0  0  0  0  0  0
    2.6100   -3.6240    0.2540 H   0  0  0  0  0  0  0  0  0  0  0  0
   -0.1450   -2.2050   -1.2060 H   0  0  0  0  0  0  0  0  0  0  0  0
   -2.2030    2.9980   -0.1110 H   0  0  0  0  0  0  0  0  0  0  0  0
   -1.8140   -0.2440    1.3590 H   0  0  0  0  0  0  0  0  0  0  0  0
   -3.6620   -1.7730    1.9600 H   0  0  0  0  0  0  0  0  0  0  0  0
   -5.9740   -2.0710    1.7510 H   0  0  0  0  0  0  0  0  0  0  0  0
   -6.3780    0.5720   -0.4800 H   0  0  0  0  0  0  0  0  0  0  0  0
   -4.5040    2.1010   -1.0670 H   0  0  0  0  0  0  0  0  0  0  0  0
    0.6170    2.5130   -1.9780 H   0  0  0  0  0  0  0  0  0  0  0  0
    0.1470    3.5400   -0.5880 H   0  0  0  0  0  0  0  0  0  0  0  0
  1  2  1  0
  1 25  1  0
  1 26  1  0
  1 27  1  0
  2  3  1  0
  3 24  2  0
  3  4  1  0
  4  6  2  0
  4  5  1  0
  5 28  1  0
  6  8  1  0
  6  7  1  0
  7 29  1  0
  8  9  1  0
  8 10  2  0
  9 30  1  0
 10 11  1  0
 10 24  1  0
 11 12  2  0
 11 13  1  0
 13 22  1  0
 13 14  2  0
 14 31  1  0
 14 15  1  0
 15 21  2  0
 15 16  1  0
 16 17  2  0
 16 32  1  0
 17 18  1  0
 17 33  1  0
 18 20  2  0
 18 19  1  0
 19 34  1  0
 20 35  1  0
 20 21  1  0
 21 36  1  0
 22 37  1  0
 22 38  1  0
 22 23  1  0
 23 24  1  0
M  END
>  <id>  (426) 
529

>  <scaffolds>  (426) 
['c1ccccc1', 'O=C1C(=Cc2ccccc2)COc2ccccc21', 'O=C(C=Cc1ccccc1)c1ccccc1', 'C(=Cc1ccccc1)Cc1ccccc1']

>  <name>  (426) 
Poleevansin

>  <formula>  (426) 
C17H14O7

>  <SMILES>  (426) 
COc2c(O)c(O)c(O)c3C(=O)C(=Cc1ccc(O)cc1)COc23

>  <ChEMBL_id>  (426) 


>  <ZINC_id>  (426) 


>  <PubChem_id>  (426) 


>  <DrugBank_id>  (426) 


>  <CAS_no>  (426) 
849727-87-3

>  <references>  (426) 
[{'journal': {'name': 'South African Journal of Botany', 'id': 1}, 'title': 'Homoisoflavanones and spirocyclic nortriterpenoids from three Eucomis species: E. comosa, E. schiffii and E. pallidiflora subsp. pole-evansii (Hyacinthaceae)', 'year': 2006, 'start_page': 428, 'volume': 72, 'issue': None, 'doi': '10.1016/j.sajb.2005.12.006', 'isbn': '', 'despositor': {'code': 'rah', 'first_name': 'Rowan', 'last_name': 'Hatherley', 'id': 20}, 'refauthors_set': [{'author': {'first_name': 'Chantal', 'initials': 'C', 'last_name': 'Koorbanally', 'id': 523}, 'first_author': True, 'id': 1034}, {'author': {'first_name': 'Neil', 'initials': 'NR', 'last_name': 'Crouch', 'id': 524}, 'first_author': None, 'id': 1035}, {'author': {'first_name': 'Angela', 'initials': 'A', 'last_name': 'Langlois', 'id': 712}, 'first_author': None, 'id': 1036}, {'author': {'first_name': 'Karen', 'initials': 'K', 'last_name': 'Du Toit', 'id': 713}, 'first_author': None, 'id': 1037}, {'author': {'first_name': 'Dulcie', 'initials': 'DA', 'last_name': 'Mulholland', 'id': 525}, 'first_author': None, 'id': 1038}, {'author': {'first_name': 'Siegfried', 'initials': 'SE', 'last_name': 'Drewes', 'id': 613}, 'first_author': None, 'id': 1039}], 'id': 344}, {'journal': {'name': 'Bioorganic & Medicinal Chemistry', 'id': 34}, 'title': 'Anti-inflammatory activity and QSAR studies of compounds isolated from Hyacinthaceae species and Tachiadenus longiflorus Griseb. (Gentianaceae)', 'year': 2005, 'start_page': 2561, 'volume': 13, 'issue': 7, 'doi': '10.1016/j.bmc.2005.01.036', 'isbn': '', 'despositor': {'code': 'rah', 'first_name': 'Rowan', 'last_name': 'Hatherley', 'id': 20}, 'refauthors_set': [{'author': {'first_name': 'Karen', 'initials': 'K', 'last_name': 'Du Toit', 'id': 713}, 'first_author': True, 'id': 1075}, {'author': {'first_name': 'Esameldin', 'initials': 'EE', 'last_name': 'Elgorashi', 'id': 594}, 'first_author': None, 'id': 1076}, {'author': {'first_name': 'Sarel', 'initials': 'SF', 'last_name': 'Malan', 'id': 759}, 'first_author': None, 'id': 1077}, {'author': {'first_name': 'Siegfried', 'initials': 'SE', 'last_name': 'Drewes', 'id': 613}, 'first_author': None, 'id': 1078}, {'author': {'first_name': 'Johannes', 'initials': 'J', 'last_name': 'Van Staden', 'id': 489}, 'first_author': None, 'id': 1079}, {'author': {'first_name': 'Neil', 'initials': 'NR', 'last_name': 'Crouch', 'id': 524}, 'first_author': None, 'id': 1080}, {'author': {'first_name': 'Dulcie', 'initials': 'DA', 'last_name': 'Mulholland', 'id': 525}, 'first_author': None, 'id': 1081}], 'id': 362}]

>  <classifications>  (426) 
[{'classification': 'Flavonoids', 'id': 776}, {'classification': 'Homoisoflavonoid', 'id': 783}, {'classification': 'Homoisoflavonoids (Classyfire)', 'id': 964}]

>  <molecular_mass>  (426) 
330.29

$$$$
SANC00530_minRM1.pdb
     RDKit          3D

 62 63  0  0  1  0  0  0  0  0999 V2000
   -2.1870    1.1440   -3.2040 C   0  0  0  0  0  0  0  0  0  0  0  0
   -1.2640    1.8080   -2.3800 O   0  0  0  0  0  0  0  0  0  0  0  0
   -0.8990    1.1360   -1.2110 C   0  0  2  0  0  0  0  0  0  0  0  0
    0.0960    2.0750   -0.4910 C   0  0  0  0  0  0  0  0  0  0  0  0
   -0.4440    3.4250   -0.1860 C   0  0  0  0  0  0  0  0  0  0  0  0
   -0.6890    3.8580    1.0540 C   0  0  0  0  0  0  0  0  0  0  0  0
   -1.0150    5.2870    1.3140 C   0  0  0  0  0  0  0  0  0  0  0  0
   -0.6680    2.9630    2.2430 C   0  0  0  0  0  0  0  0  0  0  0  0
   -0.1170   -0.1340   -1.5430 C   0  0  0  0  0  0  0  0  0  0  0  0
    0.4580   -0.2590   -2.5980 O   0  0  0  0  0  0  0  0  0  0  0  0
   -0.0270   -1.2060   -0.4680 C   0  0  1  0  0  0  0  0  0  0  0  0
    0.3090   -2.3660   -1.1640 O   0  0  0  0  0  0  0  0  0  0  0  0
    1.0770   -0.8450    0.5400 C   0  0  0  0  0  0  0  0  0  0  0  0
    0.7820   -0.5660    1.6890 O   0  0  0  0  0  0  0  0  0  0  0  0
    2.4520   -0.8950    0.0440 C   0  0  0  0  0  0  0  0  0  0  0  0
    3.4710   -0.5150    0.8280 C   0  0  0  0  0  0  0  0  0  0  0  0
    4.8680   -0.6280    0.4370 C   0  0  0  0  0  0  0  0  0  0  0  0
    5.2400   -1.2280   -0.7660 C   0  0  0  0  0  0  0  0  0  0  0  0
    6.5830   -1.4070   -1.0700 C   0  0  0  0  0  0  0  0  0  0  0  0
    7.5620   -1.0040   -0.1690 C   0  0  0  0  0  0  0  0  0  0  0  0
    7.1980   -0.3340    0.9940 C   0  0  0  0  0  0  0  0  0  0  0  0
    5.8570   -0.1530    1.3030 C   0  0  0  0  0  0  0  0  0  0  0  0
   -1.3460   -1.4060    0.2850 C   0  0  0  0  0  0  0  0  0  0  0  0
   -1.5200   -2.4930    0.8040 O   0  0  0  0  0  0  0  0  0  0  0  0
   -2.2900   -0.3010    0.3620 C   0  0  0  0  0  0  0  0  0  0  0  0
   -3.4610   -0.4840    1.2760 C   0  0  0  0  0  0  0  0  0  0  0  0
   -4.6360   -1.0590    0.5620 C   0  0  0  0  0  0  0  0  0  0  0  0
   -5.1940   -2.2410    0.8340 C   0  0  0  0  0  0  0  0  0  0  0  0
   -6.4370   -2.6780    0.1370 C   0  0  0  0  0  0  0  0  0  0  0  0
   -4.6560   -3.2060    1.8290 C   0  0  0  0  0  0  0  0  0  0  0  0
   -2.0910    0.8350   -0.3380 C   0  0  0  0  0  0  0  0  0  0  0  0
   -2.9330    1.8830   -0.3460 O   0  0  0  0  0  0  0  0  0  0  0  0
   -2.3230    1.8430   -4.0440 H   0  0  0  0  0  0  0  0  0  0  0  0
   -1.8270    0.1830   -3.6050 H   0  0  0  0  0  0  0  0  0  0  0  0
   -3.1690    0.9750   -2.7310 H   0  0  0  0  0  0  0  0  0  0  0  0
    0.4720    1.5750    0.4240 H   0  0  0  0  0  0  0  0  0  0  0  0
    0.9950    2.2040   -1.1370 H   0  0  0  0  0  0  0  0  0  0  0  0
   -0.5790    4.0770   -1.0530 H   0  0  0  0  0  0  0  0  0  0  0  0
   -2.1000    5.4400    1.4250 H   0  0  0  0  0  0  0  0  0  0  0  0
   -0.5440    5.6580    2.2370 H   0  0  0  0  0  0  0  0  0  0  0  0
   -0.6770    5.9600    0.5100 H   0  0  0  0  0  0  0  0  0  0  0  0
    0.2690    2.3920    2.3310 H   0  0  0  0  0  0  0  0  0  0  0  0
   -0.7950    3.4930    3.1980 H   0  0  0  0  0  0  0  0  0  0  0  0
   -1.4850    2.2250    2.1890 H   0  0  0  0  0  0  0  0  0  0  0  0
    0.3800   -3.0890   -0.5260 H   0  0  0  0  0  0  0  0  0  0  0  0
    2.5990   -1.2730   -0.9740 H   0  0  0  0  0  0  0  0  0  0  0  0
    3.2830   -0.1150    1.8360 H   0  0  0  0  0  0  0  0  0  0  0  0
    4.4750   -1.5670   -1.4740 H   0  0  0  0  0  0  0  0  0  0  0  0
    6.8690   -1.8630   -2.0220 H   0  0  0  0  0  0  0  0  0  0  0  0
    8.6160   -1.2210   -0.3690 H   0  0  0  0  0  0  0  0  0  0  0  0
    7.9700    0.0560    1.6630 H   0  0  0  0  0  0  0  0  0  0  0  0
    5.5830    0.3620    2.2290 H   0  0  0  0  0  0  0  0  0  0  0  0
   -3.1620   -1.0740    2.1690 H   0  0  0  0  0  0  0  0  0  0  0  0
   -3.7620    0.5000    1.7150 H   0  0  0  0  0  0  0  0  0  0  0  0
   -5.0560   -0.4140   -0.2180 H   0  0  0  0  0  0  0  0  0  0  0  0
   -6.2100   -3.3700   -0.6860 H   0  0  0  0  0  0  0  0  0  0  0  0
   -7.1250   -3.2080    0.8150 H   0  0  0  0  0  0  0  0  0  0  0  0
   -7.0130   -1.8460   -0.2840 H   0  0  0  0  0  0  0  0  0  0  0  0
   -4.8040   -2.8500    2.8600 H   0  0  0  0  0  0  0  0  0  0  0  0
   -5.1310   -4.1980    1.7720 H   0  0  0  0  0  0  0  0  0  0  0  0
   -3.5800   -3.3920    1.7030 H   0  0  0  0  0  0  0  0  0  0  0  0
   -3.6450    1.7360    0.2970 H   0  0  0  0  0  0  0  0  0  0  0  0
  1 33  1  0
  1 34  1  0
  1 35  1  0
  1  2  1  0
  3  2  1  6
  3  9  1  0
  3  4  1  0
  3 31  1  0
  4 37  1  0
  4  5  1  0
  4 36  1  0
  5 38  1  0
  5  6  2  0
  6  7  1  0
  6  8  1  0
  7 41  1  0
  7 39  1  0
  7 40  1  0
  8 44  1  0
  8 42  1  0
  8 43  1  0
  9 10  2  0
  9 11  1  0
 11 12  1  6
 11 23  1  0
 11 13  1  0
 12 45  1  0
 13 15  1  0
 13 14  2  0
 15 46  1  0
 15 16  2  0
 16 17  1  0
 16 47  1  0
 17 18  2  0
 17 22  1  0
 18 48  1  0
 18 19  1  0
 19 49  1  0
 19 20  2  0
 20 50  1  0
 20 21  1  0
 21 22  2  0
 21 51  1  0
 22 52  1  0
 23 25  1  0
 23 24  2  0
 25 31  2  0
 25 26  1  0
 26 27  1  0
 26 54  1  0
 26 53  1  0
 27 55  1  0
 27 28  2  0
 28 29  1  0
 28 30  1  0
 29 56  1  0
 29 58  1  0
 29 57  1  0
 30 61  1  0
 30 60  1  0
 30 59  1  0
 31 32  1  0
 32 62  1  0
M  END
>  <id>  (427) 
530

>  <scaffolds>  (427) 
['c1ccccc1', 'C1=CCCCC1', 'O=C1C=CCCC1', 'O=C1CC=CCC1']

>  <name>  (427) 
Microfolian

>  <formula>  (427) 
C26H30O6

>  <SMILES>  (427) 
CO[C@]2(C/C=C(C)\C)C(=O)[C@@](O)(C(=O)/C=C/c1ccccc1)C(=O)C(C/C=C(C)\C)=C2O

>  <ChEMBL_id>  (427) 


>  <ZINC_id>  (427) 


>  <PubChem_id>  (427) 


>  <DrugBank_id>  (427) 


>  <CAS_no>  (427) 
462112-94-3

>  <references>  (427) 
[{'journal': {'name': 'Journal of Natural Products', 'id': 5}, 'title': 'Bioactive Constituents of Cedrelopsis microfoliata', 'year': 2002, 'start_page': 1349, 'volume': 65, 'issue': 9, 'doi': '10.1021/np0200562', 'isbn': '', 'despositor': {'code': 'NFA', 'first_name': 'Ngonidzashe', 'last_name': 'Faya', 'id': 21}, 'refauthors_set': [{'author': {'first_name': 'Neil', 'initials': 'NA', 'last_name': 'Koorbanally', 'id': 699}, 'first_author': True, 'id': 1046}, {'author': {'first_name': 'Milijaona', 'initials': 'M', 'last_name': 'Randrianarivelojosia', 'id': 726}, 'first_author': None, 'id': 1136}, {'author': {'first_name': 'Dulcie', 'initials': 'DA', 'last_name': 'Mulholland', 'id': 525}, 'first_author': None, 'id': 1137}, {'author': {'first_name': 'Linda', 'initials': 'L', 'last_name': 'Quarles van Ufford,', 'id': 727}, 'first_author': None, 'id': 1138}, {'author': {'first_name': 'Albert', 'initials': 'AJJ', 'last_name': 'van den Berg', 'id': 728}, 'first_author': None, 'id': 1139}], 'id': 349}]

>  <classifications>  (427) 
[{'classification': 'Chalcone', 'id': 760}, {'classification': 'Benzene and substituted derivatives (Classyfire)', 'id': 961}]

>  <molecular_mass>  (427) 
438.51

$$$$
SANC00531_minRM1.pdb
     RDKit          3D

 48 50  0  0  1  0  0  0  0  0999 V2000
    0.0300   -3.2350    0.7890 C   0  0  0  0  0  0  0  0  0  0  0  0
    0.0440   -2.5700   -0.4550 O   0  0  0  0  0  0  0  0  0  0  0  0
   -0.4430   -1.2990   -0.3640 C   0  0  0  0  0  0  0  0  0  0  0  0
   -1.8210   -1.0560   -0.5200 C   0  0  0  0  0  0  0  0  0  0  0  0
   -2.5720   -2.1690   -0.5980 O   0  0  0  0  0  0  0  0  0  0  0  0
   -2.3370    0.2410   -0.5820 C   0  0  0  0  0  0  0  0  0  0  0  0
   -3.8000    0.4720   -0.7790 C   0  0  0  0  0  0  0  0  0  0  0  0
   -4.4830    0.4860    0.5460 C   0  0  0  0  0  0  0  0  0  0  0  0
   -5.6320   -0.1330    0.8210 C   0  0  0  0  0  0  0  0  0  0  0  0
   -6.2470   -0.0420    2.1740 C   0  0  0  0  0  0  0  0  0  0  0  0
   -6.3940   -0.9470   -0.1640 C   0  0  0  0  0  0  0  0  0  0  0  0
   -1.4400    1.3110   -0.4470 C   0  0  0  0  0  0  0  0  0  0  0  0
   -1.9580    2.5430   -0.4700 O   0  0  0  0  0  0  0  0  0  0  0  0
   -0.0570    1.0940   -0.2910 C   0  0  0  0  0  0  0  0  0  0  0  0
    0.8660    2.2070   -0.2420 C   0  0  0  0  0  0  0  0  0  0  0  0
    0.4610    3.3690   -0.2550 O   0  0  0  0  0  0  0  0  0  0  0  0
    2.3230    1.8550   -0.2210 C   0  0  0  0  0  0  0  0  0  0  0  0
    2.5170    0.5240    0.5120 C   0  0  2  0  0  0  0  0  0  0  0  0
    2.2120    0.6330    1.5890 H   0  0  0  0  0  0  0  0  0  0  0  0
    3.9450    0.0770    0.3820 C   0  0  0  0  0  0  0  0  0  0  0  0
    4.4080   -0.4680   -0.8120 C   0  0  0  0  0  0  0  0  0  0  0  0
    5.7370   -0.8590   -0.9210 C   0  0  0  0  0  0  0  0  0  0  0  0
    6.6040   -0.6930    0.1520 C   0  0  0  0  0  0  0  0  0  0  0  0
    6.1390   -0.1450    1.3420 C   0  0  0  0  0  0  0  0  0  0  0  0
    4.8100    0.2400    1.4590 C   0  0  0  0  0  0  0  0  0  0  0  0
    1.7360   -0.5120   -0.0680 O   0  0  0  0  0  0  0  0  0  0  0  0
    0.4240   -0.2200   -0.2310 C   0  0  0  0  0  0  0  0  0  0  0  0
    0.6700   -2.7450    1.5410 H   0  0  0  0  0  0  0  0  0  0  0  0
   -0.9830   -3.3480    1.2070 H   0  0  0  0  0  0  0  0  0  0  0  0
    0.4400   -4.2300    0.5620 H   0  0  0  0  0  0  0  0  0  0  0  0
   -3.5100   -1.9330   -0.5750 H   0  0  0  0  0  0  0  0  0  0  0  0
   -3.9950    1.4360   -1.3020 H   0  0  0  0  0  0  0  0  0  0  0  0
   -4.2120   -0.2840   -1.4840 H   0  0  0  0  0  0  0  0  0  0  0  0
   -3.9680    1.0850    1.3070 H   0  0  0  0  0  0  0  0  0  0  0  0
   -7.1510    0.5860    2.1550 H   0  0  0  0  0  0  0  0  0  0  0  0
   -6.5490   -1.0300    2.5530 H   0  0  0  0  0  0  0  0  0  0  0  0
   -5.5790    0.3910    2.9350 H   0  0  0  0  0  0  0  0  0  0  0  0
   -5.9340   -1.9370   -0.3120 H   0  0  0  0  0  0  0  0  0  0  0  0
   -7.4320   -1.1360    0.1510 H   0  0  0  0  0  0  0  0  0  0  0  0
   -6.4670   -0.4680   -1.1520 H   0  0  0  0  0  0  0  0  0  0  0  0
   -1.2470    3.2280   -0.4270 H   0  0  0  0  0  0  0  0  0  0  0  0
    2.6920    1.8020   -1.2690 H   0  0  0  0  0  0  0  0  0  0  0  0
    2.9340    2.6510    0.2530 H   0  0  0  0  0  0  0  0  0  0  0  0
    3.7320   -0.6010   -1.6620 H   0  0  0  0  0  0  0  0  0  0  0  0
    6.1000   -1.3000   -1.8540 H   0  0  0  0  0  0  0  0  0  0  0  0
    7.6510   -0.9980    0.0620 H   0  0  0  0  0  0  0  0  0  0  0  0
    6.8200   -0.0210    2.1890 H   0  0  0  0  0  0  0  0  0  0  0  0
    4.4540    0.6650    2.4030 H   0  0  0  0  0  0  0  0  0  0  0  0
  1  2  1  0
  1 30  1  0
  1 29  1  0
  1 28  1  0
  2  3  1  0
  3  4  2  0
  3 27  1  0
  4  5  1  0
  4  6  1  0
  5 31  1  0
  6  7  1  0
  6 12  2  0
  7 33  1  0
  7 32  1  0
  7  8  1  0
  8  9  2  0
  8 34  1  0
  9 11  1  0
  9 10  1  0
 10 35  1  0
 10 36  1  0
 10 37  1  0
 11 40  1  0
 11 38  1  0
 11 39  1  0
 12 13  1  0
 12 14  1  0
 13 41  1  0
 14 15  1  0
 14 27  2  0
 15 16  2  0
 15 17  1  0
 17 42  1  0
 17 43  1  0
 17 18  1  0
 18 26  1  0
 18 20  1  0
 18 19  1  1
 20 21  2  0
 20 25  1  0
 21 44  1  0
 21 22  1  0
 22 45  1  0
 22 23  2  0
 23 46  1  0
 23 24  1  0
 24 25  2  0
 24 47  1  0
 25 48  1  0
 26 27  1  0
M  END
>  <id>  (428) 
531

>  <scaffolds>  (428) 
['c1ccccc1', 'O=C1CC(c2ccccc2)Oc2ccccc21', 'c1ccc(C2CCc3ccccc3O2)cc1', 'O=C(CCc1ccccc1)c1ccccc1']

>  <name>  (428) 
Microfolione

>  <formula>  (428) 
C21H22O5

>  <SMILES>  (428) 
COc2c(O)c(C/C=C(C)\C)c(O)c3C(=O)C[C@H](c1ccccc1)Oc23

>  <ChEMBL_id>  (428) 


>  <ZINC_id>  (428) 


>  <PubChem_id>  (428) 


>  <DrugBank_id>  (428) 


>  <CAS_no>  (428) 
462112-95-4

>  <references>  (428) 
[{'journal': {'name': 'Journal of Natural Products', 'id': 5}, 'title': 'Bioactive Constituents of Cedrelopsis microfoliata', 'year': 2002, 'start_page': 1349, 'volume': 65, 'issue': 9, 'doi': '10.1021/np0200562', 'isbn': '', 'despositor': {'code': 'NFA', 'first_name': 'Ngonidzashe', 'last_name': 'Faya', 'id': 21}, 'refauthors_set': [{'author': {'first_name': 'Neil', 'initials': 'NA', 'last_name': 'Koorbanally', 'id': 699}, 'first_author': True, 'id': 1046}, {'author': {'first_name': 'Milijaona', 'initials': 'M', 'last_name': 'Randrianarivelojosia', 'id': 726}, 'first_author': None, 'id': 1136}, {'author': {'first_name': 'Dulcie', 'initials': 'DA', 'last_name': 'Mulholland', 'id': 525}, 'first_author': None, 'id': 1137}, {'author': {'first_name': 'Linda', 'initials': 'L', 'last_name': 'Quarles van Ufford,', 'id': 727}, 'first_author': None, 'id': 1138}, {'author': {'first_name': 'Albert', 'initials': 'AJJ', 'last_name': 'van den Berg', 'id': 728}, 'first_author': None, 'id': 1139}], 'id': 349}]

>  <classifications>  (428) 
[{'classification': 'Flavonoids', 'id': 776}, {'classification': 'Flavonoids (Classyfire)', 'id': 941}]

>  <molecular_mass>  (428) 
354.4

$$$$
SANC00532_minRM1.pdb
     RDKit          3D

 38 39  0  0  0  0  0  0  0  0999 V2000
   -1.1710   -4.2720    0.4860 C   0  0  0  0  0  0  0  0  0  0  0  0
   -0.1580   -3.3510    0.1570 O   0  0  0  0  0  0  0  0  0  0  0  0
   -0.5190   -2.0520    0.0110 C   0  0  0  0  0  0  0  0  0  0  0  0
   -1.7730   -1.5280    0.2640 C   0  0  0  0  0  0  0  0  0  0  0  0
   -1.9390   -0.1460    0.0870 C   0  0  0  0  0  0  0  0  0  0  0  0
   -3.1900    0.3010    0.3680 O   0  0  0  0  0  0  0  0  0  0  0  0
   -3.4680    1.6520    0.2550 C   0  0  0  0  0  0  0  0  0  0  0  0
   -4.6140    1.9230    0.5630 O   0  0  0  0  0  0  0  0  0  0  0  0
   -2.4250    2.5590   -0.1970 C   0  0  0  0  0  0  0  0  0  0  0  0
   -1.1970    2.0980   -0.4850 C   0  0  0  0  0  0  0  0  0  0  0  0
   -0.9080    0.6960   -0.3350 C   0  0  0  0  0  0  0  0  0  0  0  0
    0.3590    0.1420   -0.5990 C   0  0  0  0  0  0  0  0  0  0  0  0
    1.4880    1.0120   -1.0470 C   0  0  0  0  0  0  0  0  0  0  0  0
    2.1140    1.6640    0.1400 C   0  0  0  0  0  0  0  0  0  0  0  0
    3.4340    1.7650    0.3140 C   0  0  0  0  0  0  0  0  0  0  0  0
    4.4330    1.2190   -0.6440 C   0  0  0  0  0  0  0  0  0  0  0  0
    4.0140    2.4440    1.5070 C   0  0  0  0  0  0  0  0  0  0  0  0
    0.5410   -1.2180   -0.4240 C   0  0  0  0  0  0  0  0  0  0  0  0
    1.7250   -1.8140   -0.7650 O   0  0  0  0  0  0  0  0  0  0  0  0
    2.5700   -1.9930    0.3500 C   0  0  0  0  0  0  0  0  0  0  0  0
   -1.5900   -4.1100    1.4920 H   0  0  0  0  0  0  0  0  0  0  0  0
   -1.9910   -4.3050   -0.2510 H   0  0  0  0  0  0  0  0  0  0  0  0
   -0.6400   -5.2370    0.4730 H   0  0  0  0  0  0  0  0  0  0  0  0
   -2.6250   -2.1300    0.5890 H   0  0  0  0  0  0  0  0  0  0  0  0
   -2.7080    3.6120   -0.2820 H   0  0  0  0  0  0  0  0  0  0  0  0
   -0.4070    2.7740   -0.8320 H   0  0  0  0  0  0  0  0  0  0  0  0
    2.2290    0.4350   -1.6490 H   0  0  0  0  0  0  0  0  0  0  0  0
    1.1330    1.7920   -1.7590 H   0  0  0  0  0  0  0  0  0  0  0  0
    1.4130    2.0770    0.8740 H   0  0  0  0  0  0  0  0  0  0  0  0
    4.8930    2.0210   -1.2350 H   0  0  0  0  0  0  0  0  0  0  0  0
    5.2480    0.6870   -0.1330 H   0  0  0  0  0  0  0  0  0  0  0  0
    3.9980    0.5060   -1.3620 H   0  0  0  0  0  0  0  0  0  0  0  0
    4.4550    1.7110    2.2030 H   0  0  0  0  0  0  0  0  0  0  0  0
    4.8190    3.1440    1.2270 H   0  0  0  0  0  0  0  0  0  0  0  0
    3.2840    3.0320    2.0780 H   0  0  0  0  0  0  0  0  0  0  0  0
    3.4490   -2.5050   -0.0650 H   0  0  0  0  0  0  0  0  0  0  0  0
    2.8870   -1.0340    0.7950 H   0  0  0  0  0  0  0  0  0  0  0  0
    2.1290   -2.6200    1.1420 H   0  0  0  0  0  0  0  0  0  0  0  0
  1 22  1  0
  1  2  1  0
  1 23  1  0
  1 21  1  0
  2  3  1  0
  3 18  2  0
  3  4  1  0
  4  5  2  0
  4 24  1  0
  5 11  1  0
  5  6  1  0
  6  7  1  0
  7  9  1  0
  7  8  2  0
  9 10  2  0
  9 25  1  0
 10 26  1  0
 10 11  1  0
 11 12  2  0
 12 13  1  0
 12 18  1  0
 13 28  1  0
 13 27  1  0
 13 14  1  0
 14 15  2  0
 14 29  1  0
 15 16  1  0
 15 17  1  0
 16 32  1  0
 16 30  1  0
 16 31  1  0
 17 34  1  0
 17 35  1  0
 17 33  1  0
 18 19  1  0
 19 20  1  0
 20 36  1  0
 20 37  1  0
 20 38  1  0
M  END
>  <id>  (429) 
532

>  <scaffolds>  (429) 
['c1ccccc1', 'O=c1ccc2ccccc2o1']

>  <name>  (429) 
Microfolicoumarin

>  <formula>  (429) 
C16H18O4

>  <SMILES>  (429) 
COc2cc1oc(=O)ccc1c(C/C=C(C)/C)c2OC

>  <ChEMBL_id>  (429) 


>  <ZINC_id>  (429) 


>  <PubChem_id>  (429) 


>  <DrugBank_id>  (429) 


>  <CAS_no>  (429) 
462112-96-5

>  <references>  (429) 
[{'journal': {'name': 'Journal of Natural Products', 'id': 5}, 'title': 'Bioactive Constituents of Cedrelopsis microfoliata', 'year': 2002, 'start_page': 1349, 'volume': 65, 'issue': 9, 'doi': '10.1021/np0200562', 'isbn': '', 'despositor': {'code': 'NFA', 'first_name': 'Ngonidzashe', 'last_name': 'Faya', 'id': 21}, 'refauthors_set': [{'author': {'first_name': 'Neil', 'initials': 'NA', 'last_name': 'Koorbanally', 'id': 699}, 'first_author': True, 'id': 1046}, {'author': {'first_name': 'Milijaona', 'initials': 'M', 'last_name': 'Randrianarivelojosia', 'id': 726}, 'first_author': None, 'id': 1136}, {'author': {'first_name': 'Dulcie', 'initials': 'DA', 'last_name': 'Mulholland', 'id': 525}, 'first_author': None, 'id': 1137}, {'author': {'first_name': 'Linda', 'initials': 'L', 'last_name': 'Quarles van Ufford,', 'id': 727}, 'first_author': None, 'id': 1138}, {'author': {'first_name': 'Albert', 'initials': 'AJJ', 'last_name': 'van den Berg', 'id': 728}, 'first_author': None, 'id': 1139}], 'id': 349}]

>  <classifications>  (429) 
[{'classification': 'Coumarin', 'id': 762}, {'classification': 'Coumarins and derivatives (Classyfire)', 'id': 965}]

>  <molecular_mass>  (429) 
274.31

$$$$
SANC00533_minRM1.pdb
     RDKit          3D

 60 61  0  0  1  0  0  0  0  0999 V2000
    0.1710   -1.1420   -2.8600 C   0  0  0  0  0  0  0  0  0  0  0  0
    1.2360   -0.4750   -2.0530 C   0  0  0  0  0  0  0  0  0  0  0  0
    2.4290   -0.4670   -2.3000 O   0  0  0  0  0  0  0  0  0  0  0  0
    0.7360    0.1690   -0.9660 O   0  0  0  0  0  0  0  0  0  0  0  0
    1.6580    0.8130   -0.1070 C   0  0  2  0  0  0  0  0  0  0  0  0
    2.3720    1.4260   -0.7250 H   0  0  0  0  0  0  0  0  0  0  0  0
    2.4020   -0.2090    0.7040 C   0  0  0  0  0  0  0  0  0  0  0  0
    3.8600    0.0480    0.9690 C   0  0  1  0  0  0  0  0  0  0  0  0
    4.6810   -0.2250   -0.2870 C   0  0  0  0  0  0  0  0  0  0  0  0
    4.1160    1.4660    1.4680 C   0  0  0  0  0  0  0  0  0  0  0  0
    1.8360   -1.3300    1.1670 C   0  0  0  0  0  0  0  0  0  0  0  0
    0.4290   -1.6840    1.0430 C   0  0  0  0  0  0  0  0  0  0  0  0
   -0.0070   -2.8500    0.5590 C   0  0  0  0  0  0  0  0  0  0  0  0
    0.8850   -3.8970    0.0010 C   0  0  0  0  0  0  0  0  0  0  0  0
   -1.4700   -3.1700    0.5970 C   0  0  0  0  0  0  0  0  0  0  0  0
   -2.2930   -2.1770   -0.2350 C   0  0  0  0  0  0  0  0  0  0  0  0
   -3.3770   -1.5220    0.5490 C   0  0  0  0  0  0  0  0  0  0  0  0
   -3.8620   -0.3090    0.2660 C   0  0  0  0  0  0  0  0  0  0  0  0
   -4.9500    0.2860    1.0900 C   0  0  0  0  0  0  0  0  0  0  0  0
   -3.3900    0.5190   -0.8830 C   0  0  0  0  0  0  0  0  0  0  0  0
   -2.9570    1.9210   -0.4580 C   0  0  0  0  0  0  0  0  0  0  0  0
   -1.7750    1.8330    0.4780 C   0  0  2  0  0  0  0  0  0  0  0  0
   -1.8840    1.0360    1.2430 H   0  0  0  0  0  0  0  0  0  0  0  0
   -1.2700    3.0760    0.9430 O   0  0  0  0  0  0  0  0  0  0  0  0
   -0.4050    2.3400    0.0970 C   0  0  2  0  0  0  0  0  0  0  0  0
   -0.1390    2.9620   -1.2480 C   0  0  0  0  0  0  0  0  0  0  0  0
    0.8490    1.8080    0.7880 C   0  0  1  0  0  0  0  0  0  0  0  0
    1.5220    2.6900    0.9970 H   0  0  0  0  0  0  0  0  0  0  0  0
    0.4250    1.2390    1.9850 O   0  0  0  0  0  0  0  0  0  0  0  0
    0.5280   -1.3650   -3.8770 H   0  0  0  0  0  0  0  0  0  0  0  0
   -0.1180   -2.0990   -2.3960 H   0  0  0  0  0  0  0  0  0  0  0  0
   -0.7360   -0.5280   -2.9560 H   0  0  0  0  0  0  0  0  0  0  0  0
    4.2140   -0.6540    1.7740 H   0  0  0  0  0  0  0  0  0  0  0  0
    4.4980    0.5040   -1.0890 H   0  0  0  0  0  0  0  0  0  0  0  0
    5.7600   -0.1930   -0.0790 H   0  0  0  0  0  0  0  0  0  0  0  0
    4.4650   -1.2160   -0.7100 H   0  0  0  0  0  0  0  0  0  0  0  0
    3.9470    2.2380    0.7050 H   0  0  0  0  0  0  0  0  0  0  0  0
    3.4940    1.7250    2.3360 H   0  0  0  0  0  0  0  0  0  0  0  0
    5.1620    1.5910    1.7900 H   0  0  0  0  0  0  0  0  0  0  0  0
    2.4310   -2.0630    1.7290 H   0  0  0  0  0  0  0  0  0  0  0  0
   -0.2900   -0.9430    1.4120 H   0  0  0  0  0  0  0  0  0  0  0  0
    1.9230   -3.5670   -0.1480 H   0  0  0  0  0  0  0  0  0  0  0  0
    0.9230   -4.7790    0.6600 H   0  0  0  0  0  0  0  0  0  0  0  0
    0.5340   -4.2490   -0.9820 H   0  0  0  0  0  0  0  0  0  0  0  0
   -1.6620   -4.2080    0.2490 H   0  0  0  0  0  0  0  0  0  0  0  0
   -1.7940   -3.1900    1.6600 H   0  0  0  0  0  0  0  0  0  0  0  0
   -1.6390   -1.4040   -0.7010 H   0  0  0  0  0  0  0  0  0  0  0  0
   -2.7540   -2.6970   -1.1040 H   0  0  0  0  0  0  0  0  0  0  0  0
   -3.7890   -2.1020    1.3820 H   0  0  0  0  0  0  0  0  0  0  0  0
   -5.5400   -0.4640    1.6400 H   0  0  0  0  0  0  0  0  0  0  0  0
   -4.5410    0.9760    1.8440 H   0  0  0  0  0  0  0  0  0  0  0  0
   -5.6710    0.8570    0.4860 H   0  0  0  0  0  0  0  0  0  0  0  0
   -2.5480    0.0260   -1.4200 H   0  0  0  0  0  0  0  0  0  0  0  0
   -4.2040    0.5820   -1.6370 H   0  0  0  0  0  0  0  0  0  0  0  0
   -2.7390    2.5340   -1.3570 H   0  0  0  0  0  0  0  0  0  0  0  0
   -3.7810    2.4730    0.0430 H   0  0  0  0  0  0  0  0  0  0  0  0
    0.8960    3.3190   -1.3540 H   0  0  0  0  0  0  0  0  0  0  0  0
   -0.3170    2.2430   -2.0600 H   0  0  0  0  0  0  0  0  0  0  0  0
   -0.7750    3.8390   -1.4420 H   0  0  0  0  0  0  0  0  0  0  0  0
    1.2060    1.0000    2.4950 H   0  0  0  0  0  0  0  0  0  0  0  0
  1 30  1  0
  1 32  1  0
  1 31  1  0
  1  2  1  0
  2  3  2  0
  2  4  1  0
  4  5  1  0
  5  6  1  6
  5  7  1  0
  5 27  1  0
  7  8  1  0
  7 11  2  0
  8  9  1  0
  8 10  1  0
  8 33  1  1
  9 34  1  0
  9 36  1  0
  9 35  1  0
 10 37  1  0
 10 39  1  0
 10 38  1  0
 11 12  1  0
 11 40  1  0
 12 13  2  0
 12 41  1  0
 13 14  1  0
 13 15  1  0
 14 44  1  0
 14 42  1  0
 14 43  1  0
 15 16  1  0
 15 45  1  0
 15 46  1  0
 16 48  1  0
 16 47  1  0
 16 17  1  0
 17 18  2  0
 17 49  1  0
 18 20  1  0
 18 19  1  0
 19 52  1  0
 19 50  1  0
 19 51  1  0
 20 54  1  0
 20 53  1  0
 20 21  1  0
 21 55  1  0
 21 56  1  0
 21 22  1  0
 22 25  1  0
 22 24  1  0
 22 23  1  1
 24 25  1  0
 25 26  1  6
 25 27  1  0
 26 58  1  0
 26 59  1  0
 26 57  1  0
 27 28  1  1
 27 29  1  0
 29 60  1  0
M  END
>  <id>  (430) 
533

>  <scaffolds>  (430) 
['C1=CCCC=CCCC2OC2CCC=C1']

>  <name>  (430) 
flaccidoxide

>  <formula>  (430) 
C22H34O4

>  <SMILES>  (430) 
CC(=O)O[C@@H]2C(C(C)C)=CC=C(C)CCC=C(C)CC[C@@H]1O[C@@]1(C)[C@H]2O

>  <ChEMBL_id>  (430) 


>  <ZINC_id>  (430) 


>  <PubChem_id>  (430) 


>  <DrugBank_id>  (430) 


>  <CAS_no>  (430) 
77965-78-7

>  <references>  (430) 
[{'journal': {'name': 'Journal of Natural Products', 'id': 5}, 'title': 'Cembrane Diterpenes from the Southern African Soft Coral Cladiella kashmani', 'year': 2000, 'start_page': 1551, 'volume': 63, 'issue': 11, 'doi': '10.1021/np000179r', 'isbn': '', 'despositor': {'code': 'NFA', 'first_name': 'Ngonidzashe', 'last_name': 'Faya', 'id': 21}, 'refauthors_set': [{'author': {'first_name': '', 'initials': 'CA', 'last_name': 'Gray', 'id': 480}, 'first_author': True, 'id': 1047}, {'author': {'first_name': 'Michael', 'initials': 'MT', 'last_name': 'Davies-Coleman', 'id': 449}, 'first_author': None, 'id': 1140}, {'author': {'first_name': 'Michael', 'initials': 'MH', 'last_name': 'Schleyer', 'id': 729}, 'first_author': None, 'id': 1141}], 'id': 350}]

>  <classifications>  (430) 
[{'classification': 'Diterpene', 'id': 771}, {'classification': 'Terpenoid', 'id': 839}, {'classification': 'Phenol lipids (Classyfire)', 'id': 951}]

>  <molecular_mass>  (430) 
362.5

$$$$
SANC00534_minRM1.pdb
     RDKit          3D

 54 55  0  0  1  0  0  0  0  0999 V2000
   -2.5630   -0.7390   -2.3280 C   0  0  0  0  0  0  0  0  0  0  0  0
   -1.7170   -1.3230   -1.2530 C   0  0  0  0  0  0  0  0  0  0  0  0
   -0.4070   -1.0420   -1.1830 C   0  0  0  0  0  0  0  0  0  0  0  0
    0.4540   -1.5860   -0.1510 C   0  0  0  0  0  0  0  0  0  0  0  0
    1.7480   -1.3360    0.0720 C   0  0  0  0  0  0  0  0  0  0  0  0
    2.4300   -2.0120    1.2370 C   0  0  1  0  0  0  0  0  0  0  0  0
    1.6480   -1.8290    2.5340 C   0  0  0  0  0  0  0  0  0  0  0  0
    2.6050   -3.4950    0.9220 C   0  0  0  0  0  0  0  0  0  0  0  0
    2.6790   -0.4740   -0.7380 C   0  0  1  0  0  0  0  0  0  0  0  0
    3.6940   -0.9780   -0.7460 H   0  0  0  0  0  0  0  0  0  0  0  0
    2.2880   -0.2830   -2.0630 O   0  0  0  0  0  0  0  0  0  0  0  0
    2.8600    0.9170   -0.1040 C   0  0  0  0  0  0  0  0  0  0  0  0
    1.7100    1.8760   -0.3080 C   0  0  2  0  0  0  0  0  0  0  0  0
    1.5870    2.4780   -1.6810 C   0  0  0  0  0  0  0  0  0  0  0  0
    1.5460    2.7840    0.7750 O   0  0  0  0  0  0  0  0  0  0  0  0
    0.5080    1.8300    0.6020 C   0  0  1  0  0  0  0  0  0  0  0  0
    0.4430    1.0370    1.3720 H   0  0  0  0  0  0  0  0  0  0  0  0
   -0.8170    2.3970    0.1460 C   0  0  0  0  0  0  0  0  0  0  0  0
   -1.8950    2.3040    1.2350 C   0  0  0  0  0  0  0  0  0  0  0  0
   -2.8480    1.2020    0.8910 C   0  0  0  0  0  0  0  0  0  0  0  0
   -4.1360    1.6320    0.2880 C   0  0  0  0  0  0  0  0  0  0  0  0
   -2.5080   -0.0730    1.0820 C   0  0  0  0  0  0  0  0  0  0  0  0
   -3.3200   -1.2340    0.6240 C   0  0  0  0  0  0  0  0  0  0  0  0
   -2.4510   -2.1490   -0.2480 C   0  0  0  0  0  0  0  0  0  0  0  0
   -3.0750    0.1680   -1.9660 H   0  0  0  0  0  0  0  0  0  0  0  0
   -1.9940   -0.4440   -3.2220 H   0  0  0  0  0  0  0  0  0  0  0  0
   -3.3450   -1.4300   -2.6770 H   0  0  0  0  0  0  0  0  0  0  0  0
    0.0200   -0.3510   -1.9160 H   0  0  0  0  0  0  0  0  0  0  0  0
   -0.0600   -2.2930    0.5240 H   0  0  0  0  0  0  0  0  0  0  0  0
    3.4490   -1.5700    1.4030 H   0  0  0  0  0  0  0  0  0  0  0  0
    0.6890   -2.3660    2.5450 H   0  0  0  0  0  0  0  0  0  0  0  0
    2.2140   -2.1990    3.4020 H   0  0  0  0  0  0  0  0  0  0  0  0
    1.4230   -0.7710    2.7280 H   0  0  0  0  0  0  0  0  0  0  0  0
    3.1950   -3.6500    0.0060 H   0  0  0  0  0  0  0  0  0  0  0  0
    3.1290   -4.0250    1.7290 H   0  0  0  0  0  0  0  0  0  0  0  0
    1.6490   -4.0160    0.7720 H   0  0  0  0  0  0  0  0  0  0  0  0
    2.1920   -1.1560   -2.4570 H   0  0  0  0  0  0  0  0  0  0  0  0
    3.0680    0.7870    0.9810 H   0  0  0  0  0  0  0  0  0  0  0  0
    3.7860    1.3860   -0.5040 H   0  0  0  0  0  0  0  0  0  0  0  0
    0.8790    1.9050   -2.2990 H   0  0  0  0  0  0  0  0  0  0  0  0
    1.2360    3.5200   -1.6610 H   0  0  0  0  0  0  0  0  0  0  0  0
    2.5420    2.4820   -2.2260 H   0  0  0  0  0  0  0  0  0  0  0  0
   -0.7030    3.4540   -0.1780 H   0  0  0  0  0  0  0  0  0  0  0  0
   -1.1330    1.8560   -0.7720 H   0  0  0  0  0  0  0  0  0  0  0  0
   -1.4570    2.1550    2.2440 H   0  0  0  0  0  0  0  0  0  0  0  0
   -2.4280    3.2740    1.3310 H   0  0  0  0  0  0  0  0  0  0  0  0
   -3.9780    2.2940   -0.5770 H   0  0  0  0  0  0  0  0  0  0  0  0
   -4.7570    0.7910   -0.0640 H   0  0  0  0  0  0  0  0  0  0  0  0
   -4.7460    2.1900    1.0140 H   0  0  0  0  0  0  0  0  0  0  0  0
   -1.5590   -0.3360    1.5630 H   0  0  0  0  0  0  0  0  0  0  0  0
   -3.7180   -1.7920    1.4990 H   0  0  0  0  0  0  0  0  0  0  0  0
   -4.2280   -0.9130    0.0640 H   0  0  0  0  0  0  0  0  0  0  0  0
   -3.0720   -2.9240   -0.7460 H   0  0  0  0  0  0  0  0  0  0  0  0
   -1.7490   -2.7350    0.3890 H   0  0  0  0  0  0  0  0  0  0  0  0
  1 26  1  0
  1 27  1  0
  1 25  1  0
  1  2  1  0
  2  3  2  0
  2 24  1  0
  3 28  1  0
  3  4  1  0
  4  5  2  0
  4 29  1  0
  5  9  1  0
  5  6  1  0
  6  8  1  0
  6 30  1  1
  6  7  1  0
  7 31  1  0
  7 33  1  0
  7 32  1  0
  8 34  1  0
  8 36  1  0
  8 35  1  0
  9 11  1  0
  9 10  1  6
  9 12  1  0
 11 37  1  0
 12 39  1  0
 12 13  1  0
 12 38  1  0
 13 14  1  6
 13 16  1  0
 13 15  1  0
 14 40  1  0
 14 42  1  0
 14 41  1  0
 15 16  1  0
 16 18  1  0
 16 17  1  1
 18 44  1  0
 18 43  1  0
 18 19  1  0
 19 20  1  0
 19 46  1  0
 19 45  1  0
 20 21  1  0
 20 22  2  0
 21 47  1  0
 21 48  1  0
 21 49  1  0
 22 23  1  0
 22 50  1  0
 23 24  1  0
 23 52  1  0
 23 51  1  0
 24 53  1  0
 24 54  1  0
M  END
>  <id>  (431) 
534

>  <scaffolds>  (431) 
['C1=CCCC=CCCC2OC2CCC=C1']

>  <name>  (431) 
(1Z,3E,7E,11S,12S,14S)-11,12-Epoxy cembra-1,3,7-trien-14-ol

>  <formula>  (431) 
C20H32O2

>  <SMILES>  (431) 
CC2=CC=C(C(C)C)[C@@H](O)C[C@]1(C)O[C@H]1CCC(C)=CCC2

>  <ChEMBL_id>  (431) 


>  <ZINC_id>  (431) 


>  <PubChem_id>  (431) 


>  <DrugBank_id>  (431) 


>  <CAS_no>  (431) 
88924-81-6

>  <references>  (431) 
[{'journal': {'name': 'Journal of Natural Products', 'id': 5}, 'title': 'Cembrane Diterpenes from the Southern African Soft Coral Cladiella kashmani', 'year': 2000, 'start_page': 1551, 'volume': 63, 'issue': 11, 'doi': '10.1021/np000179r', 'isbn': '', 'despositor': {'code': 'NFA', 'first_name': 'Ngonidzashe', 'last_name': 'Faya', 'id': 21}, 'refauthors_set': [{'author': {'first_name': '', 'initials': 'CA', 'last_name': 'Gray', 'id': 480}, 'first_author': True, 'id': 1047}, {'author': {'first_name': 'Michael', 'initials': 'MT', 'last_name': 'Davies-Coleman', 'id': 449}, 'first_author': None, 'id': 1140}, {'author': {'first_name': 'Michael', 'initials': 'MH', 'last_name': 'Schleyer', 'id': 729}, 'first_author': None, 'id': 1141}], 'id': 350}]

>  <classifications>  (431) 
[{'classification': 'Diterpene', 'id': 771}, {'classification': 'Terpenoid', 'id': 839}, {'classification': 'Phenol lipids (Classyfire)', 'id': 951}]

>  <molecular_mass>  (431) 
304.47

$$$$
SANC00535_minRM1.pdb
     RDKit          3D

 65 66  0  0  1  0  0  0  0  0999 V2000
   -0.5570    2.6400    2.2230 C   0  0  0  0  0  0  0  0  0  0  0  0
    0.7090    1.9670    1.8020 C   0  0  0  0  0  0  0  0  0  0  0  0
    1.8380    2.3870    1.9720 O   0  0  0  0  0  0  0  0  0  0  0  0
    0.4860    0.7750    1.1880 O   0  0  0  0  0  0  0  0  0  0  0  0
    1.6220    0.0430    0.7620 C   0  0  2  0  0  0  0  0  0  0  0  0
    2.3570   -0.0090    1.6160 H   0  0  0  0  0  0  0  0  0  0  0  0
    2.2460    0.6890   -0.4390 C   0  0  0  0  0  0  0  0  0  0  0  0
    3.7480    0.6480   -0.5360 C   0  0  1  0  0  0  0  0  0  0  0  0
    4.3550    1.6970    0.3890 C   0  0  0  0  0  0  0  0  0  0  0  0
    4.3140   -0.7320   -0.2230 C   0  0  0  0  0  0  0  0  0  0  0  0
    1.5470    1.3100   -1.3950 C   0  0  0  0  0  0  0  0  0  0  0  0
    0.0970    1.3950   -1.4800 C   0  0  0  0  0  0  0  0  0  0  0  0
   -0.5700    2.5410   -1.6410 C   0  0  0  0  0  0  0  0  0  0  0  0
    0.0770    3.8770   -1.6500 C   0  0  0  0  0  0  0  0  0  0  0  0
   -2.0500    2.5260   -1.8690 C   0  0  0  0  0  0  0  0  0  0  0  0
   -2.8050    1.8570   -0.7130 C   0  0  0  0  0  0  0  0  0  0  0  0
   -3.5950    0.6670   -1.1380 C   0  0  0  0  0  0  0  0  0  0  0  0
   -3.9040   -0.3410   -0.3170 C   0  0  0  0  0  0  0  0  0  0  0  0
   -4.7130   -1.4950   -0.7980 C   0  0  0  0  0  0  0  0  0  0  0  0
   -3.4940   -0.3910    1.1180 C   0  0  0  0  0  0  0  0  0  0  0  0
   -2.7320   -1.6690    1.4630 C   0  0  0  0  0  0  0  0  0  0  0  0
   -1.4620   -1.7550    0.6510 C   0  0  2  0  0  0  0  0  0  0  0  0
   -1.5770   -1.3730   -0.3850 H   0  0  0  0  0  0  0  0  0  0  0  0
   -0.7360   -2.9700    0.7790 O   0  0  0  0  0  0  0  0  0  0  0  0
   -0.0920   -1.8130    1.2820 C   0  0  2  0  0  0  0  0  0  0  0  0
    0.0910   -1.7420    2.7720 C   0  0  0  0  0  0  0  0  0  0  0  0
    1.1530   -1.4190    0.4920 C   0  0  1  0  0  0  0  0  0  0  0  0
    1.9950   -2.0990    0.8060 H   0  0  0  0  0  0  0  0  0  0  0  0
    0.8540   -1.5310   -0.8800 O   0  0  0  0  0  0  0  0  0  0  0  0
    1.1790   -2.6730   -1.5480 C   0  0  0  0  0  0  0  0  0  0  0  0
    0.5680   -2.6930   -2.9120 C   0  0  0  0  0  0  0  0  0  0  0  0
    1.8990   -3.5160   -1.0530 O   0  0  0  0  0  0  0  0  0  0  0  0
   -0.3730    3.3340    3.0570 H   0  0  0  0  0  0  0  0  0  0  0  0
   -0.9700    3.2300    1.3910 H   0  0  0  0  0  0  0  0  0  0  0  0
   -1.3320    1.9310    2.5500 H   0  0  0  0  0  0  0  0  0  0  0  0
    4.0510    0.8950   -1.5900 H   0  0  0  0  0  0  0  0  0  0  0  0
    4.2100    1.4690    1.4540 H   0  0  0  0  0  0  0  0  0  0  0  0
    5.4410    1.7910    0.2360 H   0  0  0  0  0  0  0  0  0  0  0  0
    3.9200    2.6920    0.2200 H   0  0  0  0  0  0  0  0  0  0  0  0
    4.2420   -1.0070    0.8380 H   0  0  0  0  0  0  0  0  0  0  0  0
    3.8150   -1.5240   -0.7990 H   0  0  0  0  0  0  0  0  0  0  0  0
    5.3840   -0.7900   -0.4720 H   0  0  0  0  0  0  0  0  0  0  0  0
    2.0680    1.7830   -2.2400 H   0  0  0  0  0  0  0  0  0  0  0  0
   -0.4430    0.4420   -1.4530 H   0  0  0  0  0  0  0  0  0  0  0  0
    1.1400    3.8640   -1.3670 H   0  0  0  0  0  0  0  0  0  0  0  0
    0.0180    4.3410   -2.6470 H   0  0  0  0  0  0  0  0  0  0  0  0
   -0.4150    4.5680   -0.9470 H   0  0  0  0  0  0  0  0  0  0  0  0
   -2.4410    3.5550   -2.0280 H   0  0  0  0  0  0  0  0  0  0  0  0
   -2.2480    2.0230   -2.8420 H   0  0  0  0  0  0  0  0  0  0  0  0
   -2.1110    1.5820    0.1140 H   0  0  0  0  0  0  0  0  0  0  0  0
   -3.5040    2.5850   -0.2440 H   0  0  0  0  0  0  0  0  0  0  0  0
   -3.9470    0.6650   -2.1750 H   0  0  0  0  0  0  0  0  0  0  0  0
   -5.3280   -1.2570   -1.6780 H   0  0  0  0  0  0  0  0  0  0  0  0
   -4.0670   -2.3390   -1.0850 H   0  0  0  0  0  0  0  0  0  0  0  0
   -5.4090   -1.8680   -0.0320 H   0  0  0  0  0  0  0  0  0  0  0  0
   -2.8720    0.4910    1.3940 H   0  0  0  0  0  0  0  0  0  0  0  0
   -4.4010   -0.3020    1.7550 H   0  0  0  0  0  0  0  0  0  0  0  0
   -2.5350   -1.7020    2.5550 H   0  0  0  0  0  0  0  0  0  0  0  0
   -3.3480   -2.5750    1.2760 H   0  0  0  0  0  0  0  0  0  0  0  0
    1.1450   -1.8340    3.0750 H   0  0  0  0  0  0  0  0  0  0  0  0
   -0.2720   -0.7830    3.1680 H   0  0  0  0  0  0  0  0  0  0  0  0
   -0.4430   -2.5440    3.3040 H   0  0  0  0  0  0  0  0  0  0  0  0
    0.3040   -1.6950   -3.2920 H   0  0  0  0  0  0  0  0  0  0  0  0
    1.2520   -3.1550   -3.6390 H   0  0  0  0  0  0  0  0  0  0  0  0
   -0.3550   -3.2920   -2.8990 H   0  0  0  0  0  0  0  0  0  0  0  0
  1 34  1  0
  1  2  1  0
  1 35  1  0
  1 33  1  0
  2  4  1  0
  2  3  2  0
  4  5  1  0
  5  7  1  0
  5 27  1  0
  5  6  1  1
  7 11  2  0
  7  8  1  0
  8 36  1  6
  8 10  1  0
  8  9  1  0
  9 39  1  0
  9 38  1  0
  9 37  1  0
 10 41  1  0
 10 42  1  0
 10 40  1  0
 11 43  1  0
 11 12  1  0
 12 13  2  0
 12 44  1  0
 13 15  1  0
 13 14  1  0
 14 46  1  0
 14 45  1  0
 14 47  1  0
 15 49  1  0
 15 48  1  0
 15 16  1  0
 16 17  1  0
 16 51  1  0
 16 50  1  0
 17 52  1  0
 17 18  2  0
 18 19  1  0
 18 20  1  0
 19 53  1  0
 19 54  1  0
 19 55  1  0
 20 56  1  0
 20 21  1  0
 20 57  1  0
 21 22  1  0
 21 59  1  0
 21 58  1  0
 22 23  1  6
 22 24  1  0
 22 25  1  0
 24 25  1  0
 25 27  1  0
 25 26  1  1
 26 60  1  0
 26 61  1  0
 26 62  1  0
 27 29  1  0
 27 28  1  1
 29 30  1  0
 30 31  1  0
 30 32  2  0
 31 64  1  0
 31 63  1  0
 31 65  1  0
M  END
>  <id>  (432) 
535

>  <scaffolds>  (432) 
['C1=CCCC=CCCC2OC2CCC=C1']

>  <name>  (432) 
Flaccidoxide-13-acetate

>  <formula>  (432) 
C24H36O5

>  <SMILES>  (432) 
CC(=O)O[C@@H]2C(C(C)C)=CC=C(C)CCC=C(C)CC[C@@H]1O[C@@]1(C)[C@H]2OC(C)=O

>  <ChEMBL_id>  (432) 


>  <ZINC_id>  (432) 


>  <PubChem_id>  (432) 


>  <DrugBank_id>  (432) 


>  <CAS_no>  (432) 
303966-02-1

>  <references>  (432) 
[{'journal': {'name': 'Journal of Natural Products', 'id': 5}, 'title': 'Cembrane Diterpenes from the Southern African Soft Coral Cladiella kashmani', 'year': 2000, 'start_page': 1551, 'volume': 63, 'issue': 11, 'doi': '10.1021/np000179r', 'isbn': '', 'despositor': {'code': 'NFA', 'first_name': 'Ngonidzashe', 'last_name': 'Faya', 'id': 21}, 'refauthors_set': [{'author': {'first_name': '', 'initials': 'CA', 'last_name': 'Gray', 'id': 480}, 'first_author': True, 'id': 1047}, {'author': {'first_name': 'Michael', 'initials': 'MT', 'last_name': 'Davies-Coleman', 'id': 449}, 'first_author': None, 'id': 1140}, {'author': {'first_name': 'Michael', 'initials': 'MH', 'last_name': 'Schleyer', 'id': 729}, 'first_author': None, 'id': 1141}], 'id': 350}]

>  <classifications>  (432) 
[{'classification': 'Diterpene', 'id': 771}, {'classification': 'Terpenoid', 'id': 839}, {'classification': 'Phenol lipids (Classyfire)', 'id': 951}]

>  <molecular_mass>  (432) 
404.54

$$$$
SANC00536_minRM1.pdb
     RDKit          3D

 56 57  0  0  1  0  0  0  0  0999 V2000
    4.4140   -0.2250    1.3590 C   0  0  0  0  0  0  0  0  0  0  0  0
    3.0770   -0.3400    0.9630 O   0  0  0  0  0  0  0  0  0  0  0  0
    2.8450   -0.4980   -0.4170 C   0  0  1  0  0  0  0  0  0  0  0  0
    3.6670   -1.6520   -1.0100 C   0  0  0  0  0  0  0  0  0  0  0  0
    1.3970   -0.8990   -0.5380 C   0  0  0  0  0  0  0  0  0  0  0  0
    0.8160   -1.7520    0.3060 C   0  0  0  0  0  0  0  0  0  0  0  0
   -0.6200   -2.1760    0.1890 C   0  0  1  0  0  0  0  0  0  0  0  0
   -1.0980   -1.6950   -0.7040 H   0  0  0  0  0  0  0  0  0  0  0  0
   -0.6610   -3.7030   -0.0200 C   0  0  1  0  0  0  0  0  0  0  0  0
   -2.0940   -4.1890   -0.2020 C   0  0  0  0  0  0  0  0  0  0  0  0
    0.1540   -4.0840   -1.2540 C   0  0  0  0  0  0  0  0  0  0  0  0
   -1.3650   -1.7530    1.4710 C   0  0  0  0  0  0  0  0  0  0  0  0
   -2.6940   -1.0500    1.1820 C   0  0  0  0  0  0  0  0  0  0  0  0
   -2.4930    0.2300    0.4820 C   0  0  0  0  0  0  0  0  0  0  0  0
   -1.3570    0.8420    0.1350 C   0  0  0  0  0  0  0  0  0  0  0  0
   -1.6840    2.0610   -0.6930 C   0  0  2  0  0  0  0  0  0  0  0  0
   -1.4410    1.8860   -1.7730 H   0  0  0  0  0  0  0  0  0  0  0  0
   -0.9990    3.3190   -0.1600 C   0  0  0  0  0  0  0  0  0  0  0  0
    0.4480    3.0390    0.1120 C   0  0  0  0  0  0  0  0  0  0  0  0
    0.9490    3.5550    1.4140 C   0  0  0  0  0  0  0  0  0  0  0  0
    1.2150    2.3700   -0.7540 C   0  0  0  0  0  0  0  0  0  0  0  0
    2.6590    2.0880   -0.5210 C   0  0  0  0  0  0  0  0  0  0  0  0
    3.1570    0.8050   -1.1860 C   0  0  0  0  0  0  0  0  0  0  0  0
   -3.1010    2.1960   -0.6180 O   0  0  0  0  0  0  0  0  0  0  0  0
   -3.6140    1.0820    0.0120 C   0  0  0  0  0  0  0  0  0  0  0  0
   -4.8150    0.9760    0.0920 O   0  0  0  0  0  0  0  0  0  0  0  0
    4.3560    0.0890    2.4130 H   0  0  0  0  0  0  0  0  0  0  0  0
    4.9580   -1.1840    1.3170 H   0  0  0  0  0  0  0  0  0  0  0  0
    5.0000    0.5270    0.8060 H   0  0  0  0  0  0  0  0  0  0  0  0
    3.5560   -2.5720   -0.4180 H   0  0  0  0  0  0  0  0  0  0  0  0
    3.3370   -1.8900   -2.0320 H   0  0  0  0  0  0  0  0  0  0  0  0
    4.7430   -1.4390   -1.0750 H   0  0  0  0  0  0  0  0  0  0  0  0
    0.8690   -0.4820   -1.4010 H   0  0  0  0  0  0  0  0  0  0  0  0
    1.3620   -2.1880    1.1510 H   0  0  0  0  0  0  0  0  0  0  0  0
   -0.2140   -4.2110    0.8740 H   0  0  0  0  0  0  0  0  0  0  0  0
   -2.6130   -3.6720   -1.0220 H   0  0  0  0  0  0  0  0  0  0  0  0
   -2.1350   -5.2640   -0.4340 H   0  0  0  0  0  0  0  0  0  0  0  0
   -2.7100   -4.0540    0.6990 H   0  0  0  0  0  0  0  0  0  0  0  0
    0.1470   -5.1690   -1.4310 H   0  0  0  0  0  0  0  0  0  0  0  0
   -0.2300   -3.6130   -2.1700 H   0  0  0  0  0  0  0  0  0  0  0  0
    1.2110   -3.7920   -1.1670 H   0  0  0  0  0  0  0  0  0  0  0  0
   -1.5460   -2.6240    2.1360 H   0  0  0  0  0  0  0  0  0  0  0  0
   -0.7320   -1.0900    2.1010 H   0  0  0  0  0  0  0  0  0  0  0  0
   -3.3680   -1.6960    0.5780 H   0  0  0  0  0  0  0  0  0  0  0  0
   -3.2520   -0.8710    2.1280 H   0  0  0  0  0  0  0  0  0  0  0  0
   -0.3330    0.5820    0.3830 H   0  0  0  0  0  0  0  0  0  0  0  0
   -1.0990    4.1530   -0.8870 H   0  0  0  0  0  0  0  0  0  0  0  0
   -1.5250    3.6850    0.7480 H   0  0  0  0  0  0  0  0  0  0  0  0
    0.3640    3.1580    2.2590 H   0  0  0  0  0  0  0  0  0  0  0  0
    1.9980    3.2850    1.6170 H   0  0  0  0  0  0  0  0  0  0  0  0
    0.8850    4.6530    1.4620 H   0  0  0  0  0  0  0  0  0  0  0  0
    0.8200    2.0300   -1.7160 H   0  0  0  0  0  0  0  0  0  0  0  0
    3.2350    2.9530   -0.9250 H   0  0  0  0  0  0  0  0  0  0  0  0
    2.8990    2.0910    0.5670 H   0  0  0  0  0  0  0  0  0  0  0  0
    4.2560    0.8920   -1.3330 H   0  0  0  0  0  0  0  0  0  0  0  0
    2.7680    0.7210   -2.2220 H   0  0  0  0  0  0  0  0  0  0  0  0
  1 29  1  0
  1  2  1  0
  1 28  1  0
  1 27  1  0
  3  2  1  1
  3 23  1  0
  3  4  1  0
  3  5  1  0
  4 31  1  0
  4 32  1  0
  4 30  1  0
  5 33  1  0
  5  6  2  0
  6  7  1  0
  6 34  1  0
  7  8  1  6
  7  9  1  0
  7 12  1  0
  9 11  1  0
  9 10  1  0
  9 35  1  1
 10 36  1  0
 10 37  1  0
 10 38  1  0
 11 40  1  0
 11 39  1  0
 11 41  1  0
 12 13  1  0
 12 43  1  0
 12 42  1  0
 13 14  1  0
 13 44  1  0
 13 45  1  0
 14 25  1  0
 14 15  2  0
 15 16  1  0
 15 46  1  0
 16 17  1  6
 16 24  1  0
 16 18  1  0
 18 47  1  0
 18 19  1  0
 18 48  1  0
 19 21  2  0
 19 20  1  0
 20 51  1  0
 20 50  1  0
 20 49  1  0
 21 52  1  0
 21 22  1  0
 22 23  1  0
 22 53  1  0
 22 54  1  0
 23 56  1  0
 23 55  1  0
 24 25  1  0
 25 26  2  0
M  END
>  <id>  (433) 
536

>  <scaffolds>  (433) 
[]

>  <name>  (433) 
(-)-(1R*,4R*,10R*)-4-Methoxycembra-2E,7E,11Z-trien-20,10-olide

>  <formula>  (433) 
C21H32O3

>  <SMILES>  (433) 
CO[C@@]1(C)C=C[C@@H](C(C)C)CCC2=C[C@H](CC(C)=CCC1)OC2=O

>  <ChEMBL_id>  (433) 


>  <ZINC_id>  (433) 


>  <PubChem_id>  (433) 


>  <DrugBank_id>  (433) 


>  <CAS_no>  (433) 
1346224-10-9

>  <references>  (433) 
[{'journal': {'name': 'Journal of Natural Products', 'id': 5}, 'title': 'Cembranolides from the Leaves of Croton gratissimus', 'year': 2011, 'start_page': 2349, 'volume': 74, 'issue': None, 'doi': '10.1021/np2002012', 'isbn': '', 'despositor': {'code': 'NFA', 'first_name': 'Ngonidzashe', 'last_name': 'Faya', 'id': 21}, 'refauthors_set': [{'author': {'first_name': 'Moses', 'initials': 'MK', 'last_name': 'Langat', 'id': 730}, 'first_author': True, 'id': 1048}, {'author': {'first_name': 'Neil', 'initials': 'NR', 'last_name': 'Crouch', 'id': 524}, 'first_author': None, 'id': 1142}, {'author': {'first_name': 'Peter', 'initials': 'PJ', 'last_name': 'Smith', 'id': 490}, 'first_author': None, 'id': 1143}, {'author': {'first_name': 'Dulcie', 'initials': 'DA', 'last_name': 'Mulholland', 'id': 525}, 'first_author': None, 'id': 1144}], 'id': 351}]

>  <classifications>  (433) 
[{'classification': 'Cembranolide', 'id': 758}, {'classification': 'Phenol lipids (Classyfire)', 'id': 951}]

>  <molecular_mass>  (433) 
332.48

$$$$
SANC00537_minRM1.pdb
     RDKit          3D

 57 58  0  0  1  0  0  0  0  0999 V2000
   -4.6790   -0.4800   -1.2150 C   0  0  0  0  0  0  0  0  0  0  0  0
   -3.3180   -0.5940   -0.9090 O   0  0  0  0  0  0  0  0  0  0  0  0
   -2.9740   -0.5290    0.4550 C   0  0  1  0  0  0  0  0  0  0  0  0
   -3.6940   -1.6130    1.2700 C   0  0  0  0  0  0  0  0  0  0  0  0
   -1.4990   -0.8350    0.5050 C   0  0  0  0  0  0  0  0  0  0  0  0
   -0.9350   -1.8040   -0.2110 C   0  0  0  0  0  0  0  0  0  0  0  0
    0.5420   -2.1310   -0.1400 C   0  0  1  0  0  0  0  0  0  0  0  0
    1.0970   -1.7420    1.0800 O   0  0  0  0  0  0  0  0  0  0  0  0
    0.7300   -3.6590   -0.3560 C   0  0  1  0  0  0  0  0  0  0  0  0
    2.2000   -4.0500   -0.2960 C   0  0  0  0  0  0  0  0  0  0  0  0
   -0.0420   -4.4670    0.6820 C   0  0  0  0  0  0  0  0  0  0  0  0
    1.2530   -1.3120   -1.2490 C   0  0  0  0  0  0  0  0  0  0  0  0
    2.6040   -0.7000   -0.8680 C   0  0  0  0  0  0  0  0  0  0  0  0
    2.4430    0.6110   -0.2120 C   0  0  0  0  0  0  0  0  0  0  0  0
    1.4050    1.1140    0.4620 C   0  0  0  0  0  0  0  0  0  0  0  0
    1.7250    2.5220    0.9010 C   0  0  2  0  0  0  0  0  0  0  0  0
    1.7260    2.6080    2.0170 H   0  0  0  0  0  0  0  0  0  0  0  0
    0.8140    3.5780    0.2530 C   0  0  0  0  0  0  0  0  0  0  0  0
   -0.4870    3.0050   -0.2160 C   0  0  0  0  0  0  0  0  0  0  0  0
   -0.7260    3.0880   -1.6810 C   0  0  0  0  0  0  0  0  0  0  0  0
   -1.3710    2.4880    0.6430 C   0  0  0  0  0  0  0  0  0  0  0  0
   -2.7250    2.0210    0.2270 C   0  0  0  0  0  0  0  0  0  0  0  0
   -3.2740    0.8600    1.0550 C   0  0  0  0  0  0  0  0  0  0  0  0
    3.0650    2.7520    0.4700 O   0  0  0  0  0  0  0  0  0  0  0  0
    3.5090    1.6420   -0.2150 C   0  0  0  0  0  0  0  0  0  0  0  0
    4.6270    1.6680   -0.6750 O   0  0  0  0  0  0  0  0  0  0  0  0
   -4.6990   -0.4300   -2.3160 H   0  0  0  0  0  0  0  0  0  0  0  0
   -5.2730   -1.3550   -0.9010 H   0  0  0  0  0  0  0  0  0  0  0  0
   -5.1630    0.4290   -0.8210 H   0  0  0  0  0  0  0  0  0  0  0  0
   -3.6160   -2.6000    0.7900 H   0  0  0  0  0  0  0  0  0  0  0  0
   -3.2610   -1.7120    2.2760 H   0  0  0  0  0  0  0  0  0  0  0  0
   -4.7640   -1.4100    1.4150 H   0  0  0  0  0  0  0  0  0  0  0  0
   -0.9200   -0.2090    1.1980 H   0  0  0  0  0  0  0  0  0  0  0  0
   -1.5120   -2.3920   -0.9330 H   0  0  0  0  0  0  0  0  0  0  0  0
    0.6210   -2.1980    1.7800 H   0  0  0  0  0  0  0  0  0  0  0  0
    0.3290   -3.9160   -1.3700 H   0  0  0  0  0  0  0  0  0  0  0  0
    2.7890   -3.6190   -1.1180 H   0  0  0  0  0  0  0  0  0  0  0  0
    2.6830   -3.7370    0.6410 H   0  0  0  0  0  0  0  0  0  0  0  0
    2.3310   -5.1400   -0.3680 H   0  0  0  0  0  0  0  0  0  0  0  0
   -1.0830   -4.1330    0.8060 H   0  0  0  0  0  0  0  0  0  0  0  0
   -0.0920   -5.5300    0.4040 H   0  0  0  0  0  0  0  0  0  0  0  0
    0.4220   -4.4430    1.6810 H   0  0  0  0  0  0  0  0  0  0  0  0
    1.3820   -1.9530   -2.1470 H   0  0  0  0  0  0  0  0  0  0  0  0
    0.5780   -0.5040   -1.6110 H   0  0  0  0  0  0  0  0  0  0  0  0
    3.2020   -1.3690   -0.2120 H   0  0  0  0  0  0  0  0  0  0  0  0
    3.2310   -0.5760   -1.7800 H   0  0  0  0  0  0  0  0  0  0  0  0
    0.4550    0.6470    0.7050 H   0  0  0  0  0  0  0  0  0  0  0  0
    0.6210    4.4000    0.9750 H   0  0  0  0  0  0  0  0  0  0  0  0
    1.3440    4.0890   -0.5810 H   0  0  0  0  0  0  0  0  0  0  0  0
    0.1290    2.7050   -2.2590 H   0  0  0  0  0  0  0  0  0  0  0  0
   -1.6050    2.5070   -2.0120 H   0  0  0  0  0  0  0  0  0  0  0  0
   -0.8930    4.1290   -1.9980 H   0  0  0  0  0  0  0  0  0  0  0  0
   -1.1470    2.4470    1.7140 H   0  0  0  0  0  0  0  0  0  0  0  0
   -3.4110    2.8960    0.3210 H   0  0  0  0  0  0  0  0  0  0  0  0
   -2.7480    1.7820   -0.8630 H   0  0  0  0  0  0  0  0  0  0  0  0
   -4.3720    0.9860    1.1780 H   0  0  0  0  0  0  0  0  0  0  0  0
   -2.8980    0.8970    2.0990 H   0  0  0  0  0  0  0  0  0  0  0  0
  1 27  1  0
  1  2  1  0
  1 28  1  0
  1 29  1  0
  3  2  1  6
  3  5  1  0
  3 23  1  0
  3  4  1  0
  4 30  1  0
  4 32  1  0
  4 31  1  0
  5  6  2  0
  5 33  1  0
  6 34  1  0
  6  7  1  0
  7 12  1  0
  7  9  1  0
  7  8  1  1
  8 35  1  0
  9 36  1  6
  9 10  1  0
  9 11  1  0
 10 37  1  0
 10 39  1  0
 10 38  1  0
 11 41  1  0
 11 40  1  0
 11 42  1  0
 12 43  1  0
 12 44  1  0
 12 13  1  0
 13 46  1  0
 13 45  1  0
 13 14  1  0
 14 25  1  0
 14 15  2  0
 15 47  1  0
 15 16  1  0
 16 18  1  0
 16 24  1  0
 16 17  1  1
 18 49  1  0
 18 19  1  0
 18 48  1  0
 19 20  1  0
 19 21  2  0
 20 50  1  0
 20 51  1  0
 20 52  1  0
 21 22  1  0
 21 53  1  0
 22 55  1  0
 22 54  1  0
 22 23  1  0
 23 56  1  0
 23 57  1  0
 24 25  1  0
 25 26  2  0
M  END
>  <id>  (434) 
537

>  <scaffolds>  (434) 
[]

>  <name>  (434) 
(-)-(1S*,4R*,10R*)-1-Hydroxy-4-methoxycembra-2E,7E,11Z-trien-20,10-olide

>  <formula>  (434) 
C21H32O4

>  <SMILES>  (434) 
CO[C@@]1(C)C=C[C@@](O)(C(C)C)CCC2=C[C@H](CC(C)=CCC1)OC2=O

>  <ChEMBL_id>  (434) 


>  <ZINC_id>  (434) 


>  <PubChem_id>  (434) 


>  <DrugBank_id>  (434) 


>  <CAS_no>  (434) 
1346224-11-0

>  <references>  (434) 
[{'journal': {'name': 'Journal of Natural Products', 'id': 5}, 'title': 'Cembranolides from the Leaves of Croton gratissimus', 'year': 2011, 'start_page': 2349, 'volume': 74, 'issue': None, 'doi': '10.1021/np2002012', 'isbn': '', 'despositor': {'code': 'NFA', 'first_name': 'Ngonidzashe', 'last_name': 'Faya', 'id': 21}, 'refauthors_set': [{'author': {'first_name': 'Moses', 'initials': 'MK', 'last_name': 'Langat', 'id': 730}, 'first_author': True, 'id': 1048}, {'author': {'first_name': 'Neil', 'initials': 'NR', 'last_name': 'Crouch', 'id': 524}, 'first_author': None, 'id': 1142}, {'author': {'first_name': 'Peter', 'initials': 'PJ', 'last_name': 'Smith', 'id': 490}, 'first_author': None, 'id': 1143}, {'author': {'first_name': 'Dulcie', 'initials': 'DA', 'last_name': 'Mulholland', 'id': 525}, 'first_author': None, 'id': 1144}], 'id': 351}]

>  <classifications>  (434) 
[{'classification': 'Cembranolide', 'id': 758}, {'classification': 'Phenol lipids (Classyfire)', 'id': 951}]

>  <molecular_mass>  (434) 
348.48

$$$$
SANC00538_minRM1.pdb
     RDKit          3D

 54 55  0  0  1  0  0  0  0  0999 V2000
    2.1740    1.1760   -1.4550 C   0  0  0  0  0  0  0  0  0  0  0  0
    2.0060    1.7710   -0.1030 C   0  0  0  0  0  0  0  0  0  0  0  0
    0.8990    2.4320    0.2520 C   0  0  0  0  0  0  0  0  0  0  0  0
   -0.2350    2.6700   -0.6860 C   0  0  0  0  0  0  0  0  0  0  0  0
   -1.5080    3.1640    0.0090 C   0  0  0  0  0  0  0  0  0  0  0  0
   -2.6870    2.1750   -0.1350 C   0  0  1  0  0  0  0  0  0  0  0  0
   -3.9200    2.7000    0.6170 C   0  0  0  0  0  0  0  0  0  0  0  0
   -2.9590    2.1160   -1.5050 O   0  0  0  0  0  0  0  0  0  0  0  0
   -2.2720    0.8520    0.4480 C   0  0  0  0  0  0  0  0  0  0  0  0
   -1.9350   -0.2090   -0.2800 C   0  0  0  0  0  0  0  0  0  0  0  0
   -1.3460   -1.4690    0.3050 C   0  0  1  0  0  0  0  0  0  0  0  0
   -0.9880   -1.3010    1.6450 O   0  0  0  0  0  0  0  0  0  0  0  0
   -2.3890   -2.6160    0.3160 C   0  0  1  0  0  0  0  0  0  0  0  0
   -3.5700   -2.2710    1.2160 C   0  0  0  0  0  0  0  0  0  0  0  0
   -2.8950   -2.9010   -1.0920 C   0  0  0  0  0  0  0  0  0  0  0  0
   -0.1070   -1.8410   -0.5560 C   0  0  0  0  0  0  0  0  0  0  0  0
    1.0040   -2.5740    0.2070 C   0  0  0  0  0  0  0  0  0  0  0  0
    2.0830   -1.6140    0.5210 C   0  0  0  0  0  0  0  0  0  0  0  0
    2.1350   -0.6280    1.4230 C   0  0  0  0  0  0  0  0  0  0  0  0
    3.4150    0.1520    1.2290 C   0  0  2  0  0  0  0  0  0  0  0  0
    4.0830    0.0880    2.1260 H   0  0  0  0  0  0  0  0  0  0  0  0
    3.1530    1.6130    0.8420 C   0  0  0  0  0  0  0  0  0  0  0  0
    4.1050   -0.5060    0.1720 O   0  0  0  0  0  0  0  0  0  0  0  0
    3.3360   -1.5550   -0.2750 C   0  0  0  0  0  0  0  0  0  0  0  0
    3.7640   -2.2380   -1.1750 O   0  0  0  0  0  0  0  0  0  0  0  0
    1.5820    0.2440   -1.5450 H   0  0  0  0  0  0  0  0  0  0  0  0
    1.8380    1.8470   -2.2610 H   0  0  0  0  0  0  0  0  0  0  0  0
    3.2160    0.9260   -1.7030 H   0  0  0  0  0  0  0  0  0  0  0  0
    0.8000    2.8570    1.2570 H   0  0  0  0  0  0  0  0  0  0  0  0
    0.0910    3.4140   -1.4480 H   0  0  0  0  0  0  0  0  0  0  0  0
   -0.4410    1.7560   -1.2870 H   0  0  0  0  0  0  0  0  0  0  0  0
   -1.3420    3.3600    1.0880 H   0  0  0  0  0  0  0  0  0  0  0  0
   -1.8100    4.1510   -0.4030 H   0  0  0  0  0  0  0  0  0  0  0  0
   -4.2890    3.6420    0.1850 H   0  0  0  0  0  0  0  0  0  0  0  0
   -4.7560    1.9850    0.5890 H   0  0  0  0  0  0  0  0  0  0  0  0
   -3.7100    2.8950    1.6770 H   0  0  0  0  0  0  0  0  0  0  0  0
   -3.7270    1.5490   -1.6270 H   0  0  0  0  0  0  0  0  0  0  0  0
   -2.2260    0.8530    1.5440 H   0  0  0  0  0  0  0  0  0  0  0  0
   -2.0260   -0.2180   -1.3720 H   0  0  0  0  0  0  0  0  0  0  0  0
   -0.3200   -0.6060    1.6870 H   0  0  0  0  0  0  0  0  0  0  0  0
   -1.8830   -3.5340    0.7150 H   0  0  0  0  0  0  0  0  0  0  0  0
   -4.0570   -1.3280    0.9290 H   0  0  0  0  0  0  0  0  0  0  0  0
   -4.3440   -3.0520    1.1830 H   0  0  0  0  0  0  0  0  0  0  0  0
   -3.2770   -2.1680    2.2710 H   0  0  0  0  0  0  0  0  0  0  0  0
   -2.0720   -3.0380   -1.8120 H   0  0  0  0  0  0  0  0  0  0  0  0
   -3.4950   -3.8230   -1.1250 H   0  0  0  0  0  0  0  0  0  0  0  0
   -3.5380   -2.1020   -1.4880 H   0  0  0  0  0  0  0  0  0  0  0  0
   -0.4390   -2.4550   -1.4210 H   0  0  0  0  0  0  0  0  0  0  0  0
    0.3210   -0.9280   -1.0380 H   0  0  0  0  0  0  0  0  0  0  0  0
    0.6360   -3.0740    1.1290 H   0  0  0  0  0  0  0  0  0  0  0  0
    1.4070   -3.4090   -0.4040 H   0  0  0  0  0  0  0  0  0  0  0  0
    1.4110   -0.3570    2.1860 H   0  0  0  0  0  0  0  0  0  0  0  0
    4.0700    2.0530    0.3920 H   0  0  0  0  0  0  0  0  0  0  0  0
    2.9970    2.1960    1.7760 H   0  0  0  0  0  0  0  0  0  0  0  0
  1 27  1  0
  1 28  1  0
  1 26  1  0
  1  2  1  0
  2  3  2  0
  2 22  1  0
  3  4  1  0
  3 29  1  0
  4 30  1  0
  4 31  1  0
  4  5  1  0
  5 33  1  0
  5  6  1  0
  5 32  1  0
  6  8  1  6
  6  9  1  0
  6  7  1  0
  7 34  1  0
  7 35  1  0
  7 36  1  0
  8 37  1  0
  9 10  2  0
  9 38  1  0
 10 39  1  0
 10 11  1  0
 11 16  1  0
 11 13  1  0
 11 12  1  1
 12 40  1  0
 13 15  1  0
 13 41  1  1
 13 14  1  0
 14 42  1  0
 14 43  1  0
 14 44  1  0
 15 45  1  0
 15 47  1  0
 15 46  1  0
 16 48  1  0
 16 49  1  0
 16 17  1  0
 17 51  1  0
 17 18  1  0
 17 50  1  0
 18 24  1  0
 18 19  2  0
 19 20  1  0
 19 52  1  0
 20 23  1  0
 20 22  1  0
 20 21  1  1
 22 53  1  0
 22 54  1  0
 23 24  1  0
 24 25  2  0
M  END
>  <id>  (435) 
538

>  <scaffolds>  (435) 
[]

>  <name>  (435) 
(-)-(1S*,4S*,10R*)-1,4-Dihydroxycembra-2E,7E,11Z-trien-20,10-olide (3)

>  <formula>  (435) 
C20H30O4

>  <SMILES>  (435) 
CC1=CCC[C@@](C)(O)C=C[C@@](O)(C(C)C)CCC2=C[C@H](C1)OC2=O

>  <ChEMBL_id>  (435) 


>  <ZINC_id>  (435) 


>  <PubChem_id>  (435) 


>  <DrugBank_id>  (435) 


>  <CAS_no>  (435) 
1346224-12-1

>  <references>  (435) 
[{'journal': {'name': 'Journal of Natural Products', 'id': 5}, 'title': 'Cembranolides from the Leaves of Croton gratissimus', 'year': 2011, 'start_page': 2349, 'volume': 74, 'issue': None, 'doi': '10.1021/np2002012', 'isbn': '', 'despositor': {'code': 'NFA', 'first_name': 'Ngonidzashe', 'last_name': 'Faya', 'id': 21}, 'refauthors_set': [{'author': {'first_name': 'Moses', 'initials': 'MK', 'last_name': 'Langat', 'id': 730}, 'first_author': True, 'id': 1048}, {'author': {'first_name': 'Neil', 'initials': 'NR', 'last_name': 'Crouch', 'id': 524}, 'first_author': None, 'id': 1142}, {'author': {'first_name': 'Peter', 'initials': 'PJ', 'last_name': 'Smith', 'id': 490}, 'first_author': None, 'id': 1143}, {'author': {'first_name': 'Dulcie', 'initials': 'DA', 'last_name': 'Mulholland', 'id': 525}, 'first_author': None, 'id': 1144}], 'id': 351}]

>  <classifications>  (435) 
[{'classification': 'Cembranolide', 'id': 758}, {'classification': 'Phenol lipids (Classyfire)', 'id': 951}]

>  <molecular_mass>  (435) 
334.45

$$$$
SANC00539_minRM1.pdb
     RDKit          3D

 48 49  0  0  1  0  0  0  0  0999 V2000
    4.1770   -1.9430   -0.1660 C   0  0  0  0  0  0  0  0  0  0  0  0
    3.0270   -1.6860   -0.7820 C   0  0  0  0  0  0  0  0  0  0  0  0
    2.9040   -1.5570   -2.2570 C   0  0  0  0  0  0  0  0  0  0  0  0
    1.7800   -1.5270   -0.0300 C   0  0  0  0  0  0  0  0  0  0  0  0
    1.5340   -0.4350    0.6920 C   0  0  0  0  0  0  0  0  0  0  0  0
    2.4890    0.6610    0.8000 C   0  0  0  0  0  0  0  0  0  0  0  0
    2.1980    1.9000    0.4010 C   0  0  0  0  0  0  0  0  0  0  0  0
    3.1580    3.0250    0.5530 C   0  0  0  0  0  0  0  0  0  0  0  0
    0.8880    2.2490   -0.2240 C   0  0  0  0  0  0  0  0  0  0  0  0
   -0.0790    2.7860    0.8420 C   0  0  0  0  0  0  0  0  0  0  0  0
   -1.3850    2.0700    0.8070 C   0  0  0  0  0  0  0  0  0  0  0  0
   -2.2020    2.0510   -0.2470 C   0  0  0  0  0  0  0  0  0  0  0  0
   -1.9160    2.7500   -1.5270 C   0  0  0  0  0  0  0  0  0  0  0  0
   -3.5010    1.3150   -0.1750 C   0  0  0  0  0  0  0  0  0  0  0  0
   -3.3220   -0.2030   -0.2060 C   0  0  1  0  0  0  0  0  0  0  0  0
   -2.2520   -0.7080   -1.1440 C   0  0  0  0  0  0  0  0  0  0  0  0
   -1.4210   -1.5180   -0.4710 C   0  0  0  0  0  0  0  0  0  0  0  0
   -0.3540   -2.3680   -1.0340 C   0  0  0  0  0  0  0  0  0  0  0  0
    0.8230   -2.6700   -0.1090 C   0  0  0  0  0  0  0  0  0  0  0  0
   -1.8530   -1.5060    0.9500 C   0  0  0  0  0  0  0  0  0  0  0  0
   -1.4660   -2.0670    1.9490 O   0  0  0  0  0  0  0  0  0  0  0  0
   -2.9360   -0.6650    1.0830 O   0  0  0  0  0  0  0  0  0  0  0  0
    5.1190   -2.0730   -0.6840 H   0  0  0  0  0  0  0  0  0  0  0  0
    4.2680   -2.0500    0.9080 H   0  0  0  0  0  0  0  0  0  0  0  0
    2.3750   -2.4220   -2.6880 H   0  0  0  0  0  0  0  0  0  0  0  0
    2.3350   -0.6610   -2.5380 H   0  0  0  0  0  0  0  0  0  0  0  0
    3.8750   -1.4910   -2.7680 H   0  0  0  0  0  0  0  0  0  0  0  0
    0.6020   -0.3160    1.2540 H   0  0  0  0  0  0  0  0  0  0  0  0
    3.4580    0.4040    1.2390 H   0  0  0  0  0  0  0  0  0  0  0  0
    4.0410    2.7700    1.1570 H   0  0  0  0  0  0  0  0  0  0  0  0
    3.5340    3.3650   -0.4250 H   0  0  0  0  0  0  0  0  0  0  0  0
    2.6850    3.8950    1.0340 H   0  0  0  0  0  0  0  0  0  0  0  0
    1.0410    2.9950   -1.0330 H   0  0  0  0  0  0  0  0  0  0  0  0
    0.4600    1.3730   -0.7550 H   0  0  0  0  0  0  0  0  0  0  0  0
    0.3700    2.7020    1.8560 H   0  0  0  0  0  0  0  0  0  0  0  0
   -0.2380    3.8800    0.7230 H   0  0  0  0  0  0  0  0  0  0  0  0
   -1.6570    1.5390    1.7270 H   0  0  0  0  0  0  0  0  0  0  0  0
   -1.2600    3.6270   -1.4120 H   0  0  0  0  0  0  0  0  0  0  0  0
   -1.4280    2.0720   -2.2470 H   0  0  0  0  0  0  0  0  0  0  0  0
   -2.8250    3.1310   -2.0190 H   0  0  0  0  0  0  0  0  0  0  0  0
   -4.0570    1.6070    0.7440 H   0  0  0  0  0  0  0  0  0  0  0  0
   -4.1800    1.6020   -1.0050 H   0  0  0  0  0  0  0  0  0  0  0  0
   -4.3010   -0.7000   -0.4430 H   0  0  0  0  0  0  0  0  0  0  0  0
   -2.2390   -0.4350   -2.1920 H   0  0  0  0  0  0  0  0  0  0  0  0
   -0.8340   -3.3240   -1.3440 H   0  0  0  0  0  0  0  0  0  0  0  0
    0.0160   -1.9180   -1.9810 H   0  0  0  0  0  0  0  0  0  0  0  0
    1.3480   -3.5770   -0.4830 H   0  0  0  0  0  0  0  0  0  0  0  0
    0.4910   -2.9680    0.9070 H   0  0  0  0  0  0  0  0  0  0  0  0
  1  2  2  0
  1 23  1  0
  1 24  1  0
  2  3  1  0
  2  4  1  0
  3 27  1  0
  3 25  1  0
  3 26  1  0
  4 19  1  0
  4  5  2  0
  5  6  1  0
  5 28  1  0
  6  7  2  0
  6 29  1  0
  7  9  1  0
  7  8  1  0
  8 31  1  0
  8 32  1  0
  8 30  1  0
  9 33  1  0
  9 34  1  0
  9 10  1  0
 10 36  1  0
 10 11  1  0
 10 35  1  0
 11 12  2  0
 11 37  1  0
 12 13  1  0
 12 14  1  0
 13 39  1  0
 13 40  1  0
 13 38  1  0
 14 42  1  0
 14 15  1  0
 14 41  1  0
 15 16  1  0
 15 43  1  6
 15 22  1  0
 16 44  1  0
 16 17  2  0
 17 18  1  0
 17 20  1  0
 18 46  1  0
 18 45  1  0
 18 19  1  0
 19 47  1  0
 19 48  1  0
 20 22  1  0
 20 21  2  0
M  END
>  <id>  (436) 
539

>  <scaffolds>  (436) 
[]

>  <name>  (436) 
(+)-(10R*)-Cembra-1E,3E,7E,11Z,16-pentaen-20,10-olide

>  <formula>  (436) 
C20H26O2

>  <SMILES>  (436) 
C=C(C)C1=CC=C(C)CCC=C(C)CC2C=C(CC1)C(=O)O2

>  <ChEMBL_id>  (436) 


>  <ZINC_id>  (436) 


>  <PubChem_id>  (436) 


>  <DrugBank_id>  (436) 


>  <CAS_no>  (436) 
1346224-14-3

>  <references>  (436) 
[{'journal': {'name': 'Journal of Natural Products', 'id': 5}, 'title': 'Cembranolides from the Leaves of Croton gratissimus', 'year': 2011, 'start_page': 2349, 'volume': 74, 'issue': None, 'doi': '10.1021/np2002012', 'isbn': '', 'despositor': {'code': 'NFA', 'first_name': 'Ngonidzashe', 'last_name': 'Faya', 'id': 21}, 'refauthors_set': [{'author': {'first_name': 'Moses', 'initials': 'MK', 'last_name': 'Langat', 'id': 730}, 'first_author': True, 'id': 1048}, {'author': {'first_name': 'Neil', 'initials': 'NR', 'last_name': 'Crouch', 'id': 524}, 'first_author': None, 'id': 1142}, {'author': {'first_name': 'Peter', 'initials': 'PJ', 'last_name': 'Smith', 'id': 490}, 'first_author': None, 'id': 1143}, {'author': {'first_name': 'Dulcie', 'initials': 'DA', 'last_name': 'Mulholland', 'id': 525}, 'first_author': None, 'id': 1144}], 'id': 351}]

>  <classifications>  (436) 
[{'classification': 'Cembranolide', 'id': 758}, {'classification': 'Phenol lipids (Classyfire)', 'id': 951}]

>  <molecular_mass>  (436) 
298.42

$$$$
SANC00540_minRM1.pdb
     RDKit          3D

 48 49  0  0  1  0  0  0  0  0999 V2000
    4.1770   -1.9430   -0.1660 C   0  0  0  0  0  0  0  0  0  0  0  0
    3.0270   -1.6860   -0.7820 C   0  0  0  0  0  0  0  0  0  0  0  0
    2.9040   -1.5570   -2.2570 C   0  0  0  0  0  0  0  0  0  0  0  0
    1.7800   -1.5270   -0.0300 C   0  0  0  0  0  0  0  0  0  0  0  0
    1.5340   -0.4350    0.6920 C   0  0  0  0  0  0  0  0  0  0  0  0
    2.4890    0.6610    0.8000 C   0  0  0  0  0  0  0  0  0  0  0  0
    2.1980    1.9000    0.4010 C   0  0  0  0  0  0  0  0  0  0  0  0
    3.1580    3.0250    0.5530 C   0  0  0  0  0  0  0  0  0  0  0  0
    0.8880    2.2490   -0.2240 C   0  0  0  0  0  0  0  0  0  0  0  0
   -0.0790    2.7860    0.8420 C   0  0  0  0  0  0  0  0  0  0  0  0
   -1.3850    2.0700    0.8070 C   0  0  0  0  0  0  0  0  0  0  0  0
   -2.2020    2.0510   -0.2470 C   0  0  0  0  0  0  0  0  0  0  0  0
   -1.9160    2.7500   -1.5270 C   0  0  0  0  0  0  0  0  0  0  0  0
   -3.5010    1.3150   -0.1750 C   0  0  0  0  0  0  0  0  0  0  0  0
   -3.3220   -0.2030   -0.2060 C   0  0  1  0  0  0  0  0  0  0  0  0
   -2.2520   -0.7080   -1.1440 C   0  0  0  0  0  0  0  0  0  0  0  0
   -1.4210   -1.5180   -0.4710 C   0  0  0  0  0  0  0  0  0  0  0  0
   -0.3540   -2.3680   -1.0340 C   0  0  0  0  0  0  0  0  0  0  0  0
    0.8230   -2.6700   -0.1090 C   0  0  0  0  0  0  0  0  0  0  0  0
   -1.8530   -1.5060    0.9500 C   0  0  0  0  0  0  0  0  0  0  0  0
   -1.4660   -2.0670    1.9490 O   0  0  0  0  0  0  0  0  0  0  0  0
   -2.9360   -0.6650    1.0830 O   0  0  0  0  0  0  0  0  0  0  0  0
    5.1190   -2.0730   -0.6840 H   0  0  0  0  0  0  0  0  0  0  0  0
    4.2680   -2.0500    0.9080 H   0  0  0  0  0  0  0  0  0  0  0  0
    2.3750   -2.4220   -2.6880 H   0  0  0  0  0  0  0  0  0  0  0  0
    2.3350   -0.6610   -2.5380 H   0  0  0  0  0  0  0  0  0  0  0  0
    3.8750   -1.4910   -2.7680 H   0  0  0  0  0  0  0  0  0  0  0  0
    0.6020   -0.3160    1.2540 H   0  0  0  0  0  0  0  0  0  0  0  0
    3.4580    0.4040    1.2390 H   0  0  0  0  0  0  0  0  0  0  0  0
    4.0410    2.7700    1.1570 H   0  0  0  0  0  0  0  0  0  0  0  0
    3.5340    3.3650   -0.4250 H   0  0  0  0  0  0  0  0  0  0  0  0
    2.6850    3.8950    1.0340 H   0  0  0  0  0  0  0  0  0  0  0  0
    1.0410    2.9950   -1.0330 H   0  0  0  0  0  0  0  0  0  0  0  0
    0.4600    1.3730   -0.7550 H   0  0  0  0  0  0  0  0  0  0  0  0
    0.3700    2.7020    1.8560 H   0  0  0  0  0  0  0  0  0  0  0  0
   -0.2380    3.8800    0.7230 H   0  0  0  0  0  0  0  0  0  0  0  0
   -1.6570    1.5390    1.7270 H   0  0  0  0  0  0  0  0  0  0  0  0
   -1.2600    3.6270   -1.4120 H   0  0  0  0  0  0  0  0  0  0  0  0
   -1.4280    2.0720   -2.2470 H   0  0  0  0  0  0  0  0  0  0  0  0
   -2.8250    3.1310   -2.0190 H   0  0  0  0  0  0  0  0  0  0  0  0
   -4.0570    1.6070    0.7440 H   0  0  0  0  0  0  0  0  0  0  0  0
   -4.1800    1.6020   -1.0050 H   0  0  0  0  0  0  0  0  0  0  0  0
   -4.3010   -0.7000   -0.4430 H   0  0  0  0  0  0  0  0  0  0  0  0
   -2.2390   -0.4350   -2.1920 H   0  0  0  0  0  0  0  0  0  0  0  0
   -0.8340   -3.3240   -1.3440 H   0  0  0  0  0  0  0  0  0  0  0  0
    0.0160   -1.9180   -1.9810 H   0  0  0  0  0  0  0  0  0  0  0  0
    1.3480   -3.5770   -0.4830 H   0  0  0  0  0  0  0  0  0  0  0  0
    0.4910   -2.9680    0.9070 H   0  0  0  0  0  0  0  0  0  0  0  0
  1  2  2  0
  1 23  1  0
  1 24  1  0
  2  3  1  0
  2  4  1  0
  3 27  1  0
  3 25  1  0
  3 26  1  0
  4 19  1  0
  4  5  2  0
  5  6  1  0
  5 28  1  0
  6  7  2  0
  6 29  1  0
  7  9  1  0
  7  8  1  0
  8 31  1  0
  8 32  1  0
  8 30  1  0
  9 33  1  0
  9 34  1  0
  9 10  1  0
 10 36  1  0
 10 11  1  0
 10 35  1  0
 11 12  2  0
 11 37  1  0
 12 13  1  0
 12 14  1  0
 13 39  1  0
 13 40  1  0
 13 38  1  0
 14 42  1  0
 14 15  1  0
 14 41  1  0
 15 16  1  0
 15 43  1  6
 15 22  1  0
 16 44  1  0
 16 17  2  0
 17 18  1  0
 17 20  1  0
 18 46  1  0
 18 45  1  0
 18 19  1  0
 19 47  1  0
 19 48  1  0
 20 22  1  0
 20 21  2  0
M  END
>  <id>  (437) 
540

>  <scaffolds>  (437) 
[]

>  <name>  (437) 
(+)-(10R*)-Cembra-1Z,3Z,7E,11Z,15-pentaen-20,10-olide

>  <formula>  (437) 
C20H26O2

>  <SMILES>  (437) 
C=C(C)C1=CC=C(C)CCC=C(C)CC2C=C(CC1)C(=O)O2

>  <ChEMBL_id>  (437) 


>  <ZINC_id>  (437) 


>  <PubChem_id>  (437) 


>  <DrugBank_id>  (437) 


>  <CAS_no>  (437) 
1346224-15-4

>  <references>  (437) 
[{'journal': {'name': 'Journal of Natural Products', 'id': 5}, 'title': 'Cembranolides from the Leaves of Croton gratissimus', 'year': 2011, 'start_page': 2349, 'volume': 74, 'issue': None, 'doi': '10.1021/np2002012', 'isbn': '', 'despositor': {'code': 'NFA', 'first_name': 'Ngonidzashe', 'last_name': 'Faya', 'id': 21}, 'refauthors_set': [{'author': {'first_name': 'Moses', 'initials': 'MK', 'last_name': 'Langat', 'id': 730}, 'first_author': True, 'id': 1048}, {'author': {'first_name': 'Neil', 'initials': 'NR', 'last_name': 'Crouch', 'id': 524}, 'first_author': None, 'id': 1142}, {'author': {'first_name': 'Peter', 'initials': 'PJ', 'last_name': 'Smith', 'id': 490}, 'first_author': None, 'id': 1143}, {'author': {'first_name': 'Dulcie', 'initials': 'DA', 'last_name': 'Mulholland', 'id': 525}, 'first_author': None, 'id': 1144}], 'id': 351}]

>  <classifications>  (437) 
[{'classification': 'Cembranolide', 'id': 758}, {'classification': 'Phenol lipids (Classyfire)', 'id': 951}]

>  <molecular_mass>  (437) 
298.42

$$$$
SANC00541_minRM1.pdb
     RDKit          3D

 54 55  0  0  1  0  0  0  0  0999 V2000
    3.0520    2.7050   -1.7350 C   0  0  0  0  0  0  0  0  0  0  0  0
    3.2270    2.1600   -0.4580 O   0  0  0  0  0  0  0  0  0  0  0  0
    2.1250    1.4120    0.0080 C   0  0  2  0  0  0  0  0  0  0  0  0
    1.7790    0.6880   -0.7820 H   0  0  0  0  0  0  0  0  0  0  0  0
    0.9760    2.3530    0.4500 C   0  0  0  0  0  0  0  0  0  0  0  0
   -0.1820    2.2710   -0.4810 C   0  0  0  0  0  0  0  0  0  0  0  0
   -1.4590    2.3160   -0.0920 C   0  0  0  0  0  0  0  0  0  0  0  0
   -1.8740    2.4470    1.3290 C   0  0  0  0  0  0  0  0  0  0  0  0
   -2.5640    2.2470   -1.0970 C   0  0  0  0  0  0  0  0  0  0  0  0
   -3.1570    0.8390   -1.1750 C   0  0  1  0  0  0  0  0  0  0  0  0
   -3.9220    0.7740   -1.9940 H   0  0  0  0  0  0  0  0  0  0  0  0
   -2.1070   -0.2410   -1.3340 C   0  0  0  0  0  0  0  0  0  0  0  0
   -2.2340   -1.1200   -0.3330 C   0  0  0  0  0  0  0  0  0  0  0  0
   -1.5740   -2.4070   -0.0420 C   0  0  0  0  0  0  0  0  0  0  0  0
   -0.2370   -2.6120   -0.7540 C   0  0  0  0  0  0  0  0  0  0  0  0
    0.9410   -2.0210   -0.0520 C   0  0  0  0  0  0  0  0  0  0  0  0
    2.2820   -2.6150   -0.3860 C   0  0  1  0  0  0  0  0  0  0  0  0
    2.4750   -3.9050    0.4060 C   0  0  0  0  0  0  0  0  0  0  0  0
    2.4380   -2.8800   -1.8790 C   0  0  0  0  0  0  0  0  0  0  0  0
    0.8330   -1.0250    0.8300 C   0  0  0  0  0  0  0  0  0  0  0  0
    1.9770   -0.4900    1.5630 C   0  0  0  0  0  0  0  0  0  0  0  0
    2.6000    0.6380    1.2110 C   0  0  0  0  0  0  0  0  0  0  0  0
    3.7360    1.1850    1.9940 C   0  0  0  0  0  0  0  0  0  0  0  0
   -3.3250   -0.6290    0.5530 C   0  0  0  0  0  0  0  0  0  0  0  0
   -3.8030   -1.0630    1.5760 O   0  0  0  0  0  0  0  0  0  0  0  0
   -3.8350    0.5410    0.0410 O   0  0  0  0  0  0  0  0  0  0  0  0
    2.8860    1.9460   -2.5180 H   0  0  0  0  0  0  0  0  0  0  0  0
    2.2330    3.4410   -1.7950 H   0  0  0  0  0  0  0  0  0  0  0  0
    4.0020    3.2220   -1.9440 H   0  0  0  0  0  0  0  0  0  0  0  0
    0.6850    2.1140    1.4970 H   0  0  0  0  0  0  0  0  0  0  0  0
    1.3210    3.4100    0.5110 H   0  0  0  0  0  0  0  0  0  0  0  0
    0.0730    2.1900   -1.5440 H   0  0  0  0  0  0  0  0  0  0  0  0
   -1.3880    3.3030    1.8240 H   0  0  0  0  0  0  0  0  0  0  0  0
   -2.9570    2.5960    1.4590 H   0  0  0  0  0  0  0  0  0  0  0  0
   -1.6240    1.5460    1.9120 H   0  0  0  0  0  0  0  0  0  0  0  0
   -3.3620    2.9820   -0.8560 H   0  0  0  0  0  0  0  0  0  0  0  0
   -2.2210    2.5440   -2.1120 H   0  0  0  0  0  0  0  0  0  0  0  0
   -1.4120   -0.2210   -2.1650 H   0  0  0  0  0  0  0  0  0  0  0  0
   -1.4600   -2.5450    1.0570 H   0  0  0  0  0  0  0  0  0  0  0  0
   -2.2870   -3.2150   -0.3380 H   0  0  0  0  0  0  0  0  0  0  0  0
   -0.0840   -3.7090   -0.8720 H   0  0  0  0  0  0  0  0  0  0  0  0
   -0.2740   -2.2330   -1.7970 H   0  0  0  0  0  0  0  0  0  0  0  0
    3.0940   -1.8950   -0.0930 H   0  0  0  0  0  0  0  0  0  0  0  0
    3.4690   -4.3410    0.2360 H   0  0  0  0  0  0  0  0  0  0  0  0
    2.3830   -3.7330    1.4880 H   0  0  0  0  0  0  0  0  0  0  0  0
    1.7430   -4.6820    0.1440 H   0  0  0  0  0  0  0  0  0  0  0  0
    2.1770   -2.0000   -2.4830 H   0  0  0  0  0  0  0  0  0  0  0  0
    3.4780   -3.1390   -2.1330 H   0  0  0  0  0  0  0  0  0  0  0  0
    1.8220   -3.7140   -2.2440 H   0  0  0  0  0  0  0  0  0  0  0  0
   -0.1190   -0.5410    1.0770 H   0  0  0  0  0  0  0  0  0  0  0  0
    2.2770   -1.0710    2.4440 H   0  0  0  0  0  0  0  0  0  0  0  0
    3.8830    0.6800    2.9600 H   0  0  0  0  0  0  0  0  0  0  0  0
    4.6830    1.0960    1.4380 H   0  0  0  0  0  0  0  0  0  0  0  0
    3.5960    2.2560    2.2130 H   0  0  0  0  0  0  0  0  0  0  0  0
  1 27  1  0
  1 29  1  0
  1 28  1  0
  1  2  1  0
  2  3  1  0
  3  4  1  6
  3  5  1  0
  3 22  1  0
  5  6  1  0
  5 31  1  0
  5 30  1  0
  6 32  1  0
  6  7  2  0
  7  9  1  0
  7  8  1  0
  8 34  1  0
  8 33  1  0
  8 35  1  0
  9 37  1  0
  9 10  1  0
  9 36  1  0
 10 11  1  6
 10 12  1  0
 10 26  1  0
 12 38  1  0
 12 13  2  0
 13 14  1  0
 13 24  1  0
 14 15  1  0
 14 40  1  0
 14 39  1  0
 15 42  1  0
 15 41  1  0
 15 16  1  0
 16 17  1  0
 16 20  2  0
 17 19  1  0
 17 43  1  1
 17 18  1  0
 18 46  1  0
 18 44  1  0
 18 45  1  0
 19 47  1  0
 19 49  1  0
 19 48  1  0
 20 50  1  0
 20 21  1  0
 21 22  2  0
 21 51  1  0
 22 23  1  0
 23 53  1  0
 23 54  1  0
 23 52  1  0
 24 26  1  0
 24 25  2  0
M  END
>  <id>  (438) 
541

>  <scaffolds>  (438) 
[]

>  <name>  (438) 
(+)-(5R*,10R*)-5-Methoxycembra-1E,3E,7E,11Z,15-pentaen-20,10-olide

>  <formula>  (438) 
C21H30O3

>  <SMILES>  (438) 
CO[C@@H]1CC=C(C)C[C@H]2C=C(CCC(C(C)C)=CC=C1C)C(=O)O2

>  <ChEMBL_id>  (438) 


>  <ZINC_id>  (438) 


>  <PubChem_id>  (438) 


>  <DrugBank_id>  (438) 


>  <CAS_no>  (438) 
1346224-16-5

>  <references>  (438) 
[{'journal': {'name': 'Journal of Natural Products', 'id': 5}, 'title': 'Cembranolides from the Leaves of Croton gratissimus', 'year': 2011, 'start_page': 2349, 'volume': 74, 'issue': None, 'doi': '10.1021/np2002012', 'isbn': '', 'despositor': {'code': 'NFA', 'first_name': 'Ngonidzashe', 'last_name': 'Faya', 'id': 21}, 'refauthors_set': [{'author': {'first_name': 'Moses', 'initials': 'MK', 'last_name': 'Langat', 'id': 730}, 'first_author': True, 'id': 1048}, {'author': {'first_name': 'Neil', 'initials': 'NR', 'last_name': 'Crouch', 'id': 524}, 'first_author': None, 'id': 1142}, {'author': {'first_name': 'Peter', 'initials': 'PJ', 'last_name': 'Smith', 'id': 490}, 'first_author': None, 'id': 1143}, {'author': {'first_name': 'Dulcie', 'initials': 'DA', 'last_name': 'Mulholland', 'id': 525}, 'first_author': None, 'id': 1144}], 'id': 351}]

>  <classifications>  (438) 
[{'classification': 'Cembranolide', 'id': 758}, {'classification': 'Phenol lipids (Classyfire)', 'id': 951}]

>  <molecular_mass>  (438) 
330.46

$$$$
SANC00542_minRM1.pdb
     RDKit          3D

 55 56  0  0  1  0  0  0  0  0999 V2000
    0.3700    4.3740   -0.5450 C   0  0  0  0  0  0  0  0  0  0  0  0
    0.2280    3.3570    0.3010 C   0  0  0  0  0  0  0  0  0  0  0  0
   -1.1300    2.8760    0.6910 C   0  0  0  0  0  0  0  0  0  0  0  0
   -1.8640    2.2840   -0.5200 C   0  0  1  0  0  0  0  0  0  0  0  0
   -1.9000    2.9930   -1.3850 H   0  0  0  0  0  0  0  0  0  0  0  0
   -1.3130    0.9340   -0.9270 C   0  0  0  0  0  0  0  0  0  0  0  0
   -2.2540    0.0040   -0.7460 C   0  0  0  0  0  0  0  0  0  0  0  0
   -2.3000   -1.4360   -1.0480 C   0  0  0  0  0  0  0  0  0  0  0  0
   -0.9520   -2.1180   -1.2490 C   0  0  0  0  0  0  0  0  0  0  0  0
   -0.0750   -2.3870    0.0060 C   0  0  2  0  0  0  0  0  0  0  0  0
    0.5100   -3.6550   -0.1230 O   0  0  0  0  0  0  0  0  0  0  0  0
   -0.8630   -2.4660    1.3370 C   0  0  1  0  0  0  0  0  0  0  0  0
   -1.8890   -3.5950    1.3160 C   0  0  0  0  0  0  0  0  0  0  0  0
    0.0800   -2.6960    2.5160 C   0  0  0  0  0  0  0  0  0  0  0  0
    1.0010   -1.3200    0.0950 C   0  0  0  0  0  0  0  0  0  0  0  0
    2.0750   -1.3530   -0.6890 C   0  0  0  0  0  0  0  0  0  0  0  0
    3.2660   -0.4300   -0.6200 C   0  0  1  0  0  0  0  0  0  0  0  0
    4.4630   -1.2680   -0.1350 C   0  0  0  0  0  0  0  0  0  0  0  0
    3.5290    0.1120   -1.8840 O   0  0  0  0  0  0  0  0  0  0  0  0
    3.0910    0.7870    0.3070 C   0  0  0  0  0  0  0  0  0  0  0  0
    2.0230    1.7380   -0.2190 C   0  0  0  0  0  0  0  0  0  0  0  0
    1.4640    2.6850    0.8590 C   0  0  2  0  0  0  0  0  0  0  0  0
    2.2390    3.4640    1.1100 H   0  0  0  0  0  0  0  0  0  0  0  0
    1.1760    1.9180    1.9910 O   0  0  0  0  0  0  0  0  0  0  0  0
   -3.4630    0.6910   -0.2190 C   0  0  0  0  0  0  0  0  0  0  0  0
   -4.5550    0.2870    0.1020 O   0  0  0  0  0  0  0  0  0  0  0  0
   -3.2110    2.0400   -0.1250 O   0  0  0  0  0  0  0  0  0  0  0  0
    1.3320    4.7640   -0.8610 H   0  0  0  0  0  0  0  0  0  0  0  0
   -0.4610    4.9140   -0.9890 H   0  0  0  0  0  0  0  0  0  0  0  0
   -1.1250    2.1270    1.5100 H   0  0  0  0  0  0  0  0  0  0  0  0
   -1.7200    3.7240    1.1070 H   0  0  0  0  0  0  0  0  0  0  0  0
   -0.2960    0.8240   -1.2940 H   0  0  0  0  0  0  0  0  0  0  0  0
   -2.9180   -1.9700   -0.2880 H   0  0  0  0  0  0  0  0  0  0  0  0
   -2.9010   -1.5450   -1.9840 H   0  0  0  0  0  0  0  0  0  0  0  0
   -1.1650   -3.0910   -1.7520 H   0  0  0  0  0  0  0  0  0  0  0  0
   -0.3620   -1.5540   -2.0030 H   0  0  0  0  0  0  0  0  0  0  0  0
    1.0930   -3.6510   -0.8900 H   0  0  0  0  0  0  0  0  0  0  0  0
   -1.3860   -1.4860    1.4840 H   0  0  0  0  0  0  0  0  0  0  0  0
   -1.4270   -4.5880    1.2140 H   0  0  0  0  0  0  0  0  0  0  0  0
   -2.4810   -3.6180    2.2440 H   0  0  0  0  0  0  0  0  0  0  0  0
   -2.6130   -3.4960    0.4920 H   0  0  0  0  0  0  0  0  0  0  0  0
    0.8150   -1.8900    2.6510 H   0  0  0  0  0  0  0  0  0  0  0  0
   -0.4740   -2.7610    3.4650 H   0  0  0  0  0  0  0  0  0  0  0  0
    0.6530   -3.6300    2.4230 H   0  0  0  0  0  0  0  0  0  0  0  0
    0.8300   -0.5370    0.8420 H   0  0  0  0  0  0  0  0  0  0  0  0
    2.1750   -2.1400   -1.4520 H   0  0  0  0  0  0  0  0  0  0  0  0
    4.6370   -2.1580   -0.7570 H   0  0  0  0  0  0  0  0  0  0  0  0
    5.3990   -0.6910   -0.1440 H   0  0  0  0  0  0  0  0  0  0  0  0
    4.3140   -1.6290    0.8920 H   0  0  0  0  0  0  0  0  0  0  0  0
    3.7520   -0.6060   -2.4840 H   0  0  0  0  0  0  0  0  0  0  0  0
    2.8820    0.4180    1.3320 H   0  0  0  0  0  0  0  0  0  0  0  0
    4.0550    1.3300    0.4070 H   0  0  0  0  0  0  0  0  0  0  0  0
    2.4340    2.3520   -1.0490 H   0  0  0  0  0  0  0  0  0  0  0  0
    1.1960    1.1740   -0.6990 H   0  0  0  0  0  0  0  0  0  0  0  0
    0.9610    2.5300    2.7010 H   0  0  0  0  0  0  0  0  0  0  0  0
  1 29  1  0
  1 28  1  0
  1  2  2  0
  2  3  1  0
  2 22  1  0
  3  4  1  0
  3 31  1  0
  3 30  1  0
  4  5  1  6
  4  6  1  0
  4 27  1  0
  6 32  1  0
  6  7  2  0
  7  8  1  0
  7 25  1  0
  8 34  1  0
  8  9  1  0
  8 33  1  0
  9 36  1  0
  9 35  1  0
  9 10  1  0
 10 11  1  6
 10 15  1  0
 10 12  1  0
 11 37  1  0
 12 13  1  0
 12 38  1  1
 12 14  1  0
 13 41  1  0
 13 39  1  0
 13 40  1  0
 14 44  1  0
 14 42  1  0
 14 43  1  0
 15 16  2  0
 15 45  1  0
 16 46  1  0
 16 17  1  0
 17 19  1  6
 17 18  1  0
 17 20  1  0
 18 47  1  0
 18 48  1  0
 18 49  1  0
 19 50  1  0
 20 21  1  0
 20 52  1  0
 20 51  1  0
 21 53  1  0
 21 54  1  0
 21 22  1  0
 22 23  1  1
 22 24  1  0
 24 55  1  0
 25 27  1  0
 25 26  2  0
M  END
>  <id>  (439) 
542

>  <scaffolds>  (439) 
[]

>  <name>  (439) 
(+)-(1S*,4S*,7R*,10R*)-1,4,7-Trihydroxycembra-2E,8(19),11Z-trien-20,10-olide

>  <formula>  (439) 
C20H30O5

>  <SMILES>  (439) 
C=C1C[C@H]2C=C(CC[C@](O)(C(C)C)C=C[C@@](C)(O)CC[C@@H]1O)C(=O)O2

>  <ChEMBL_id>  (439) 


>  <ZINC_id>  (439) 


>  <PubChem_id>  (439) 


>  <DrugBank_id>  (439) 


>  <CAS_no>  (439) 
1346224-18-7

>  <references>  (439) 
[{'journal': {'name': 'Journal of Natural Products', 'id': 5}, 'title': 'Cembranolides from the Leaves of Croton gratissimus', 'year': 2011, 'start_page': 2349, 'volume': 74, 'issue': None, 'doi': '10.1021/np2002012', 'isbn': '', 'despositor': {'code': 'NFA', 'first_name': 'Ngonidzashe', 'last_name': 'Faya', 'id': 21}, 'refauthors_set': [{'author': {'first_name': 'Moses', 'initials': 'MK', 'last_name': 'Langat', 'id': 730}, 'first_author': True, 'id': 1048}, {'author': {'first_name': 'Neil', 'initials': 'NR', 'last_name': 'Crouch', 'id': 524}, 'first_author': None, 'id': 1142}, {'author': {'first_name': 'Peter', 'initials': 'PJ', 'last_name': 'Smith', 'id': 490}, 'first_author': None, 'id': 1143}, {'author': {'first_name': 'Dulcie', 'initials': 'DA', 'last_name': 'Mulholland', 'id': 525}, 'first_author': None, 'id': 1144}], 'id': 351}]

>  <classifications>  (439) 
[{'classification': 'Cembranolide', 'id': 758}, {'classification': 'Phenol lipids (Classyfire)', 'id': 951}]

>  <molecular_mass>  (439) 
350.45

$$$$
SANC00543_minRM1.pdb
     RDKit          3D

 61 60  0  0  0  0  0  0  0  0999 V2000
   10.3620    2.8250    0.5830 C   0  0  0  0  0  0  0  0  0  0  0  0
   10.4250    1.7420   -0.1800 C   0  0  0  0  0  0  0  0  0  0  0  0
   10.1130    0.3740    0.3250 C   0  0  0  0  0  0  0  0  0  0  0  0
    9.0090   -0.2590   -0.5240 C   0  0  0  0  0  0  0  0  0  0  0  0
    8.6760   -1.6170   -0.0140 C   0  0  0  0  0  0  0  0  0  0  0  0
    7.4270   -2.0690    0.1350 C   0  0  0  0  0  0  0  0  0  0  0  0
    6.2920   -1.2930   -0.1570 C   0  0  0  0  0  0  0  0  0  0  0  0
    5.3260   -0.6550   -0.3950 C   0  0  0  0  0  0  0  0  0  0  0  0
    4.1580    0.1260   -0.6870 C   0  0  0  0  0  0  0  0  0  0  0  0
    2.9010   -0.5690   -0.1580 C   0  0  0  0  0  0  0  0  0  0  0  0
    1.6610    0.2680   -0.4610 C   0  0  0  0  0  0  0  0  0  0  0  0
    0.4040   -0.4210    0.0650 C   0  0  0  0  0  0  0  0  0  0  0  0
   -0.8380    0.4150   -0.2360 C   0  0  0  0  0  0  0  0  0  0  0  0
   -2.0930   -0.2700    0.3000 C   0  0  0  0  0  0  0  0  0  0  0  0
   -3.3360    0.5610   -0.0130 C   0  0  0  0  0  0  0  0  0  0  0  0
   -4.5890   -0.1190    0.5350 C   0  0  0  0  0  0  0  0  0  0  0  0
   -5.8240    0.7430    0.2380 C   0  0  0  0  0  0  0  0  0  0  0  0
   -7.0720   -0.0420    0.4770 N   0  0  0  0  0  0  0  0  0  0  0  0
   -7.2360   -0.3590    1.9170 C   0  0  0  0  0  0  0  0  0  0  0  0
   -8.2620    0.7100   -0.0250 C   0  0  0  0  0  0  0  0  0  0  0  0
   -9.4410   -0.2800   -0.1420 C   0  0  0  0  0  0  0  0  0  0  0  0
  -10.5790    0.4180   -0.7790 N   0  0  0  0  0  0  0  0  0  0  0  0
  -11.7330   -0.4680   -0.9900 C   0  0  0  0  0  0  0  0  0  0  0  0
   10.0740    2.8220    1.6290 H   0  0  0  0  0  0  0  0  0  0  0  0
   10.5980    3.8210    0.2220 H   0  0  0  0  0  0  0  0  0  0  0  0
   10.7210    1.8020   -1.2320 H   0  0  0  0  0  0  0  0  0  0  0  0
   11.0380   -0.2420    0.2990 H   0  0  0  0  0  0  0  0  0  0  0  0
    9.8140    0.3820    1.3940 H   0  0  0  0  0  0  0  0  0  0  0  0
    8.1200    0.4080   -0.5480 H   0  0  0  0  0  0  0  0  0  0  0  0
    9.3250   -0.3430   -1.5870 H   0  0  0  0  0  0  0  0  0  0  0  0
    9.5270   -2.2620    0.2280 H   0  0  0  0  0  0  0  0  0  0  0  0
    7.2170   -3.0820    0.4980 H   0  0  0  0  0  0  0  0  0  0  0  0
    4.2720    1.1410   -0.2440 H   0  0  0  0  0  0  0  0  0  0  0  0
    4.0910    0.2950   -1.7850 H   0  0  0  0  0  0  0  0  0  0  0  0
    2.8090   -1.5810   -0.6030 H   0  0  0  0  0  0  0  0  0  0  0  0
    2.9950   -0.7480    0.9330 H   0  0  0  0  0  0  0  0  0  0  0  0
    1.7600    1.2810   -0.0180 H   0  0  0  0  0  0  0  0  0  0  0  0
    1.5740    0.4460   -1.5540 H   0  0  0  0  0  0  0  0  0  0  0  0
    0.3050   -1.4350   -0.3780 H   0  0  0  0  0  0  0  0  0  0  0  0
    0.4930   -0.6000    1.1570 H   0  0  0  0  0  0  0  0  0  0  0  0
   -0.7360    1.4310    0.2010 H   0  0  0  0  0  0  0  0  0  0  0  0
   -0.9290    0.5870   -1.3290 H   0  0  0  0  0  0  0  0  0  0  0  0
   -2.1920   -1.2890   -0.1310 H   0  0  0  0  0  0  0  0  0  0  0  0
   -2.0030   -0.4350    1.3940 H   0  0  0  0  0  0  0  0  0  0  0  0
   -3.2350    1.5830    0.4090 H   0  0  0  0  0  0  0  0  0  0  0  0
   -3.4240    0.7160   -1.1090 H   0  0  0  0  0  0  0  0  0  0  0  0
   -4.7060   -1.1320    0.0960 H   0  0  0  0  0  0  0  0  0  0  0  0
   -4.4760   -0.2900    1.6260 H   0  0  0  0  0  0  0  0  0  0  0  0
   -5.7720    1.6980    0.8170 H   0  0  0  0  0  0  0  0  0  0  0  0
   -5.8080    1.0560   -0.8320 H   0  0  0  0  0  0  0  0  0  0  0  0
   -7.1290    0.4920    2.6170 H   0  0  0  0  0  0  0  0  0  0  0  0
   -8.2300   -0.8020    2.1110 H   0  0  0  0  0  0  0  0  0  0  0  0
   -6.5030   -1.1260    2.2170 H   0  0  0  0  0  0  0  0  0  0  0  0
   -8.5400    1.5870    0.6100 H   0  0  0  0  0  0  0  0  0  0  0  0
   -8.0450    1.1420   -1.0290 H   0  0  0  0  0  0  0  0  0  0  0  0
   -9.1500   -1.1500   -0.7750 H   0  0  0  0  0  0  0  0  0  0  0  0
   -9.6790   -0.7250    0.8600 H   0  0  0  0  0  0  0  0  0  0  0  0
  -10.8580    1.2360   -0.2220 H   0  0  0  0  0  0  0  0  0  0  0  0
  -12.5560    0.0980   -1.4610 H   0  0  0  0  0  0  0  0  0  0  0  0
  -11.4710   -1.2840   -1.6860 H   0  0  0  0  0  0  0  0  0  0  0  0
  -12.1510   -0.9480   -0.0830 H   0  0  0  0  0  0  0  0  0  0  0  0
  1  2  2  0
  1 25  1  0
  1 24  1  0
  2 26  1  0
  2  3  1  0
  3  4  1  0
  3 27  1  0
  3 28  1  0
  4 30  1  0
  4 29  1  0
  4  5  1  0
  5  6  2  0
  5 31  1  0
  6  7  1  0
  6 32  1  0
  7  8  3  0
  8  9  1  0
  9 34  1  0
  9 33  1  0
  9 10  1  0
 10 35  1  0
 10 11  1  0
 10 36  1  0
 11 38  1  0
 11 37  1  0
 11 12  1  0
 12 39  1  0
 12 13  1  0
 12 40  1  0
 13 42  1  0
 13 41  1  0
 13 14  1  0
 14 43  1  0
 14 15  1  0
 14 44  1  0
 15 46  1  0
 15 45  1  0
 15 16  1  0
 16 47  1  0
 16 17  1  0
 16 48  1  0
 17 50  1  0
 17 18  1  0
 17 49  1  0
 18 20  1  0
 18 19  1  0
 19 52  1  0
 19 53  1  0
 19 51  1  0
 20 55  1  0
 20 21  1  0
 20 54  1  0
 21 22  1  0
 21 56  1  0
 21 57  1  0
 22 23  1  0
 22 58  1  0
 23 60  1  0
 23 59  1  0
 23 61  1  0
M  END
>  <id>  (440) 
543

>  <scaffolds>  (440) 
[]

>  <name>  (440) 
Clathculin A

>  <formula>  (440) 
C21H38N2

>  <SMILES>  (440) 
C=CCC/C=C\C#CCCCCCCCCCN(C)CCNC

>  <ChEMBL_id>  (440) 


>  <ZINC_id>  (440) 


>  <PubChem_id>  (440) 


>  <DrugBank_id>  (440) 


>  <CAS_no>  (440) 
300811-99-8

>  <references>  (440) 
[{'journal': {'name': 'Journal of Natural Products', 'id': 5}, 'title': 'Clathculins A and B, Two Novel Nitrogen-Containing Metabolites from the Sponge Clathrina aff. reticulum', 'year': 2000, 'start_page': 1434, 'volume': 63, 'issue': 10, 'doi': '10.1021/np000149o', 'isbn': '', 'despositor': {'code': 'NFA', 'first_name': 'Ngonidzashe', 'last_name': 'Faya', 'id': 21}, 'refauthors_set': [{'author': {'first_name': 'Amira', 'initials': 'A', 'last_name': 'Rudi', 'id': 534}, 'first_author': True, 'id': 1061}, {'author': {'first_name': 'Michael', 'initials': 'M', 'last_name': 'Schleyer', 'id': 452}, 'first_author': None, 'id': 1145}, {'author': {'first_name': 'Yoel', 'initials': 'Y', 'last_name': 'Kashman', 'id': 536}, 'first_author': None, 'id': 1146}], 'id': 352}]

>  <classifications>  (440) 
[{'classification': 'Alkenynes', 'id': 740}, {'classification': 'Organonitrogen compounds (Classyfire)', 'id': 987}]

>  <molecular_mass>  (440) 
318.54

$$$$
SANC00544_minRM1.pdb
     RDKit          3D

 63 62  0  0  0  0  0  0  0  0999 V2000
   11.4070    2.4410    0.5720 C   0  0  0  0  0  0  0  0  0  0  0  0
   10.3000    1.7880   -0.2390 C   0  0  0  0  0  0  0  0  0  0  0  0
    9.9800    0.3980    0.3040 C   0  0  0  0  0  0  0  0  0  0  0  0
    8.8740   -0.2630   -0.5190 C   0  0  0  0  0  0  0  0  0  0  0  0
    8.5510   -1.6110    0.0250 C   0  0  0  0  0  0  0  0  0  0  0  0
    7.3060   -2.0680    0.1870 C   0  0  0  0  0  0  0  0  0  0  0  0
    6.1640   -1.3100   -0.1250 C   0  0  0  0  0  0  0  0  0  0  0  0
    5.1950   -0.6840   -0.3830 C   0  0  0  0  0  0  0  0  0  0  0  0
    4.0250    0.0850   -0.6980 C   0  0  0  0  0  0  0  0  0  0  0  0
    2.7700   -0.5900   -0.1370 C   0  0  0  0  0  0  0  0  0  0  0  0
    1.5300    0.2380   -0.4680 C   0  0  0  0  0  0  0  0  0  0  0  0
    0.2740   -0.4210    0.0980 C   0  0  0  0  0  0  0  0  0  0  0  0
   -0.9650    0.4070   -0.2390 C   0  0  0  0  0  0  0  0  0  0  0  0
   -2.2220   -0.2420    0.3380 C   0  0  0  0  0  0  0  0  0  0  0  0
   -3.4630    0.5710   -0.0230 C   0  0  0  0  0  0  0  0  0  0  0  0
   -4.7200   -0.0820    0.5510 C   0  0  0  0  0  0  0  0  0  0  0  0
   -5.9560    0.7540    0.1950 C   0  0  0  0  0  0  0  0  0  0  0  0
   -7.2030   -0.0320    0.4320 N   0  0  0  0  0  0  0  0  0  0  0  0
   -7.3590   -0.3780    1.8680 C   0  0  0  0  0  0  0  0  0  0  0  0
   -8.3940    0.7320   -0.0490 C   0  0  0  0  0  0  0  0  0  0  0  0
   -9.5850   -0.2470   -0.1450 C   0  0  0  0  0  0  0  0  0  0  0  0
  -10.7360    0.4680   -0.7380 N   0  0  0  0  0  0  0  0  0  0  0  0
  -11.8960   -0.4120   -0.9440 C   0  0  0  0  0  0  0  0  0  0  0  0
   11.6330    3.4560    0.2150 H   0  0  0  0  0  0  0  0  0  0  0  0
   11.1430    2.5330    1.6330 H   0  0  0  0  0  0  0  0  0  0  0  0
   12.3470    1.8750    0.5270 H   0  0  0  0  0  0  0  0  0  0  0  0
    9.3930    2.4280   -0.2300 H   0  0  0  0  0  0  0  0  0  0  0  0
   10.5910    1.7300   -1.3080 H   0  0  0  0  0  0  0  0  0  0  0  0
   10.8940   -0.2320    0.3070 H   0  0  0  0  0  0  0  0  0  0  0  0
    9.6750    0.4600    1.3690 H   0  0  0  0  0  0  0  0  0  0  0  0
    7.9780    0.3930   -0.5590 H   0  0  0  0  0  0  0  0  0  0  0  0
    9.1860   -0.3720   -1.5810 H   0  0  0  0  0  0  0  0  0  0  0  0
    9.4080   -2.2440    0.2830 H   0  0  0  0  0  0  0  0  0  0  0  0
    7.1040   -3.0730    0.5770 H   0  0  0  0  0  0  0  0  0  0  0  0
    4.1400    1.1150   -0.2930 H   0  0  0  0  0  0  0  0  0  0  0  0
    3.9520    0.2120   -1.8010 H   0  0  0  0  0  0  0  0  0  0  0  0
    2.6750   -1.6190   -0.5440 H   0  0  0  0  0  0  0  0  0  0  0  0
    2.8680   -0.7280    0.9600 H   0  0  0  0  0  0  0  0  0  0  0  0
    1.6380    1.2700   -0.0710 H   0  0  0  0  0  0  0  0  0  0  0  0
    1.4370    0.3670   -1.5680 H   0  0  0  0  0  0  0  0  0  0  0  0
    0.1670   -1.4540   -0.2970 H   0  0  0  0  0  0  0  0  0  0  0  0
    0.3670   -0.5480    1.1980 H   0  0  0  0  0  0  0  0  0  0  0  0
   -0.8550    1.4430    0.1470 H   0  0  0  0  0  0  0  0  0  0  0  0
   -1.0610    0.5260   -1.3390 H   0  0  0  0  0  0  0  0  0  0  0  0
   -2.3240   -1.2840   -0.0340 H   0  0  0  0  0  0  0  0  0  0  0  0
   -2.1320   -0.3450    1.4400 H   0  0  0  0  0  0  0  0  0  0  0  0
   -3.3640    1.6120    0.3490 H   0  0  0  0  0  0  0  0  0  0  0  0
   -3.5460    0.6730   -1.1260 H   0  0  0  0  0  0  0  0  0  0  0  0
   -4.8270   -1.1180    0.1690 H   0  0  0  0  0  0  0  0  0  0  0  0
   -4.6170   -0.1880    1.6510 H   0  0  0  0  0  0  0  0  0  0  0  0
   -5.9260    1.7310    0.7380 H   0  0  0  0  0  0  0  0  0  0  0  0
   -5.9250    1.0250   -0.8860 H   0  0  0  0  0  0  0  0  0  0  0  0
   -7.1950    0.4510    2.5860 H   0  0  0  0  0  0  0  0  0  0  0  0
   -8.3710   -0.7760    2.0710 H   0  0  0  0  0  0  0  0  0  0  0  0
   -6.6550   -1.1840    2.1360 H   0  0  0  0  0  0  0  0  0  0  0  0
   -8.6510    1.6130    0.5910 H   0  0  0  0  0  0  0  0  0  0  0  0
   -8.1880    1.1620   -1.0570 H   0  0  0  0  0  0  0  0  0  0  0  0
   -9.3180   -1.1100   -0.8000 H   0  0  0  0  0  0  0  0  0  0  0  0
   -9.7930   -0.7060    0.8590 H   0  0  0  0  0  0  0  0  0  0  0  0
  -11.0020    1.2710   -0.1500 H   0  0  0  0  0  0  0  0  0  0  0  0
  -12.7310    0.1670   -1.3780 H   0  0  0  0  0  0  0  0  0  0  0  0
  -11.6510   -1.2080   -1.6710 H   0  0  0  0  0  0  0  0  0  0  0  0
  -12.2900   -0.9210   -0.0420 H   0  0  0  0  0  0  0  0  0  0  0  0
  1  2  1  0
  1 24  1  0
  1 26  1  0
  1 25  1  0
  2 28  1  0
  2 27  1  0
  2  3  1  0
  3  4  1  0
  3 29  1  0
  3 30  1  0
  4 32  1  0
  4 31  1  0
  4  5  1  0
  5  6  2  0
  5 33  1  0
  6  7  1  0
  6 34  1  0
  7  8  3  0
  8  9  1  0
  9 36  1  0
  9 35  1  0
  9 10  1  0
 10 37  1  0
 10 11  1  0
 10 38  1  0
 11 40  1  0
 11 39  1  0
 11 12  1  0
 12 41  1  0
 12 13  1  0
 12 42  1  0
 13 44  1  0
 13 43  1  0
 13 14  1  0
 14 45  1  0
 14 15  1  0
 14 46  1  0
 15 48  1  0
 15 47  1  0
 15 16  1  0
 16 49  1  0
 16 17  1  0
 16 50  1  0
 17 52  1  0
 17 18  1  0
 17 51  1  0
 18 20  1  0
 18 19  1  0
 19 54  1  0
 19 55  1  0
 19 53  1  0
 20 57  1  0
 20 21  1  0
 20 56  1  0
 21 58  1  0
 21 22  1  0
 21 59  1  0
 22 23  1  0
 22 60  1  0
 23 62  1  0
 23 61  1  0
 23 63  1  0
M  END
>  <id>  (441) 
544

>  <scaffolds>  (441) 
[]

>  <name>  (441) 
Clathculin B

>  <formula>  (441) 
C21H40N2

>  <SMILES>  (441) 
CCCC/C=C\C#CCCCCCCCCCN(C)CCNC

>  <ChEMBL_id>  (441) 


>  <ZINC_id>  (441) 


>  <PubChem_id>  (441) 


>  <DrugBank_id>  (441) 


>  <CAS_no>  (441) 
300812-19-5

>  <references>  (441) 
[{'journal': {'name': 'Journal of Natural Products', 'id': 5}, 'title': 'Clathculins A and B, Two Novel Nitrogen-Containing Metabolites from the Sponge Clathrina aff. reticulum', 'year': 2000, 'start_page': 1434, 'volume': 63, 'issue': 10, 'doi': '10.1021/np000149o', 'isbn': '', 'despositor': {'code': 'NFA', 'first_name': 'Ngonidzashe', 'last_name': 'Faya', 'id': 21}, 'refauthors_set': [{'author': {'first_name': 'Amira', 'initials': 'A', 'last_name': 'Rudi', 'id': 534}, 'first_author': True, 'id': 1061}, {'author': {'first_name': 'Michael', 'initials': 'M', 'last_name': 'Schleyer', 'id': 452}, 'first_author': None, 'id': 1145}, {'author': {'first_name': 'Yoel', 'initials': 'Y', 'last_name': 'Kashman', 'id': 536}, 'first_author': None, 'id': 1146}], 'id': 352}]

>  <classifications>  (441) 
[{'classification': 'Alkenynes', 'id': 740}, {'classification': 'Organonitrogen compounds (Classyfire)', 'id': 987}]

>  <molecular_mass>  (441) 
320.55

$$$$
SANC00545_minRM1.pdb
     RDKit          3D

106111  0  0  1  0  0  0  0  0999 V2000
   -0.5650    1.4700    1.0080 H   0  0  0  0  0  0  0  0  0  0  0  0
   -6.9270   -1.1060    1.7170 H   0  0  0  0  0  0  0  0  0  0  0  0
   -4.0730    0.1520   -1.8340 H   0  0  0  0  0  0  0  0  0  0  0  0
    1.2560   -0.5030    0.4840 C   0  0  0  0  0  0  0  0  0  0  0  0
    6.6970    3.2910   -0.0970 C   0  0  0  0  0  0  0  0  0  0  0  0
    6.0090    1.6830   -1.8900 C   0  0  0  0  0  0  0  0  0  0  0  0
   -8.7170    1.5470    0.3440 C   0  0  0  0  0  0  0  0  0  0  0  0
   -8.7970    0.4510    2.5580 C   0  0  0  0  0  0  0  0  0  0  0  0
   -1.5190   -0.5390   -1.6560 C   0  0  0  0  0  0  0  0  0  0  0  0
   -3.1460    1.6500    1.1440 C   0  0  0  0  0  0  0  0  0  0  0  0
    7.6740   -1.7390   -2.9490 O   0  0  0  0  0  0  0  0  0  0  0  0
    3.9960    3.7320   -0.8830 O   0  0  0  0  0  0  0  0  0  0  0  0
   -9.3970   -1.9570    1.2750 O   0  0  0  0  0  0  0  0  0  0  0  0
   -7.8790   -2.9920   -0.6730 O   0  0  0  0  0  0  0  0  0  0  0  0
    8.4720   -2.0130    3.0050 O   0  0  0  0  0  0  0  0  0  0  0  0
    9.3050   -3.0980    0.5150 O   0  0  0  0  0  0  0  0  0  0  0  0
    7.6440    0.7200    2.7790 O   0  0  0  0  0  0  0  0  0  0  0  0
   -3.1980   -1.6090    0.5820 C   0  0  0  0  0  0  0  0  0  0  0  0
    7.6010   -2.4860   -1.7680 C   0  0  0  0  0  0  0  0  0  0  0  0
   -1.8710   -0.9470    0.7530 C   0  0  0  0  0  0  0  0  0  0  0  0
    1.8740    1.8290   -0.1220 C   0  0  0  0  0  0  0  0  0  0  0  0
    3.2850    1.4380   -0.5630 C   0  0  0  0  0  0  0  0  0  0  0  0
   -0.9850    2.3550   -0.9430 C   0  0  0  0  0  0  0  0  0  0  0  0
   -2.5010    2.2310   -1.1670 C   0  0  0  0  0  0  0  0  0  0  0  0
   -6.0220    0.7820    1.0060 C   0  0  0  0  0  0  0  0  0  0  0  0
   -9.2310   -1.0400   -0.9850 C   0  0  0  0  0  0  0  0  0  0  0  0
   -5.4770   -1.8280   -0.3560 C   0  0  0  0  0  0  0  0  0  0  0  0
   -6.4380    0.2040   -1.2370 O   0  0  0  0  0  0  0  0  0  0  0  0
    6.9140   -0.6400   -0.5050 O   0  0  0  0  0  0  0  0  0  0  0  0
    5.9400    1.0770    0.4730 O   0  0  0  0  0  0  0  0  0  0  0  0
   -5.5220    0.9500   -0.4530 C   0  0  2  0  0  0  0  0  0  0  0  0
   -4.2140   -1.0680   -0.0930 C   0  0  0  0  0  0  0  0  0  0  0  0
    0.8770    0.6890   -0.3900 C   0  0  2  0  0  0  0  0  0  0  0  0
    4.2800    2.5510   -0.2040 C   0  0  1  0  0  0  0  0  0  0  0  0
   -9.5180   -0.8000    0.5020 C   0  0  2  0  0  0  0  0  0  0  0  0
   -7.8640   -1.6910   -1.1940 C   0  0  1  0  0  0  0  0  0  0  0  0
    8.4480   -1.2630    1.8300 C   0  0  1  0  0  0  0  0  0  0  0  0
    8.1830   -2.2910    0.6990 C   0  0  1  0  0  0  0  0  0  0  0  0
    7.2740   -0.2570    1.8570 C   0  0  2  0  0  0  0  0  0  0  0  0
    8.0030   -1.5200   -0.6340 C   0  0  1  0  0  0  0  0  0  0  0  0
    7.1460    0.3780    0.4390 C   0  0  1  0  0  0  0  0  0  0  0  0
    5.7670    2.1270   -0.4540 C   0  0  1  0  0  0  0  0  0  0  0  0
   -8.5060    0.2180    1.0720 C   0  0  1  0  0  0  0  0  0  0  0  0
   -0.5470    1.1570   -0.0720 C   0  0  2  0  0  0  0  0  0  0  0  0
   -7.0800   -0.3330    0.9260 C   0  0  1  0  0  0  0  0  0  0  0  0
   -4.1530    0.2900   -0.7200 C   0  0  2  0  0  0  0  0  0  0  0  0
   -1.6870    0.1430   -0.3000 C   0  0  1  0  0  0  0  0  0  0  0  0
   -2.9310    1.0750   -0.2550 C   0  0  2  0  0  0  0  0  0  0  0  0
   -6.7420   -0.9360   -0.4560 C   0  0  1  0  0  0  0  0  0  0  0  0
    1.1660   -0.2820    1.5570 H   0  0  0  0  0  0  0  0  0  0  0  0
    0.6300   -1.3900    0.2960 H   0  0  0  0  0  0  0  0  0  0  0  0
    2.2990   -0.8190    0.3170 H   0  0  0  0  0  0  0  0  0  0  0  0
    6.4630    4.1920   -0.6830 H   0  0  0  0  0  0  0  0  0  0  0  0
    6.6190    3.5740    0.9630 H   0  0  0  0  0  0  0  0  0  0  0  0
    7.7560    3.0720   -0.2900 H   0  0  0  0  0  0  0  0  0  0  0  0
    7.0700    1.4710   -2.0940 H   0  0  0  0  0  0  0  0  0  0  0  0
    5.4670    0.7600   -2.1460 H   0  0  0  0  0  0  0  0  0  0  0  0
    5.7140    2.4530   -2.6160 H   0  0  0  0  0  0  0  0  0  0  0  0
   -8.0440    2.3360    0.7190 H   0  0  0  0  0  0  0  0  0  0  0  0
   -8.5450    1.4760   -0.7400 H   0  0  0  0  0  0  0  0  0  0  0  0
   -9.7400    1.9310    0.4730 H   0  0  0  0  0  0  0  0  0  0  0  0
   -9.8180    0.8240    2.7240 H   0  0  0  0  0  0  0  0  0  0  0  0
   -8.7030   -0.4620    3.1650 H   0  0  0  0  0  0  0  0  0  0  0  0
   -8.1170    1.1910    3.0040 H   0  0  0  0  0  0  0  0  0  0  0  0
   -2.3450   -1.2200   -1.9120 H   0  0  0  0  0  0  0  0  0  0  0  0
   -1.4280    0.1650   -2.4940 H   0  0  0  0  0  0  0  0  0  0  0  0
   -0.6210   -1.1750   -1.6960 H   0  0  0  0  0  0  0  0  0  0  0  0
   -3.8480    2.4980    1.1380 H   0  0  0  0  0  0  0  0  0  0  0  0
   -3.5570    0.9140    1.8530 H   0  0  0  0  0  0  0  0  0  0  0  0
   -2.2160    2.0310    1.5970 H   0  0  0  0  0  0  0  0  0  0  0  0
    6.9520   -2.0270   -3.5160 H   0  0  0  0  0  0  0  0  0  0  0  0
    3.9250    3.5430   -1.8240 H   0  0  0  0  0  0  0  0  0  0  0  0
   -9.8270   -2.6800    0.8090 H   0  0  0  0  0  0  0  0  0  0  0  0
   -8.3700   -3.5370   -1.2940 H   0  0  0  0  0  0  0  0  0  0  0  0
    8.6660   -1.4130    3.7320 H   0  0  0  0  0  0  0  0  0  0  0  0
    9.4300   -3.6120    1.3200 H   0  0  0  0  0  0  0  0  0  0  0  0
    6.9000    1.3240    2.8730 H   0  0  0  0  0  0  0  0  0  0  0  0
   -3.2880   -2.5970    1.0450 H   0  0  0  0  0  0  0  0  0  0  0  0
    6.5980   -2.9320   -1.5800 H   0  0  0  0  0  0  0  0  0  0  0  0
    8.3200   -3.3350   -1.8240 H   0  0  0  0  0  0  0  0  0  0  0  0
   -1.7660   -0.5580    1.7880 H   0  0  0  0  0  0  0  0  0  0  0  0
   -1.0570   -1.7050    0.6790 H   0  0  0  0  0  0  0  0  0  0  0  0
    1.8650    2.1000    0.9550 H   0  0  0  0  0  0  0  0  0  0  0  0
    1.5750    2.7610   -0.6440 H   0  0  0  0  0  0  0  0  0  0  0  0
    3.5900    0.4810   -0.0880 H   0  0  0  0  0  0  0  0  0  0  0  0
    3.2950    1.2250   -1.6530 H   0  0  0  0  0  0  0  0  0  0  0  0
   -0.4480    2.3840   -1.9120 H   0  0  0  0  0  0  0  0  0  0  0  0
   -0.7310    3.3170   -0.4570 H   0  0  0  0  0  0  0  0  0  0  0  0
   -3.0350    3.1770   -0.9490 H   0  0  0  0  0  0  0  0  0  0  0  0
   -2.7460    2.0450   -2.2320 H   0  0  0  0  0  0  0  0  0  0  0  0
   -5.2170    0.4930    1.7110 H   0  0  0  0  0  0  0  0  0  0  0  0
   -6.4110    1.7380    1.4070 H   0  0  0  0  0  0  0  0  0  0  0  0
  -10.0310   -1.6570   -1.4460 H   0  0  0  0  0  0  0  0  0  0  0  0
   -9.2710   -0.0770   -1.5390 H   0  0  0  0  0  0  0  0  0  0  0  0
   -5.3360   -2.3800   -1.3120 H   0  0  0  0  0  0  0  0  0  0  0  0
   -5.6400   -2.6200    0.4050 H   0  0  0  0  0  0  0  0  0  0  0  0
   -5.5600    1.9990   -0.8230 H   0  0  0  0  0  0  0  0  0  0  0  0
    0.9560    0.3990   -1.4680 H   0  0  0  0  0  0  0  0  0  0  0  0
    4.1660    2.8490    0.8730 H   0  0  0  0  0  0  0  0  0  0  0  0
  -10.5650   -0.3950    0.6090 H   0  0  0  0  0  0  0  0  0  0  0  0
   -7.6240   -1.7060   -2.2960 H   0  0  0  0  0  0  0  0  0  0  0  0
    9.4250   -0.7320    1.6590 H   0  0  0  0  0  0  0  0  0  0  0  0
    7.2650   -2.8960    0.9320 H   0  0  0  0  0  0  0  0  0  0  0  0
    6.3200   -0.7770    2.1470 H   0  0  0  0  0  0  0  0  0  0  0  0
    8.9500   -0.9790   -0.9070 H   0  0  0  0  0  0  0  0  0  0  0  0
    8.0480    1.0010    0.1850 H   0  0  0  0  0  0  0  0  0  0  0  0
  4 33  1  0
  4 51  1  0
  4 52  1  0
  4 50  1  0
  5 53  1  0
  5 42  1  0
  5 55  1  0
  5 54  1  0
  6 58  1  0
  6 57  1  0
  6 56  1  0
  6 42  1  0
  7 60  1  0
  7 61  1  0
  7 59  1  0
 43  7  1  6
  8 43  1  0
  8 62  1  0
  8 64  1  0
  8 63  1  0
  9 66  1  0
  9 65  1  0
  9 67  1  0
 10 68  1  0
 10 70  1  0
 10 69  1  0
 11 71  1  0
 11 19  1  0
 12 72  1  0
 12 34  1  0
 13 35  1  0
 13 73  1  0
 14 74  1  0
 14 36  1  0
 15 37  1  0
 15 75  1  0
 16 38  1  0
 16 76  1  0
 17 39  1  0
 17 77  1  0
 18 32  2  0
 18 20  1  0
 18 78  1  0
 19 80  1  0
 19 79  1  0
 19 40  1  0
 20 47  1  0
 20 82  1  0
 20 81  1  0
 21 84  1  0
 21 22  1  0
 21 33  1  0
 21 83  1  0
 22 86  1  0
 22 34  1  0
 22 85  1  0
 23 87  1  0
 23 24  1  0
 23 88  1  0
 23 44  1  0
 24 90  1  0
 24 89  1  0
 24 48  1  0
 25 31  1  0
 25 45  1  0
 25 92  1  0
 25 91  1  0
 26 94  1  0
 26 93  1  0
 26 36  1  0
 26 35  1  0
 27 95  1  0
 49 27  1  1
 27 32  1  0
 27 96  1  0
 28 31  1  0
 29 40  1  0
 29 41  1  0
 42 30  1  1
 30 41  1  0
 31 97  1  6
 31 46  1  0
 32 46  1  0
 33 98  1  6
 33 44  1  0
 34 42  1  0
 34 99  1  1
 35100  1  6
 35 43  1  0
 36101  1  6
 36 49  1  0
 37 38  1  0
 37102  1  6
 37 39  1  0
 38 40  1  0
 38103  1  1
 39 41  1  0
 39104  1  1
 40105  1  6
 41106  1  6
 43 45  1  0
 44  1  1  1
 44 47  1  0
 45  2  1  1
 45 49  1  0
 46  3  1  6
 46 48  1  0
 47  9  1  6
 47 48  1  0
 48 10  1  1
 49 28  1  0
M  END
>  <id>  (442) 
545

>  <scaffolds>  (442) 
['C1=CCCCC1', 'C1CCOCC1', 'C1CCCCC1', 'C1=C2CC34CCCCC3CC(O4)C2C2CCC(CCCCCOC3CCCCO3)C2C1']

>  <name>  (442) 
Sutherlandioside A

>  <formula>  (442) 
C36H60O10

>  <SMILES>  (442) 
[H][C@]2([C@H](C)CC[C@H](O)C(C)(C)O[C@@H]1O[C@H](CO)[C@@H](O)[C@H](O)[C@H]1O)CC[C@@]3(C)[C@@]4([H])C(=CC[C@]23C)C[C@]56O[C@@H]4C[C@@]5([H])C(C)(C)[C@H](O)C[C@@H]6O

>  <ChEMBL_id>  (442) 


>  <ZINC_id>  (442) 


>  <PubChem_id>  (442) 


>  <DrugBank_id>  (442) 


>  <CAS_no>  (442) 
1055329-46-8

>  <references>  (442) 
[{'journal': {'name': 'Journal of Natural Products', 'id': 5}, 'title': 'Cycloartane Glycosides from Sutherlandia frutescens', 'year': 2008, 'start_page': 1749, 'volume': 71, 'issue': 10, 'doi': '10.1021/np800328r', 'isbn': '', 'despositor': {'code': 'NFA', 'first_name': 'Ngonidzashe', 'last_name': 'Faya', 'id': 21}, 'refauthors_set': [{'author': {'first_name': 'Xiang', 'initials': 'x', 'last_name': 'Fu', 'id': 731}, 'first_author': True, 'id': 1062}, {'author': {'first_name': 'Troy', 'initials': 'TJ', 'last_name': 'Smillie', 'id': 732}, 'first_author': None, 'id': 1147}, {'author': {'first_name': 'Paulo', 'initials': 'P', 'last_name': 'Carvalho', 'id': 733}, 'first_author': None, 'id': 1148}, {'author': {'first_name': 'Quinton', 'initials': 'Q', 'last_name': 'Johnson', 'id': 735}, 'first_author': None, 'id': 1149}, {'author': {'first_name': 'William', 'initials': 'W', 'last_name': 'Folk', 'id': 736}, 'first_author': None, 'id': 1150}, {'author': {'first_name': 'Mitchell', 'initials': 'MA', 'last_name': 'Avery', 'id': 737}, 'first_author': None, 'id': 1151}, {'author': {'first_name': 'Ikhlas', 'initials': 'IA', 'last_name': 'Khan', 'id': 738}, 'first_author': None, 'id': 1152}, {'author': {'first_name': 'Wilfred', 'initials': 'W', 'last_name': 'Mabusela', 'id': 792}, 'first_author': None, 'id': 1153}], 'id': 353}]

>  <classifications>  (442) 
[{'classification': 'Cycloartane', 'id': 766}, {'classification': 'Glycoside', 'id': 781}, {'classification': 'Phenol lipids (Classyfire)', 'id': 951}]

>  <molecular_mass>  (442) 
652.85

$$$$
SANC00546_minRM1.pdb
     RDKit          3D

106111  0  0  1  0  0  0  0  0999 V2000
   -1.0380   -0.7930   -1.2470 H   0  0  0  0  0  0  0  0  0  0  0  0
   -0.8700   -1.0450   -0.1660 C   0  0  1  0  0  0  0  0  0  0  0  0
    0.5990   -0.7390    0.1510 C   0  0  2  0  0  0  0  0  0  0  0  0
    0.8310   -1.0050    1.2130 H   0  0  0  0  0  0  0  0  0  0  0  0
    0.9050    0.7390   -0.0680 C   0  0  0  0  0  0  0  0  0  0  0  0
    1.5120   -1.5670   -0.7700 C   0  0  0  0  0  0  0  0  0  0  0  0
    2.9760   -1.4330   -0.3510 C   0  0  0  0  0  0  0  0  0  0  0  0
    3.8860   -2.1470   -1.3600 C   0  0  2  0  0  0  0  0  0  0  0  0
    3.6930   -1.7700   -2.4000 H   0  0  0  0  0  0  0  0  0  0  0  0
    3.5820   -3.5020   -1.4600 O   0  0  0  0  0  0  0  0  0  0  0  0
    5.4080   -1.9640   -1.0290 C   0  0  1  0  0  0  0  0  0  0  0  0
    5.7620   -2.4720    0.3620 C   0  0  0  0  0  0  0  0  0  0  0  0
    6.2490   -2.6860   -2.0860 C   0  0  0  0  0  0  0  0  0  0  0  0
    5.5810   -0.5680   -1.1560 O   0  0  0  0  0  0  0  0  0  0  0  0
    6.8250   -0.0410   -0.8070 C   0  0  2  0  0  0  0  0  0  0  0  0
    7.7050   -0.7030   -1.0440 H   0  0  0  0  0  0  0  0  0  0  0  0
    6.7030    0.2160    0.5730 O   0  0  0  0  0  0  0  0  0  0  0  0
    7.8500    0.8210    1.1150 C   0  0  2  0  0  0  0  0  0  0  0  0
    8.7730    0.2020    0.9430 H   0  0  0  0  0  0  0  0  0  0  0  0
    7.5640    0.9340    2.6290 C   0  0  0  0  0  0  0  0  0  0  0  0
    7.6430   -0.3680    3.1330 O   0  0  0  0  0  0  0  0  0  0  0  0
    8.0150    2.2310    0.4900 C   0  0  1  0  0  0  0  0  0  0  0  0
    7.1290    2.8770    0.7370 H   0  0  0  0  0  0  0  0  0  0  0  0
    9.1970    2.7400    1.0270 O   0  0  0  0  0  0  0  0  0  0  0  0
    8.1520    2.0790   -1.0480 C   0  0  2  0  0  0  0  0  0  0  0  0
    9.1000    1.5300   -1.3050 H   0  0  0  0  0  0  0  0  0  0  0  0
    8.1660    3.3820   -1.5440 O   0  0  0  0  0  0  0  0  0  0  0  0
    6.9140    1.3150   -1.5720 C   0  0  1  0  0  0  0  0  0  0  0  0
    5.9820    1.9240   -1.4150 H   0  0  0  0  0  0  0  0  0  0  0  0
    7.1670    1.0790   -2.9230 O   0  0  0  0  0  0  0  0  0  0  0  0
   -1.2240   -2.5320    0.0680 C   0  0  0  0  0  0  0  0  0  0  0  0
   -2.6660   -2.5840    0.5990 C   0  0  0  0  0  0  0  0  0  0  0  0
   -3.1980   -1.1620    0.3850 C   0  0  2  0  0  0  0  0  0  0  0  0
   -3.6480   -1.0350   -1.0740 C   0  0  0  0  0  0  0  0  0  0  0  0
   -1.9370   -0.3110    0.6760 C   0  0  1  0  0  0  0  0  0  0  0  0
   -1.5460   -0.3610    2.1550 C   0  0  0  0  0  0  0  0  0  0  0  0
   -2.2530    1.1230    0.2740 C   0  0  0  0  0  0  0  0  0  0  0  0
   -3.4550    1.6240    1.0650 C   0  0  0  0  0  0  0  0  0  0  0  0
   -4.6720    0.7150    1.0990 C   0  0  1  0  0  0  0  0  0  0  0  0
   -5.8120    1.3680    1.8650 C   0  0  0  0  0  0  0  0  0  0  0  0
   -5.9660    1.0940    0.3840 C   0  0  1  0  0  0  0  0  0  0  0  0
   -5.9960    2.2050   -0.6040 C   0  0  0  0  0  0  0  0  0  0  0  0
   -5.0470    2.5420   -1.2820 O   0  0  0  0  0  0  0  0  0  0  0  0
   -7.3540    2.8300   -0.7790 C   0  0  0  0  0  0  0  0  0  0  0  0
   -8.3040    1.7300   -1.2780 C   0  0  1  0  0  0  0  0  0  0  0  0
   -9.3350    2.1640   -1.4070 H   0  0  0  0  0  0  0  0  0  0  0  0
   -7.8460    1.2090   -2.4940 O   0  0  0  0  0  0  0  0  0  0  0  0
   -8.3520    0.5400   -0.2830 C   0  0  1  0  0  0  0  0  0  0  0  0
   -9.0260    1.0150    1.0030 C   0  0  0  0  0  0  0  0  0  0  0  0
   -9.2220   -0.5650   -0.8900 C   0  0  0  0  0  0  0  0  0  0  0  0
   -6.9260    0.0010   -0.0370 C   0  0  2  0  0  0  0  0  0  0  0  0
   -6.5480   -0.4250   -1.0060 H   0  0  0  0  0  0  0  0  0  0  0  0
   -6.9190   -1.0970    1.0230 C   0  0  0  0  0  0  0  0  0  0  0  0
   -5.5270   -1.7390    1.0800 C   0  0  2  0  0  0  0  0  0  0  0  0
   -5.3870   -2.3050    0.1120 H   0  0  0  0  0  0  0  0  0  0  0  0
   -5.4600   -2.6180    2.1710 O   0  0  0  0  0  0  0  0  0  0  0  0
   -4.3550   -0.7520    1.3070 C   0  0  1  0  0  0  0  0  0  0  0  0
   -4.0190   -0.8290    2.3810 H   0  0  0  0  0  0  0  0  0  0  0  0
    0.7070    1.0620   -1.1010 H   0  0  0  0  0  0  0  0  0  0  0  0
    0.3090    1.3980    0.5840 H   0  0  0  0  0  0  0  0  0  0  0  0
    1.9640    0.9740    0.1360 H   0  0  0  0  0  0  0  0  0  0  0  0
    1.2280   -2.6390   -0.7670 H   0  0  0  0  0  0  0  0  0  0  0  0
    1.3760   -1.2520   -1.8260 H   0  0  0  0  0  0  0  0  0  0  0  0
    3.2620   -0.3630   -0.2710 H   0  0  0  0  0  0  0  0  0  0  0  0
    3.1150   -1.8370    0.6730 H   0  0  0  0  0  0  0  0  0  0  0  0
    3.5600   -3.8830   -0.5770 H   0  0  0  0  0  0  0  0  0  0  0  0
    5.4720   -3.5220    0.5050 H   0  0  0  0  0  0  0  0  0  0  0  0
    6.8440   -2.4320    0.5660 H   0  0  0  0  0  0  0  0  0  0  0  0
    5.2870   -1.8840    1.1610 H   0  0  0  0  0  0  0  0  0  0  0  0
    6.1170   -2.2520   -3.0870 H   0  0  0  0  0  0  0  0  0  0  0  0
    7.3260   -2.6670   -1.8690 H   0  0  0  0  0  0  0  0  0  0  0  0
    5.9780   -3.7480   -2.1630 H   0  0  0  0  0  0  0  0  0  0  0  0
    8.3390    1.5660    3.1200 H   0  0  0  0  0  0  0  0  0  0  0  0
    6.5840    1.4310    2.8160 H   0  0  0  0  0  0  0  0  0  0  0  0
    6.9610   -0.4560    3.8080 H   0  0  0  0  0  0  0  0  0  0  0  0
    9.3150    3.6310    0.6790 H   0  0  0  0  0  0  0  0  0  0  0  0
    8.2790    3.3290   -2.5000 H   0  0  0  0  0  0  0  0  0  0  0  0
    6.3810    0.6680   -3.2980 H   0  0  0  0  0  0  0  0  0  0  0  0
   -1.1250   -3.1160   -0.8690 H   0  0  0  0  0  0  0  0  0  0  0  0
   -0.5300   -3.0260    0.7760 H   0  0  0  0  0  0  0  0  0  0  0  0
   -3.2630   -3.3640    0.0860 H   0  0  0  0  0  0  0  0  0  0  0  0
   -2.7110   -2.8820    1.6660 H   0  0  0  0  0  0  0  0  0  0  0  0
   -4.4390   -1.7660   -1.3160 H   0  0  0  0  0  0  0  0  0  0  0  0
   -4.0620   -0.0460   -1.3210 H   0  0  0  0  0  0  0  0  0  0  0  0
   -2.8330   -1.2200   -1.7920 H   0  0  0  0  0  0  0  0  0  0  0  0
   -1.0600   -1.3020    2.4510 H   0  0  0  0  0  0  0  0  0  0  0  0
   -0.8480    0.4420    2.4310 H   0  0  0  0  0  0  0  0  0  0  0  0
   -2.4090   -0.2670    2.8340 H   0  0  0  0  0  0  0  0  0  0  0  0
   -1.3810    1.7930    0.4580 H   0  0  0  0  0  0  0  0  0  0  0  0
   -2.4260    1.2240   -0.8180 H   0  0  0  0  0  0  0  0  0  0  0  0
   -3.1550    1.7970    2.1250 H   0  0  0  0  0  0  0  0  0  0  0  0
   -3.7160    2.6460    0.7170 H   0  0  0  0  0  0  0  0  0  0  0  0
   -6.3890    0.7930    2.6010 H   0  0  0  0  0  0  0  0  0  0  0  0
   -5.7150    2.3970    2.2280 H   0  0  0  0  0  0  0  0  0  0  0  0
   -7.7020    3.2730    0.1750 H   0  0  0  0  0  0  0  0  0  0  0  0
   -7.3250    3.6900   -1.4820 H   0  0  0  0  0  0  0  0  0  0  0  0
   -7.7310    1.9410   -3.1070 H   0  0  0  0  0  0  0  0  0  0  0  0
   -9.9760    1.5360    0.8050 H   0  0  0  0  0  0  0  0  0  0  0  0
   -9.2830    0.1840    1.6770 H   0  0  0  0  0  0  0  0  0  0  0  0
   -8.4080    1.7070    1.5910 H   0  0  0  0  0  0  0  0  0  0  0  0
   -8.7840   -1.0080   -1.7980 H   0  0  0  0  0  0  0  0  0  0  0  0
   -9.3900   -1.3990   -0.1920 H   0  0  0  0  0  0  0  0  0  0  0  0
  -10.2170   -0.1930   -1.1740 H   0  0  0  0  0  0  0  0  0  0  0  0
   -7.2040   -0.7130    2.0270 H   0  0  0  0  0  0  0  0  0  0  0  0
   -7.6840   -1.8710    0.7980 H   0  0  0  0  0  0  0  0  0  0  0  0
   -6.0830   -3.3340    2.0120 H   0  0  0  0  0  0  0  0  0  0  0  0
  2  1  1  6
  2 31  1  0
  2  3  1  0
  2 35  1  0
  3  6  1  0
  3  5  1  0
  3  4  1  1
  5 59  1  0
  5 61  1  0
  5 60  1  0
  6 63  1  0
  6 62  1  0
  6  7  1  0
  7  8  1  0
  7 64  1  0
  7 65  1  0
  8  9  1  6
  8 10  1  0
  8 11  1  0
 10 66  1  0
 11 13  1  0
 11 14  1  1
 11 12  1  0
 12 67  1  0
 12 68  1  0
 12 69  1  0
 13 70  1  0
 13 72  1  0
 13 71  1  0
 14 15  1  0
 15 28  1  0
 15 16  1  1
 15 17  1  0
 17 18  1  0
 18 22  1  0
 18 19  1  1
 18 20  1  0
 20 74  1  0
 20 73  1  0
 20 21  1  0
 21 75  1  0
 22 25  1  0
 22 23  1  6
 22 24  1  0
 24 76  1  0
 25 28  1  0
 25 27  1  0
 25 26  1  1
 27 77  1  0
 28 30  1  0
 28 29  1  6
 30 78  1  0
 31 79  1  0
 31 32  1  0
 31 80  1  0
 32 81  1  0
 32 33  1  0
 32 82  1  0
 33 34  1  6
 33 35  1  0
 33 57  1  0
 34 85  1  0
 34 84  1  0
 34 83  1  0
 35 37  1  0
 35 36  1  1
 36 87  1  0
 36 86  1  0
 36 88  1  0
 37 90  1  0
 37 89  1  0
 37 38  1  0
 38 92  1  0
 38 91  1  0
 39 38  1  6
 39 41  1  0
 39 57  1  0
 39 40  1  0
 40 41  1  0
 40 94  1  0
 40 93  1  0
 41 42  1  6
 41 51  1  0
 42 43  2  0
 42 44  1  0
 44 96  1  0
 44 45  1  0
 44 95  1  0
 45 47  1  0
 45 46  1  6
 45 48  1  0
 47 97  1  0
 48 50  1  6
 48 51  1  0
 48 49  1  0
 49 98  1  0
 49100  1  0
 49 99  1  0
 50101  1  0
 50103  1  0
 50102  1  0
 51 52  1  6
 51 53  1  0
 53105  1  0
 53 54  1  0
 53104  1  0
 54 55  1  6
 54 57  1  0
 54 56  1  0
 56106  1  0
 57 58  1  1
M  END
>  <id>  (443) 
546

>  <scaffolds>  (443) 
['C1CCOCC1', 'C1CCC(C2CCCC2)CC1', 'C1CCCCC1', 'C1CC2CCC34CC35CCCCC5CCC4C2C1', 'C1CCC2C(C1)CCC1C3CCCC3CCC21', 'O=C1CCCC2CCC3C4CCC(CCCCCOC5CCCCO5)C4CCC34CC124', 'C1CCC2CCCCC2C1']

>  <name>  (443) 
Sutherlandioside B

>  <formula>  (443) 
C36H60O10

>  <SMILES>  (443) 
[H][C@]2([C@H](C)CC[C@H](O)C(C)(C)O[C@@H]1O[C@H](CO)[C@@H](O)[C@H](O)[C@H]1O)CC[C@]5(C)[C@]2(C)CC[C@@]36C[C@@]34C(=O)C[C@@H](O)C(C)(C)[C@]4([H])C[C@H](O)[C@@]56[H]

>  <ChEMBL_id>  (443) 


>  <ZINC_id>  (443) 


>  <PubChem_id>  (443) 


>  <DrugBank_id>  (443) 


>  <CAS_no>  (443) 
1055329-47-9

>  <references>  (443) 
[{'journal': {'name': 'Journal of Natural Products', 'id': 5}, 'title': 'Cycloartane Glycosides from Sutherlandia frutescens', 'year': 2008, 'start_page': 1749, 'volume': 71, 'issue': 10, 'doi': '10.1021/np800328r', 'isbn': '', 'despositor': {'code': 'NFA', 'first_name': 'Ngonidzashe', 'last_name': 'Faya', 'id': 21}, 'refauthors_set': [{'author': {'first_name': 'Xiang', 'initials': 'x', 'last_name': 'Fu', 'id': 731}, 'first_author': True, 'id': 1062}, {'author': {'first_name': 'Troy', 'initials': 'TJ', 'last_name': 'Smillie', 'id': 732}, 'first_author': None, 'id': 1147}, {'author': {'first_name': 'Paulo', 'initials': 'P', 'last_name': 'Carvalho', 'id': 733}, 'first_author': None, 'id': 1148}, {'author': {'first_name': 'Quinton', 'initials': 'Q', 'last_name': 'Johnson', 'id': 735}, 'first_author': None, 'id': 1149}, {'author': {'first_name': 'William', 'initials': 'W', 'last_name': 'Folk', 'id': 736}, 'first_author': None, 'id': 1150}, {'author': {'first_name': 'Mitchell', 'initials': 'MA', 'last_name': 'Avery', 'id': 737}, 'first_author': None, 'id': 1151}, {'author': {'first_name': 'Ikhlas', 'initials': 'IA', 'last_name': 'Khan', 'id': 738}, 'first_author': None, 'id': 1152}, {'author': {'first_name': 'Wilfred', 'initials': 'W', 'last_name': 'Mabusela', 'id': 792}, 'first_author': None, 'id': 1153}], 'id': 353}]

>  <classifications>  (443) 
[{'classification': 'Cycloartane', 'id': 766}, {'classification': 'Glycoside', 'id': 781}, {'classification': 'Steroids and steroid derivatives (Classyfire)', 'id': 942}]

>  <molecular_mass>  (443) 
652.85

$$$$
SANC00547_minRM1.pdb
     RDKit          3D

104109  0  0  1  0  0  0  0  0999 V2000
   -0.9480   -1.3050   -1.2990 H   0  0  0  0  0  0  0  0  0  0  0  0
   -0.8160   -1.2920   -0.1840 C   0  0  1  0  0  0  0  0  0  0  0  0
    0.6280   -0.8620    0.1000 C   0  0  2  0  0  0  0  0  0  0  0  0
    0.8130   -0.8460    1.2040 H   0  0  0  0  0  0  0  0  0  0  0  0
    0.9000    0.5250   -0.4750 C   0  0  0  0  0  0  0  0  0  0  0  0
    1.6100   -1.8560   -0.5420 C   0  0  0  0  0  0  0  0  0  0  0  0
    3.0400   -1.5830   -0.0780 C   0  0  0  0  0  0  0  0  0  0  0  0
    4.0310   -2.4710   -0.8450 C   0  0  2  0  0  0  0  0  0  0  0  0
    3.8990   -2.3390   -1.9530 H   0  0  0  0  0  0  0  0  0  0  0  0
    3.7620   -3.8230   -0.6600 O   0  0  0  0  0  0  0  0  0  0  0  0
    5.5220   -2.1650   -0.4740 C   0  0  1  0  0  0  0  0  0  0  0  0
    5.7900   -2.3260    1.0170 C   0  0  0  0  0  0  0  0  0  0  0  0
    6.4440   -3.0850   -1.2800 C   0  0  0  0  0  0  0  0  0  0  0  0
    5.6750   -0.8320   -0.9130 O   0  0  0  0  0  0  0  0  0  0  0  0
    6.8790   -0.1920   -0.6150 C   0  0  2  0  0  0  0  0  0  0  0  0
    7.7860   -0.8580   -0.6280 H   0  0  0  0  0  0  0  0  0  0  0  0
    6.6470    0.3760    0.6520 O   0  0  0  0  0  0  0  0  0  0  0  0
    7.7340    1.1390    1.1140 C   0  0  2  0  0  0  0  0  0  0  0  0
    8.6820    0.5360    1.1580 H   0  0  0  0  0  0  0  0  0  0  0  0
    7.3260    1.5890    2.5320 C   0  0  0  0  0  0  0  0  0  0  0  0
    7.3860    0.4380    3.3240 O   0  0  0  0  0  0  0  0  0  0  0  0
    7.9140    2.3680    0.1860 C   0  0  1  0  0  0  0  0  0  0  0  0
    6.9980    3.0200    0.2130 H   0  0  0  0  0  0  0  0  0  0  0  0
    9.0410    3.0330    0.6650 O   0  0  0  0  0  0  0  0  0  0  0  0
    8.1700    1.8650   -1.2590 C   0  0  2  0  0  0  0  0  0  0  0  0
    9.1460    1.3110   -1.3160 H   0  0  0  0  0  0  0  0  0  0  0  0
    8.1880    3.0160   -2.0470 O   0  0  0  0  0  0  0  0  0  0  0  0
    6.9940    0.9480   -1.6710 C   0  0  1  0  0  0  0  0  0  0  0  0
    6.0390    1.5370   -1.7280 H   0  0  0  0  0  0  0  0  0  0  0  0
    7.3570    0.4120   -2.9060 O   0  0  0  0  0  0  0  0  0  0  0  0
   -1.1330   -2.6960    0.3720 C   0  0  0  0  0  0  0  0  0  0  0  0
   -2.6040   -2.6930    0.8140 C   0  0  0  0  0  0  0  0  0  0  0  0
   -3.1610   -1.3530    0.3200 C   0  0  1  0  0  0  0  0  0  0  0  0
   -3.6210   -1.5140   -1.1310 C   0  0  0  0  0  0  0  0  0  0  0  0
   -4.3210   -0.8090    1.1590 C   0  0  2  0  0  0  0  0  0  0  0  0
   -3.9990   -0.7200    2.2340 H   0  0  0  0  0  0  0  0  0  0  0  0
   -5.4800   -1.8130    1.1140 C   0  0  0  0  0  0  0  0  0  0  0  0
   -6.8470   -1.1880    1.3490 C   0  0  0  0  0  0  0  0  0  0  0  0
   -7.1340   -0.1850    0.2340 C   0  0  1  0  0  0  0  0  0  0  0  0
   -7.0410   -0.7180   -0.7500 H   0  0  0  0  0  0  0  0  0  0  0  0
   -8.5480    0.4260    0.3190 C   0  0  1  0  0  0  0  0  0  0  0  0
   -9.6020   -0.6750    0.1830 C   0  0  0  0  0  0  0  0  0  0  0  0
   -8.7930    1.1510    1.6400 C   0  0  0  0  0  0  0  0  0  0  0  0
   -8.7420    1.4470   -0.8370 C   0  0  2  0  0  0  0  0  0  0  0  0
   -9.7470    1.9470   -0.7350 H   0  0  0  0  0  0  0  0  0  0  0  0
   -8.6840    0.7060   -2.0210 O   0  0  0  0  0  0  0  0  0  0  0  0
   -7.6470    2.5280   -0.8320 C   0  0  0  0  0  0  0  0  0  0  0  0
   -6.3100    1.8440   -0.8670 C   0  0  0  0  0  0  0  0  0  0  0  0
   -5.5240    1.9780   -1.7810 O   0  0  0  0  0  0  0  0  0  0  0  0
   -6.0900    0.9070    0.2730 C   0  0  1  0  0  0  0  0  0  0  0  0
   -5.6100    1.4040    1.6130 C   0  0  0  0  0  0  0  0  0  0  0  0
   -4.6640    0.5990    0.7240 C   0  0  1  0  0  0  0  0  0  0  0  0
   -3.5640    1.4450    0.1380 C   0  0  0  0  0  0  0  0  0  0  0  0
   -3.7300    2.6510    0.0370 O   0  0  0  0  0  0  0  0  0  0  0  0
   -2.2460    0.8660   -0.3080 C   0  0  0  0  0  0  0  0  0  0  0  0
   -1.9310   -0.4210    0.4330 C   0  0  2  0  0  0  0  0  0  0  0  0
   -1.6040   -0.0810    1.8870 C   0  0  0  0  0  0  0  0  0  0  0  0
    0.2820    1.3110   -0.0140 H   0  0  0  0  0  0  0  0  0  0  0  0
    1.9500    0.8290   -0.3270 H   0  0  0  0  0  0  0  0  0  0  0  0
    0.7120    0.5770   -1.5570 H   0  0  0  0  0  0  0  0  0  0  0  0
    1.3450   -2.9060   -0.3040 H   0  0  0  0  0  0  0  0  0  0  0  0
    1.5400   -1.8020   -1.6490 H   0  0  0  0  0  0  0  0  0  0  0  0
    3.3010   -0.5120   -0.2230 H   0  0  0  0  0  0  0  0  0  0  0  0
    3.1190   -1.7460    1.0170 H   0  0  0  0  0  0  0  0  0  0  0  0
    3.7210   -4.0070    0.2840 H   0  0  0  0  0  0  0  0  0  0  0  0
    5.4960   -3.3200    1.3820 H   0  0  0  0  0  0  0  0  0  0  0  0
    6.8560   -2.2180    1.2700 H   0  0  0  0  0  0  0  0  0  0  0  0
    5.2630   -1.5790    1.6280 H   0  0  0  0  0  0  0  0  0  0  0  0
    6.3510   -2.9150   -2.3630 H   0  0  0  0  0  0  0  0  0  0  0  0
    7.5060   -2.9590   -1.0300 H   0  0  0  0  0  0  0  0  0  0  0  0
    6.2140   -4.1450   -1.1050 H   0  0  0  0  0  0  0  0  0  0  0  0
    8.0410    2.3550    2.9150 H   0  0  0  0  0  0  0  0  0  0  0  0
    6.3230    2.0730    2.5260 H   0  0  0  0  0  0  0  0  0  0  0  0
    6.7410    0.5420    4.0280 H   0  0  0  0  0  0  0  0  0  0  0  0
    9.1650    3.8220    0.1260 H   0  0  0  0  0  0  0  0  0  0  0  0
    8.3710    2.7510   -2.9530 H   0  0  0  0  0  0  0  0  0  0  0  0
    6.6110   -0.1070   -3.2230 H   0  0  0  0  0  0  0  0  0  0  0  0
   -0.9480   -3.4790   -0.3900 H   0  0  0  0  0  0  0  0  0  0  0  0
   -0.4720   -2.9710    1.2170 H   0  0  0  0  0  0  0  0  0  0  0  0
   -3.1610   -3.5650    0.4160 H   0  0  0  0  0  0  0  0  0  0  0  0
   -2.7010   -2.8020    1.9130 H   0  0  0  0  0  0  0  0  0  0  0  0
   -4.3680   -2.3210   -1.2310 H   0  0  0  0  0  0  0  0  0  0  0  0
   -4.1130   -0.6190   -1.5390 H   0  0  0  0  0  0  0  0  0  0  0  0
   -2.7990   -1.7700   -1.8150 H   0  0  0  0  0  0  0  0  0  0  0  0
   -5.5000   -2.3710    0.1490 H   0  0  0  0  0  0  0  0  0  0  0  0
   -5.2960   -2.6100    1.8670 H   0  0  0  0  0  0  0  0  0  0  0  0
   -7.6190   -1.9850    1.3790 H   0  0  0  0  0  0  0  0  0  0  0  0
   -6.8910   -0.7200    2.3560 H   0  0  0  0  0  0  0  0  0  0  0  0
   -9.6750   -1.3060    1.0800 H   0  0  0  0  0  0  0  0  0  0  0  0
  -10.6100   -0.2630    0.0180 H   0  0  0  0  0  0  0  0  0  0  0  0
   -9.4070   -1.3490   -0.6630 H   0  0  0  0  0  0  0  0  0  0  0  0
   -8.1250    2.0080    1.8030 H   0  0  0  0  0  0  0  0  0  0  0  0
   -9.8190    1.5470    1.7070 H   0  0  0  0  0  0  0  0  0  0  0  0
   -8.6720    0.4920    2.5120 H   0  0  0  0  0  0  0  0  0  0  0  0
   -8.7740    1.3180   -2.7580 H   0  0  0  0  0  0  0  0  0  0  0  0
   -7.7690    3.2330   -1.6810 H   0  0  0  0  0  0  0  0  0  0  0  0
   -7.7170    3.1760    0.0670 H   0  0  0  0  0  0  0  0  0  0  0  0
   -5.4430    2.4720    1.7880 H   0  0  0  0  0  0  0  0  0  0  0  0
   -5.9960    0.9540    2.5370 H   0  0  0  0  0  0  0  0  0  0  0  0
   -2.2720    0.7330   -1.4110 H   0  0  0  0  0  0  0  0  0  0  0  0
   -1.4310    1.6170   -0.1670 H   0  0  0  0  0  0  0  0  0  0  0  0
   -2.4620    0.3520    2.4250 H   0  0  0  0  0  0  0  0  0  0  0  0
   -1.2850   -0.9540    2.4760 H   0  0  0  0  0  0  0  0  0  0  0  0
   -0.7990    0.6630    1.9800 H   0  0  0  0  0  0  0  0  0  0  0  0
  2  1  1  6
  2  3  1  0
  2 31  1  0
  2 56  1  0
  3  6  1  0
  3  5  1  0
  3  4  1  1
  5 60  1  0
  5 59  1  0
  5 58  1  0
  6 62  1  0
  6 61  1  0
  6  7  1  0
  7  8  1  0
  7 63  1  0
  7 64  1  0
  8  9  1  6
  8 10  1  0
  8 11  1  0
 10 65  1  0
 11 13  1  0
 11 14  1  6
 11 12  1  0
 12 67  1  0
 12 66  1  0
 12 68  1  0
 13 69  1  0
 13 71  1  0
 13 70  1  0
 14 15  1  0
 15 28  1  0
 15 16  1  1
 15 17  1  0
 17 18  1  0
 18 22  1  0
 18 19  1  1
 18 20  1  0
 20 73  1  0
 20 72  1  0
 20 21  1  0
 21 74  1  0
 22 25  1  0
 22 23  1  6
 22 24  1  0
 24 75  1  0
 25 27  1  0
 25 28  1  0
 25 26  1  1
 27 76  1  0
 28 30  1  0
 28 29  1  6
 30 77  1  0
 31 78  1  0
 31 32  1  0
 31 79  1  0
 32 33  1  0
 32 80  1  0
 32 81  1  0
 33 34  1  6
 33 56  1  0
 33 35  1  0
 34 84  1  0
 34 83  1  0
 34 82  1  0
 35 52  1  0
 35 37  1  0
 35 36  1  1
 37 85  1  0
 37 38  1  0
 37 86  1  0
 38 39  1  0
 38 87  1  0
 38 88  1  0
 39 40  1  6
 39 50  1  0
 39 41  1  0
 41 44  1  0
 41 42  1  6
 41 43  1  0
 42 91  1  0
 42 90  1  0
 42 89  1  0
 43 93  1  0
 43 92  1  0
 43 94  1  0
 44 46  1  0
 44 47  1  0
 44 45  1  1
 46 95  1  0
 47 96  1  0
 47 48  1  0
 47 97  1  0
 48 49  2  0
 50 48  1  6
 50 52  1  0
 50 51  1  0
 51 52  1  0
 51 98  1  0
 51 99  1  0
 52 53  1  6
 53 55  1  0
 53 54  2  0
 55100  1  0
 55101  1  0
 55 56  1  0
 56 57  1  1
 57104  1  0
 57102  1  0
 57103  1  0
M  END
>  <id>  (444) 
547

>  <scaffolds>  (444) 
['C1CCOCC1', 'C1CCC(C2CCCC2)CC1', 'C1CCCCC1', 'C1CC2CCC34CC35CCCCC5CCC4C2C1', 'C1CCC2C(C1)CCC1C3CCCC3CCC21', 'O=C1CCCC2CCC3C4CCC(CCCCCOC5CCCCO5)C4CC(=O)C34CC124', 'O=C1CCCC2CCC3C4CCC(CCCCCOC5CCCCO5)C4CCC34CC124', 'C1CCC2CCCCC2C1']

>  <name>  (444) 
Sutherlandioside C

>  <formula>  (444) 
C36H58O10

>  <SMILES>  (444) 
[H][C@]5([C@H](C)CC[C@H](O)C(C)(C)O[C@@H]1O[C@H](CO)[C@@H](O)[C@H](O)[C@H]1O)CC[C@@]6(C)[C@]3([H])CC[C@@]2([H])C(C)(C)[C@H](O)CC(=O)[C@@]24C[C@@]34C(=O)C[C@]56C

>  <ChEMBL_id>  (444) 


>  <ZINC_id>  (444) 


>  <PubChem_id>  (444) 


>  <DrugBank_id>  (444) 


>  <CAS_no>  (444) 
1055329-48-0

>  <references>  (444) 
[{'journal': {'name': 'Journal of Natural Products', 'id': 5}, 'title': 'Cycloartane Glycosides from Sutherlandia frutescens', 'year': 2008, 'start_page': 1749, 'volume': 71, 'issue': 10, 'doi': '10.1021/np800328r', 'isbn': '', 'despositor': {'code': 'NFA', 'first_name': 'Ngonidzashe', 'last_name': 'Faya', 'id': 21}, 'refauthors_set': [{'author': {'first_name': 'Xiang', 'initials': 'x', 'last_name': 'Fu', 'id': 731}, 'first_author': True, 'id': 1062}, {'author': {'first_name': 'Troy', 'initials': 'TJ', 'last_name': 'Smillie', 'id': 732}, 'first_author': None, 'id': 1147}, {'author': {'first_name': 'Paulo', 'initials': 'P', 'last_name': 'Carvalho', 'id': 733}, 'first_author': None, 'id': 1148}, {'author': {'first_name': 'Quinton', 'initials': 'Q', 'last_name': 'Johnson', 'id': 735}, 'first_author': None, 'id': 1149}, {'author': {'first_name': 'William', 'initials': 'W', 'last_name': 'Folk', 'id': 736}, 'first_author': None, 'id': 1150}, {'author': {'first_name': 'Mitchell', 'initials': 'MA', 'last_name': 'Avery', 'id': 737}, 'first_author': None, 'id': 1151}, {'author': {'first_name': 'Ikhlas', 'initials': 'IA', 'last_name': 'Khan', 'id': 738}, 'first_author': None, 'id': 1152}, {'author': {'first_name': 'Wilfred', 'initials': 'W', 'last_name': 'Mabusela', 'id': 792}, 'first_author': None, 'id': 1153}], 'id': 353}]

>  <classifications>  (444) 
[{'classification': 'Cycloartane', 'id': 766}, {'classification': 'Glycoside', 'id': 781}, {'classification': 'Steroids and steroid derivatives (Classyfire)', 'id': 942}]

>  <molecular_mass>  (444) 
650.84

$$$$
SANC00548_minRM1.pdb
     RDKit          3D

103108  0  0  1  0  0  0  0  0999 V2000
   -1.2170   -0.7280   -1.2660 H   0  0  0  0  0  0  0  0  0  0  0  0
   -1.1110   -1.0520   -0.1970 C   0  0  1  0  0  0  0  0  0  0  0  0
    0.3470   -0.8170    0.2120 C   0  0  2  0  0  0  0  0  0  0  0  0
    0.5130   -1.1480    1.2680 H   0  0  0  0  0  0  0  0  0  0  0  0
    0.7080    0.6600    0.0890 C   0  0  0  0  0  0  0  0  0  0  0  0
    1.2830   -1.6250   -0.7030 C   0  0  0  0  0  0  0  0  0  0  0  0
    2.7310   -1.5300   -0.2240 C   0  0  0  0  0  0  0  0  0  0  0  0
    3.6660   -2.2480   -1.2070 C   0  0  2  0  0  0  0  0  0  0  0  0
    3.4890   -1.8850   -2.2550 H   0  0  0  0  0  0  0  0  0  0  0  0
    3.3750   -3.6050   -1.2980 O   0  0  0  0  0  0  0  0  0  0  0  0
    5.1780   -2.0430   -0.8510 C   0  0  1  0  0  0  0  0  0  0  0  0
    5.4990   -2.4630    0.5780 C   0  0  0  0  0  0  0  0  0  0  0  0
    6.0430   -2.8240   -1.8440 C   0  0  0  0  0  0  0  0  0  0  0  0
    5.3510   -0.6570   -1.0540 O   0  0  0  0  0  0  0  0  0  0  0  0
    6.5920   -0.1110   -0.7260 C   0  0  2  0  0  0  0  0  0  0  0  0
    7.4710   -0.7910   -0.9110 H   0  0  0  0  0  0  0  0  0  0  0  0
    6.4560    0.2330    0.6330 O   0  0  0  0  0  0  0  0  0  0  0  0
    7.5950    0.8740    1.1490 C   0  0  2  0  0  0  0  0  0  0  0  0
    8.5220    0.2490    1.0270 H   0  0  0  0  0  0  0  0  0  0  0  0
    7.2870    1.0790    2.6480 C   0  0  0  0  0  0  0  0  0  0  0  0
    7.3520   -0.1960    3.2200 O   0  0  0  0  0  0  0  0  0  0  0  0
    7.7660    2.2420    0.4390 C   0  0  1  0  0  0  0  0  0  0  0  0
    6.8770    2.9020    0.6380 H   0  0  0  0  0  0  0  0  0  0  0  0
    8.9420    2.7850    0.9540 O   0  0  0  0  0  0  0  0  0  0  0  0
    7.9180    1.9930   -1.0850 C   0  0  2  0  0  0  0  0  0  0  0  0
    8.8700    1.4320   -1.2980 H   0  0  0  0  0  0  0  0  0  0  0  0
    7.9340    3.2620   -1.6620 O   0  0  0  0  0  0  0  0  0  0  0  0
    6.6890    1.1910   -1.5750 C   0  0  1  0  0  0  0  0  0  0  0  0
    5.7540    1.8060   -1.4700 H   0  0  0  0  0  0  0  0  0  0  0  0
    6.9610    0.8690   -2.9030 O   0  0  0  0  0  0  0  0  0  0  0  0
   -1.5280   -2.5350   -0.0770 C   0  0  0  0  0  0  0  0  0  0  0  0
   -3.0060   -2.5630    0.3480 C   0  0  0  0  0  0  0  0  0  0  0  0
   -3.4670   -1.1060    0.2150 C   0  0  2  0  0  0  0  0  0  0  0  0
   -3.8270   -0.8520   -1.2530 C   0  0  0  0  0  0  0  0  0  0  0  0
   -2.1930   -0.3340    0.6380 C   0  0  1  0  0  0  0  0  0  0  0  0
   -1.8930   -0.5070    2.1280 C   0  0  0  0  0  0  0  0  0  0  0  0
   -2.4310    1.1360    0.3300 C   0  0  0  0  0  0  0  0  0  0  0  0
   -3.6600    1.6250    1.0850 C   0  0  0  0  0  0  0  0  0  0  0  0
   -4.9160    0.7750    0.9730 C   0  0  1  0  0  0  0  0  0  0  0  0
   -6.0720    1.4470    1.6960 C   0  0  0  0  0  0  0  0  0  0  0  0
   -6.1490    1.2420    0.1990 C   0  0  1  0  0  0  0  0  0  0  0  0
   -6.0620    2.3720   -0.7690 C   0  0  0  0  0  0  0  0  0  0  0  0
   -5.0130    2.8020   -1.2150 O   0  0  0  0  0  0  0  0  0  0  0  0
   -7.3490    2.9050   -1.2430 C   0  0  0  0  0  0  0  0  0  0  0  0
   -8.4640    2.1860   -1.1670 C   0  0  0  0  0  0  0  0  0  0  0  0
   -8.5460    0.8280   -0.5360 C   0  0  1  0  0  0  0  0  0  0  0  0
   -9.3540    1.0100    0.7510 C   0  0  0  0  0  0  0  0  0  0  0  0
   -9.3290   -0.0830   -1.4890 C   0  0  0  0  0  0  0  0  0  0  0  0
   -7.1460    0.2150   -0.2970 C   0  0  2  0  0  0  0  0  0  0  0  0
   -6.7650   -0.1640   -1.2840 H   0  0  0  0  0  0  0  0  0  0  0  0
   -7.2060   -0.9470    0.6910 C   0  0  0  0  0  0  0  0  0  0  0  0
   -5.8420   -1.6430    0.7400 C   0  0  2  0  0  0  0  0  0  0  0  0
   -5.6790   -2.1280   -0.2680 H   0  0  0  0  0  0  0  0  0  0  0  0
   -5.8460   -2.6160    1.7520 O   0  0  0  0  0  0  0  0  0  0  0  0
   -4.6590   -0.7140    1.1010 C   0  0  1  0  0  0  0  0  0  0  0  0
   -4.3850   -0.8740    2.1840 H   0  0  0  0  0  0  0  0  0  0  0  0
    0.1290    1.2990    0.7740 H   0  0  0  0  0  0  0  0  0  0  0  0
    1.7710    0.8430    0.3160 H   0  0  0  0  0  0  0  0  0  0  0  0
    0.5340    1.0520   -0.9240 H   0  0  0  0  0  0  0  0  0  0  0  0
    0.9840   -2.6920   -0.7510 H   0  0  0  0  0  0  0  0  0  0  0  0
    1.1930   -1.2670   -1.7510 H   0  0  0  0  0  0  0  0  0  0  0  0
    3.0370   -0.4660   -0.1150 H   0  0  0  0  0  0  0  0  0  0  0  0
    2.8200   -1.9530    0.7980 H   0  0  0  0  0  0  0  0  0  0  0  0
    3.3540   -3.9810   -0.4120 H   0  0  0  0  0  0  0  0  0  0  0  0
    5.1670   -3.4880    0.7920 H   0  0  0  0  0  0  0  0  0  0  0  0
    6.5790   -2.4460    0.7900 H   0  0  0  0  0  0  0  0  0  0  0  0
    5.0390   -1.8030    1.3280 H   0  0  0  0  0  0  0  0  0  0  0  0
    5.8750   -2.5000   -2.8810 H   0  0  0  0  0  0  0  0  0  0  0  0
    7.1210   -2.7210   -1.6510 H   0  0  0  0  0  0  0  0  0  0  0  0
    5.8290   -3.9020   -1.8090 H   0  0  0  0  0  0  0  0  0  0  0  0
    8.0520    1.7450    3.1110 H   0  0  0  0  0  0  0  0  0  0  0  0
    6.3040    1.5820    2.7900 H   0  0  0  0  0  0  0  0  0  0  0  0
    6.7640   -0.1970    3.9810 H   0  0  0  0  0  0  0  0  0  0  0  0
    9.0650    3.6510    0.5500 H   0  0  0  0  0  0  0  0  0  0  0  0
    8.0490    3.1510   -2.6110 H   0  0  0  0  0  0  0  0  0  0  0  0
    6.1800    0.4310   -3.2590 H   0  0  0  0  0  0  0  0  0  0  0  0
   -1.3800   -3.0700   -1.0370 H   0  0  0  0  0  0  0  0  0  0  0  0
   -0.9020   -3.0920    0.6480 H   0  0  0  0  0  0  0  0  0  0  0  0
   -3.5940   -3.2730   -0.2660 H   0  0  0  0  0  0  0  0  0  0  0  0
   -3.1390   -2.9410    1.3810 H   0  0  0  0  0  0  0  0  0  0  0  0
   -4.6150   -1.5420   -1.6020 H   0  0  0  0  0  0  0  0  0  0  0  0
   -4.2100    0.1610   -1.4410 H   0  0  0  0  0  0  0  0  0  0  0  0
   -2.9730   -0.9950   -1.9330 H   0  0  0  0  0  0  0  0  0  0  0  0
   -1.4910   -1.4970    2.3880 H   0  0  0  0  0  0  0  0  0  0  0  0
   -1.1600    0.2260    2.4950 H   0  0  0  0  0  0  0  0  0  0  0  0
   -2.7870   -0.3950    2.7650 H   0  0  0  0  0  0  0  0  0  0  0  0
   -1.5480    1.7530    0.6180 H   0  0  0  0  0  0  0  0  0  0  0  0
   -2.5300    1.3280   -0.7590 H   0  0  0  0  0  0  0  0  0  0  0  0
   -3.4220    1.6960    2.1730 H   0  0  0  0  0  0  0  0  0  0  0  0
   -3.8510    2.6850    0.8150 H   0  0  0  0  0  0  0  0  0  0  0  0
   -6.7220    0.8710    2.3670 H   0  0  0  0  0  0  0  0  0  0  0  0
   -5.9530    2.4530    2.1110 H   0  0  0  0  0  0  0  0  0  0  0  0
   -7.3270    3.9030   -1.6930 H   0  0  0  0  0  0  0  0  0  0  0  0
   -9.4080    2.5850   -1.5590 H   0  0  0  0  0  0  0  0  0  0  0  0
  -10.2950    1.5540    0.5700 H   0  0  0  0  0  0  0  0  0  0  0  0
   -9.6500    0.0560    1.2100 H   0  0  0  0  0  0  0  0  0  0  0  0
   -8.8050    1.5880    1.5060 H   0  0  0  0  0  0  0  0  0  0  0  0
   -8.8640   -0.1430   -2.4830 H   0  0  0  0  0  0  0  0  0  0  0  0
   -9.4120   -1.1120   -1.1130 H   0  0  0  0  0  0  0  0  0  0  0  0
  -10.3590    0.2690   -1.6490 H   0  0  0  0  0  0  0  0  0  0  0  0
   -7.4940   -0.6150    1.7140 H   0  0  0  0  0  0  0  0  0  0  0  0
   -7.9940   -1.6740    0.4030 H   0  0  0  0  0  0  0  0  0  0  0  0
   -6.4750   -3.2980    1.5020 H   0  0  0  0  0  0  0  0  0  0  0  0
  2  1  1  6
  2 31  1  0
  2  3  1  0
  2 35  1  0
  3  6  1  0
  3  5  1  0
  3  4  1  1
  5 59  1  0
  5 58  1  0
  5 57  1  0
  6 61  1  0
  6 60  1  0
  6  7  1  0
  7  8  1  0
  7 62  1  0
  7 63  1  0
  8  9  1  6
  8 10  1  0
  8 11  1  0
 10 64  1  0
 11 13  1  0
 11 14  1  1
 11 12  1  0
 12 66  1  0
 12 65  1  0
 12 67  1  0
 13 68  1  0
 13 70  1  0
 13 69  1  0
 14 15  1  0
 15 28  1  0
 15 16  1  1
 15 17  1  0
 17 18  1  0
 18 22  1  0
 18 19  1  1
 18 20  1  0
 20 72  1  0
 20 71  1  0
 20 21  1  0
 21 73  1  0
 22 25  1  0
 22 23  1  6
 22 24  1  0
 24 74  1  0
 25 27  1  0
 25 28  1  0
 25 26  1  1
 27 75  1  0
 28 30  1  0
 28 29  1  6
 30 76  1  0
 31 77  1  0
 31 32  1  0
 31 78  1  0
 32 79  1  0
 32 33  1  0
 32 80  1  0
 33 34  1  6
 33 35  1  0
 33 55  1  0
 34 83  1  0
 34 81  1  0
 34 82  1  0
 35 37  1  0
 35 36  1  1
 36 84  1  0
 36 85  1  0
 36 86  1  0
 37 88  1  0
 37 87  1  0
 37 38  1  0
 38 90  1  0
 38 89  1  0
 39 38  1  6
 39 41  1  0
 39 55  1  0
 39 40  1  0
 40 41  1  0
 40 92  1  0
 40 91  1  0
 41 42  1  6
 41 49  1  0
 42 44  1  0
 42 43  2  0
 44 93  1  0
 44 45  2  0
 45 94  1  0
 45 46  1  0
 46 48  1  6
 46 49  1  0
 46 47  1  0
 47 95  1  0
 47 96  1  0
 47 97  1  0
 48 98  1  0
 48100  1  0
 48 99  1  0
 49 50  1  6
 49 51  1  0
 51102  1  0
 51 52  1  0
 51101  1  0
 52 53  1  6
 52 55  1  0
 52 54  1  0
 54103  1  0
 55 56  1  1
M  END
>  <id>  (445) 
548

>  <scaffolds>  (445) 
['C1=CCCCC1', 'C1=CCC2CCCCC2C1', 'C1CCOCC1', 'C1CCC(C2CCCC2)CC1', 'C1CCCCC1', 'O=C1C=CCCC1', 'O=C1C=CCC2CCC3C4CCC(CCCCCOC5CCCCO5)C4CCC34CC124', 'C1CCC2CCCCC2C1']

>  <name>  (445) 
Sutherlandioside D

>  <formula>  (445) 
C36H58O9

>  <SMILES>  (445) 
[H][C@]2([C@H](C)CC[C@H](O)C(C)(C)O[C@@H]1O[C@H](CO)[C@@H](O)[C@H](O)[C@H]1O)CC[C@]5(C)[C@]2(C)CC[C@@]36C[C@@]34C(=O)C=CC(C)(C)[C@]4([H])C[C@H](O)[C@@]56[H]

>  <ChEMBL_id>  (445) 


>  <ZINC_id>  (445) 


>  <PubChem_id>  (445) 


>  <DrugBank_id>  (445) 


>  <CAS_no>  (445) 
1055329-49-1

>  <references>  (445) 
[{'journal': {'name': 'Journal of Natural Products', 'id': 5}, 'title': 'Cycloartane Glycosides from Sutherlandia frutescens', 'year': 2008, 'start_page': 1749, 'volume': 71, 'issue': 10, 'doi': '10.1021/np800328r', 'isbn': '', 'despositor': {'code': 'NFA', 'first_name': 'Ngonidzashe', 'last_name': 'Faya', 'id': 21}, 'refauthors_set': [{'author': {'first_name': 'Xiang', 'initials': 'x', 'last_name': 'Fu', 'id': 731}, 'first_author': True, 'id': 1062}, {'author': {'first_name': 'Troy', 'initials': 'TJ', 'last_name': 'Smillie', 'id': 732}, 'first_author': None, 'id': 1147}, {'author': {'first_name': 'Paulo', 'initials': 'P', 'last_name': 'Carvalho', 'id': 733}, 'first_author': None, 'id': 1148}, {'author': {'first_name': 'Quinton', 'initials': 'Q', 'last_name': 'Johnson', 'id': 735}, 'first_author': None, 'id': 1149}, {'author': {'first_name': 'William', 'initials': 'W', 'last_name': 'Folk', 'id': 736}, 'first_author': None, 'id': 1150}, {'author': {'first_name': 'Mitchell', 'initials': 'MA', 'last_name': 'Avery', 'id': 737}, 'first_author': None, 'id': 1151}, {'author': {'first_name': 'Ikhlas', 'initials': 'IA', 'last_name': 'Khan', 'id': 738}, 'first_author': None, 'id': 1152}, {'author': {'first_name': 'Wilfred', 'initials': 'W', 'last_name': 'Mabusela', 'id': 792}, 'first_author': None, 'id': 1153}], 'id': 353}]

>  <classifications>  (445) 
[{'classification': 'Cycloartane', 'id': 766}, {'classification': 'Glycoside', 'id': 781}, {'classification': 'Phenol lipids (Classyfire)', 'id': 951}]

>  <molecular_mass>  (445) 
634.84

$$$$
SANC00550_minRM1.pdb
     RDKit          3D

 61 65  0  0  1  0  0  0  0  0999 V2000
    3.5870   -3.0490    0.1910 C   0  0  0  0  0  0  0  0  0  0  0  0
    2.5580    2.8860    0.3600 C   0  0  0  0  0  0  0  0  0  0  0  0
    4.7110    1.7030    0.6660 C   0  0  0  0  0  0  0  0  0  0  0  0
    1.2500   -2.0610   -1.5840 C   0  0  0  0  0  0  0  0  0  0  0  0
    0.1460   -3.3280    1.4280 O   0  0  0  0  0  0  0  0  0  0  0  0
   -0.9310    2.1820   -2.3840 O   0  0  0  0  0  0  0  0  0  0  0  0
   -1.8770   -1.2540    2.0110 O   0  0  0  0  0  0  0  0  0  0  0  0
   -2.9960    4.2060    0.7930 C   0  0  0  0  0  0  0  0  0  0  0  0
   -5.4310   -2.0370   -0.2910 C   0  0  0  0  0  0  0  0  0  0  0  0
   -2.6220    3.7050   -0.4230 C   0  0  0  0  0  0  0  0  0  0  0  0
   -4.5580   -1.6980    0.7120 C   0  0  0  0  0  0  0  0  0  0  0  0
   -1.3450    2.8060    1.2050 C   0  0  0  0  0  0  0  0  0  0  0  0
   -3.4240   -2.1580   -1.1920 C   0  0  0  0  0  0  0  0  0  0  0  0
    2.1270   -2.0890    1.9730 C   0  0  0  0  0  0  0  0  0  0  0  0
    1.9920    1.2260   -2.0930 C   0  0  0  0  0  0  0  0  0  0  0  0
    3.6490   -0.3600   -1.1960 C   0  0  0  0  0  0  0  0  0  0  0  0
    0.0740    1.2010   -0.6270 O   0  0  0  0  0  0  0  0  0  0  0  0
   -0.9570   -1.3780   -0.0340 O   0  0  0  0  0  0  0  0  0  0  0  0
    2.6320    0.5200    0.7630 O   0  0  0  0  0  0  0  0  0  0  0  0
   -2.2230    3.6640    1.7900 O   0  0  0  0  0  0  0  0  0  0  0  0
   -4.7510   -2.3230   -1.4540 O   0  0  0  0  0  0  0  0  0  0  0  0
    0.7890   -2.3080    1.3280 C   0  0  0  0  0  0  0  0  0  0  0  0
   -0.8150    2.0710   -1.1770 C   0  0  0  0  0  0  0  0  0  0  0  0
   -2.0200   -1.4560    0.8160 C   0  0  0  0  0  0  0  0  0  0  0  0
   -1.5390    2.7990   -0.1540 C   0  0  0  0  0  0  0  0  0  0  0  0
   -3.2480   -1.7650    0.1170 C   0  0  0  0  0  0  0  0  0  0  0  0
    3.1760   -1.7700    0.9080 C   0  0  2  0  0  0  0  0  0  0  0  0
    3.3370    1.1250   -1.3840 C   0  0  2  0  0  0  0  0  0  0  0  0
    0.8460    0.3850   -1.4860 C   0  0  2  0  0  0  0  0  0  0  0  0
    0.3040   -1.1070    0.5350 C   0  0  1  0  0  0  0  0  0  0  0  0
    3.2910    1.5790    0.0920 C   0  0  1  0  0  0  0  0  0  0  0  0
    1.2710   -0.8560   -0.6400 C   0  0  1  0  0  0  0  0  0  0  0  0
    2.6830   -0.6550   -0.0340 C   0  0  2  0  0  0  0  0  0  0  0  0
    2.7290   -3.6250   -0.1910 H   0  0  0  0  0  0  0  0  0  0  0  0
    4.2590   -2.8780   -0.6600 H   0  0  0  0  0  0  0  0  0  0  0  0
    4.1240   -3.7290    0.8700 H   0  0  0  0  0  0  0  0  0  0  0  0
    2.9710    3.6940   -0.2600 H   0  0  0  0  0  0  0  0  0  0  0  0
    1.4800    2.8530    0.1690 H   0  0  0  0  0  0  0  0  0  0  0  0
    2.6510    3.1980    1.4110 H   0  0  0  0  0  0  0  0  0  0  0  0
    4.6960    1.8910    1.7490 H   0  0  0  0  0  0  0  0  0  0  0  0
    5.3180    0.7980    0.5290 H   0  0  0  0  0  0  0  0  0  0  0  0
    5.2620    2.5310    0.2000 H   0  0  0  0  0  0  0  0  0  0  0  0
    2.0170   -1.9780   -2.3710 H   0  0  0  0  0  0  0  0  0  0  0  0
    1.4220   -3.0190   -1.0690 H   0  0  0  0  0  0  0  0  0  0  0  0
    0.2840   -2.1820   -2.0990 H   0  0  0  0  0  0  0  0  0  0  0  0
   -3.7550    4.9020    1.1290 H   0  0  0  0  0  0  0  0  0  0  0  0
   -6.5100   -2.1310   -0.3680 H   0  0  0  0  0  0  0  0  0  0  0  0
   -3.0410    3.9230   -1.3910 H   0  0  0  0  0  0  0  0  0  0  0  0
   -4.7720   -1.4320    1.7420 H   0  0  0  0  0  0  0  0  0  0  0  0
   -0.6740    2.2590    1.8690 H   0  0  0  0  0  0  0  0  0  0  0  0
   -2.7410   -2.3650   -2.0040 H   0  0  0  0  0  0  0  0  0  0  0  0
    2.0400   -1.2570    2.7050 H   0  0  0  0  0  0  0  0  0  0  0  0
    2.4330   -2.9650    2.5850 H   0  0  0  0  0  0  0  0  0  0  0  0
    1.6920    2.2920   -2.1870 H   0  0  0  0  0  0  0  0  0  0  0  0
    2.1320    0.9060   -3.1510 H   0  0  0  0  0  0  0  0  0  0  0  0
    3.4700   -0.9760   -2.0990 H   0  0  0  0  0  0  0  0  0  0  0  0
    4.7110   -0.5470   -0.9430 H   0  0  0  0  0  0  0  0  0  0  0  0
    4.0910   -1.3750    1.4310 H   0  0  0  0  0  0  0  0  0  0  0  0
    4.1170    1.6740   -1.9580 H   0  0  0  0  0  0  0  0  0  0  0  0
    0.1960    0.0240   -2.3340 H   0  0  0  0  0  0  0  0  0  0  0  0
    0.2590   -0.2260    1.2370 H   0  0  0  0  0  0  0  0  0  0  0  0
  1 35  1  0
  1 34  1  0
  1 36  1  0
  1 27  1  0
  2 37  1  0
 31  2  1  6
  2 38  1  0
  2 39  1  0
  3 31  1  0
  3 42  1  0
  3 41  1  0
  3 40  1  0
  4 43  1  0
  4 45  1  0
  4 44  1  0
  5 22  2  0
  6 23  2  0
  7 24  2  0
  8 10  2  0
  8 46  1  0
  8 20  1  0
  9 21  1  0
  9 47  1  0
  9 11  2  0
 10 48  1  0
 10 25  1  0
 11 26  1  0
 11 49  1  0
 12 25  2  0
 12 20  1  0
 12 50  1  0
 13 51  1  0
 13 21  1  0
 13 26  2  0
 14 27  1  0
 14 22  1  0
 14 53  1  0
 14 52  1  0
 15 55  1  0
 15 54  1  0
 15 29  1  0
 15 28  1  0
 16 56  1  0
 16 28  1  0
 16 57  1  0
 16 33  1  0
 17 29  1  0
 17 23  1  0
 18 30  1  0
 18 24  1  0
 19 31  1  0
 22 30  1  0
 23 25  1  0
 24 26  1  0
 27 33  1  0
 27 58  1  1
 28 59  1  6
 28 31  1  0
 29 60  1  6
 29 32  1  0
 30 32  1  0
 30 61  1  1
 32  4  1  6
 32 33  1  0
 33 19  1  1
M  END
>  <id>  (446) 
550

>  <scaffolds>  (446) 
['c1ccoc1', 'C1CCCCC1', 'O=C(OC1CCCC23CC(CO2)CC(OC(=O)c2ccoc2)C13)c1ccoc1', 'O=C(OC1CC2COC3(CCC(=O)C(OC(=O)c4ccoc4)C13)C2)c1ccoc1', 'C1CCC2CCCCC2C1']

>  <name>  (446) 
1[alpha],9[beta]-Difuranoyloxy-2-oxodihydro-[beta]-agarofuran

>  <formula>  (446) 
C25H28O8

>  <SMILES>  (446) 
C[C@@H]3CC(=O)[C@H](OC(=O)c1ccoc1)[C@@]4(C)[C@@H](OC(=O)c2ccoc2)C[C@H]5C[C@]34OC5(C)C

>  <ChEMBL_id>  (446) 


>  <ZINC_id>  (446) 


>  <PubChem_id>  (446) 


>  <DrugBank_id>  (446) 


>  <CAS_no>  (446) 
1231761-69-5

>  <references>  (446) 
[{'journal': {'name': 'Journal of Natural Products', 'id': 5}, 'title': 'Dihydro-[beta]-agarofuran Sesquiterpenes and Pentacyclic Triterpenoids from the Root Bark of Osyris lanceolata', 'year': 2010, 'start_page': 1151, 'volume': 73, 'issue': 6, 'doi': '10.1021/np900597w', 'isbn': '', 'despositor': {'code': 'NFA', 'first_name': 'Ngonidzashe', 'last_name': 'Faya', 'id': 21}, 'refauthors_set': [{'author': {'first_name': 'Elizabeth', 'initials': 'EMO', 'last_name': 'Yeboah', 'id': 739}, 'first_author': True, 'id': 1063}, {'author': {'first_name': 'Runner', 'initials': 'RRT', 'last_name': 'Majinda', 'id': 740}, 'first_author': None, 'id': 1154}, {'author': {'first_name': 'Anders Kadziola', 'initials': 'A', 'last_name': 'Kadziola', 'id': 741}, 'first_author': None, 'id': 1155}, {'author': {'first_name': 'Alfred', 'initials': 'A', 'last_name': 'Muller', 'id': 742}, 'first_author': None, 'id': 1156}], 'id': 354}]

>  <classifications>  (446) 
[{'classification': 'Sesquiterpene', 'id': 828}, {'classification': 'Terpenoid', 'id': 839}, {'classification': 'Phenol lipids (Classyfire)', 'id': 951}]

>  <molecular_mass>  (446) 
456.48

$$$$
SANC00551_minRM1.pdb
     RDKit          3D

 59 63  0  0  1  0  0  0  0  0999 V2000
   -4.7030    1.8050    0.9640 C   0  0  0  0  0  0  0  0  0  0  0  0
   -2.2900   -2.9060    0.6100 C   0  0  0  0  0  0  0  0  0  0  0  0
   -4.5940   -2.0200    0.7480 C   0  0  0  0  0  0  0  0  0  0  0  0
   -1.4710    1.9260   -1.7210 C   0  0  0  0  0  0  0  0  0  0  0  0
   -0.1830    3.4110    1.3060 O   0  0  0  0  0  0  0  0  0  0  0  0
    1.0760   -2.1670   -2.2830 O   0  0  0  0  0  0  0  0  0  0  0  0
    1.7440    1.2550    1.9450 O   0  0  0  0  0  0  0  0  0  0  0  0
   -2.3940    2.5800    1.2520 C   0  0  0  0  0  0  0  0  0  0  0  0
    3.4920   -3.6520    0.9420 C   0  0  0  0  0  0  0  0  0  0  0  0
    5.3080    2.1280   -0.2930 C   0  0  0  0  0  0  0  0  0  0  0  0
    2.9900   -3.3430   -0.2950 C   0  0  0  0  0  0  0  0  0  0  0  0
    4.4180    1.8300    0.7040 C   0  0  0  0  0  0  0  0  0  0  0  0
    1.7280   -2.3840    1.3190 C   0  0  0  0  0  0  0  0  0  0  0  0
    3.3280    2.0670   -1.2620 C   0  0  0  0  0  0  0  0  0  0  0  0
   -1.8790   -1.4680   -1.9850 C   0  0  0  0  0  0  0  0  0  0  0  0
   -3.6790    0.0560   -1.2460 C   0  0  0  0  0  0  0  0  0  0  0  0
    0.0540   -1.1200   -0.5740 O   0  0  0  0  0  0  0  0  0  0  0  0
    0.8360    1.4000   -0.1040 O   0  0  0  0  0  0  0  0  0  0  0  0
   -2.6930   -0.5570    0.8180 O   0  0  0  0  0  0  0  0  0  0  0  0
    2.7300   -3.0740    1.9330 O   0  0  0  0  0  0  0  0  0  0  0  0
    4.6530    2.2760   -1.4950 O   0  0  0  0  0  0  0  0  0  0  0  0
   -3.2430    1.6970    0.7170 C   0  0  0  0  0  0  0  0  0  0  0  0
   -0.9420    2.5000    1.0370 C   0  0  0  0  0  0  0  0  0  0  0  0
    0.9990   -1.9560   -1.0840 C   0  0  0  0  0  0  0  0  0  0  0  0
    1.8910    1.4760    0.7580 C   0  0  0  0  0  0  0  0  0  0  0  0
    1.8370   -2.5190   -0.0480 C   0  0  0  0  0  0  0  0  0  0  0  0
    3.1270    1.7850    0.0690 C   0  0  0  0  0  0  0  0  0  0  0  0
   -3.2370   -1.4100   -1.2990 C   0  0  2  0  0  0  0  0  0  0  0  0
   -0.8230   -0.4660   -1.4710 C   0  0  2  0  0  0  0  0  0  0  0  0
   -0.4420    1.1920    0.4520 C   0  0  1  0  0  0  0  0  0  0  0  0
   -3.1840   -1.7390    0.2100 C   0  0  1  0  0  0  0  0  0  0  0  0
   -1.3650    0.7760   -0.7110 C   0  0  1  0  0  0  0  0  0  0  0  0
   -2.7670    0.5220   -0.0960 C   0  0  2  0  0  0  0  0  0  0  0  0
   -4.9580    2.5360    1.7530 H   0  0  0  0  0  0  0  0  0  0  0  0
   -5.2460    2.1230    0.0600 H   0  0  0  0  0  0  0  0  0  0  0  0
   -5.1300    0.8450    1.2970 H   0  0  0  0  0  0  0  0  0  0  0  0
   -2.4900   -3.7870   -0.0160 H   0  0  0  0  0  0  0  0  0  0  0  0
   -1.2150   -2.6950    0.5470 H   0  0  0  0  0  0  0  0  0  0  0  0
   -2.4590   -3.2070    1.6560 H   0  0  0  0  0  0  0  0  0  0  0  0
   -4.6300   -1.9520    1.8470 H   0  0  0  0  0  0  0  0  0  0  0  0
   -5.3600   -1.3280    0.3720 H   0  0  0  0  0  0  0  0  0  0  0  0
   -4.9310   -3.0300    0.4750 H   0  0  0  0  0  0  0  0  0  0  0  0
   -2.0610    1.6370   -2.6080 H   0  0  0  0  0  0  0  0  0  0  0  0
   -1.9580    2.8230   -1.3130 H   0  0  0  0  0  0  0  0  0  0  0  0
   -0.4890    2.2550   -2.0900 H   0  0  0  0  0  0  0  0  0  0  0  0
   -2.7330    3.4160    1.8760 H   0  0  0  0  0  0  0  0  0  0  0  0
    4.3380   -4.2300    1.2920 H   0  0  0  0  0  0  0  0  0  0  0  0
    6.3800    2.2600   -0.3340 H   0  0  0  0  0  0  0  0  0  0  0  0
    3.3590   -3.6310   -1.2690 H   0  0  0  0  0  0  0  0  0  0  0  0
    4.6080    1.6650    1.7580 H   0  0  0  0  0  0  0  0  0  0  0  0
    1.0370   -1.8520    1.9720 H   0  0  0  0  0  0  0  0  0  0  0  0
    2.6660    2.1460   -2.1180 H   0  0  0  0  0  0  0  0  0  0  0  0
   -1.4870   -2.5070   -1.9560 H   0  0  0  0  0  0  0  0  0  0  0  0
   -2.0300   -1.2820   -3.0720 H   0  0  0  0  0  0  0  0  0  0  0  0
   -3.5250    0.6070   -2.1950 H   0  0  0  0  0  0  0  0  0  0  0  0
   -4.7610    0.1660   -1.0490 H   0  0  0  0  0  0  0  0  0  0  0  0
   -3.9600   -2.0680   -1.8320 H   0  0  0  0  0  0  0  0  0  0  0  0
   -0.2300   -0.1000   -2.3590 H   0  0  0  0  0  0  0  0  0  0  0  0
   -0.4410    0.4140    1.2670 H   0  0  0  0  0  0  0  0  0  0  0  0
  1 35  1  0
  1 22  1  0
  1 36  1  0
  1 34  1  0
  2 37  1  0
 31  2  1  6
  2 38  1  0
  2 39  1  0
  3 31  1  0
  3 41  1  0
  3 42  1  0
  3 40  1  0
  4 43  1  0
  4 45  1  0
  4 44  1  0
  5 23  2  0
  6 24  2  0
  7 25  2  0
  8 22  2  0
  8 23  1  0
  8 46  1  0
  9 11  2  0
  9 47  1  0
  9 20  1  0
 10 21  1  0
 10 48  1  0
 10 12  2  0
 11 49  1  0
 11 26  1  0
 12 27  1  0
 12 50  1  0
 13 26  2  0
 13 20  1  0
 13 51  1  0
 14 52  1  0
 14 21  1  0
 14 27  2  0
 15 54  1  0
 15 53  1  0
 15 29  1  0
 15 28  1  0
 16 55  1  0
 16 28  1  0
 16 56  1  0
 16 33  1  0
 17 29  1  0
 17 24  1  0
 18 30  1  0
 18 25  1  0
 19 31  1  0
 22 33  1  0
 23 30  1  0
 24 26  1  0
 25 27  1  0
 28 57  1  6
 28 31  1  0
 29 58  1  6
 29 32  1  0
 30 32  1  0
 30 59  1  1
 32  4  1  6
 32 33  1  0
 33 19  1  1
M  END
>  <id>  (447) 
551

>  <scaffolds>  (447) 
['C1=CC2CCCCC2CC1', 'C1=CCCCC1', 'c1ccoc1', 'C1CCCCC1', 'O=C1C=CCCC1', 'O=C(OC1CC2COC3(C=CC(=O)C(OC(=O)c4ccoc4)C13)C2)c1ccoc1']

>  <name>  (447) 
1[alpha],9[beta]-Difuranoyloxy- 2-oxo-3-enedihydro-[beta]-agarofuran

>  <formula>  (447) 
C25H26O8

>  <SMILES>  (447) 
CC3=CC(=O)[C@H](OC(=O)c1ccoc1)[C@@]4(C)[C@@H](OC(=O)c2ccoc2)C[C@H]5C[C@]34OC5(C)C

>  <ChEMBL_id>  (447) 


>  <ZINC_id>  (447) 


>  <PubChem_id>  (447) 


>  <DrugBank_id>  (447) 


>  <CAS_no>  (447) 
1231761-70-8

>  <references>  (447) 
[{'journal': {'name': 'Journal of Natural Products', 'id': 5}, 'title': 'Dihydro-[beta]-agarofuran Sesquiterpenes and Pentacyclic Triterpenoids from the Root Bark of Osyris lanceolata', 'year': 2010, 'start_page': 1151, 'volume': 73, 'issue': 6, 'doi': '10.1021/np900597w', 'isbn': '', 'despositor': {'code': 'NFA', 'first_name': 'Ngonidzashe', 'last_name': 'Faya', 'id': 21}, 'refauthors_set': [{'author': {'first_name': 'Elizabeth', 'initials': 'EMO', 'last_name': 'Yeboah', 'id': 739}, 'first_author': True, 'id': 1063}, {'author': {'first_name': 'Runner', 'initials': 'RRT', 'last_name': 'Majinda', 'id': 740}, 'first_author': None, 'id': 1154}, {'author': {'first_name': 'Anders Kadziola', 'initials': 'A', 'last_name': 'Kadziola', 'id': 741}, 'first_author': None, 'id': 1155}, {'author': {'first_name': 'Alfred', 'initials': 'A', 'last_name': 'Muller', 'id': 742}, 'first_author': None, 'id': 1156}], 'id': 354}]

>  <classifications>  (447) 
[{'classification': 'Sesquiterpene', 'id': 828}, {'classification': 'Terpenoid', 'id': 839}, {'classification': 'Phenol lipids (Classyfire)', 'id': 951}]

>  <molecular_mass>  (447) 
454.47

$$$$
SANC00552_minRM1.pdb
     RDKit          3D

 62 66  0  0  1  0  0  0  0  0999 V2000
    3.7320   -3.0770    0.4520 C   0  0  0  0  0  0  0  0  0  0  0  0
    2.4930    2.8010    0.1960 C   0  0  0  0  0  0  0  0  0  0  0  0
    4.6690    1.6810    0.5500 C   0  0  0  0  0  0  0  0  0  0  0  0
    1.2920   -2.2990   -1.3930 C   0  0  0  0  0  0  0  0  0  0  0  0
   -1.9560   -1.0630    2.0640 O   0  0  0  0  0  0  0  0  0  0  0  0
   -1.0160    1.8410   -2.3870 O   0  0  0  0  0  0  0  0  0  0  0  0
   -5.4100   -2.0390   -0.2860 C   0  0  0  0  0  0  0  0  0  0  0  0
   -2.9900    4.0870    0.6950 C   0  0  0  0  0  0  0  0  0  0  0  0
   -4.5690   -1.6440    0.7200 C   0  0  0  0  0  0  0  0  0  0  0  0
   -2.6300    3.5310   -0.5020 C   0  0  0  0  0  0  0  0  0  0  0  0
   -3.3730   -2.2120   -1.1140 C   0  0  0  0  0  0  0  0  0  0  0  0
   -1.3500    2.6860    1.1640 C   0  0  0  0  0  0  0  0  0  0  0  0
    2.1840   -2.0680    2.1580 C   0  0  0  0  0  0  0  0  0  0  0  0
    0.8260   -2.4270    1.5740 C   0  0  0  0  0  0  0  0  0  0  0  0
    1.9170    0.9380   -2.1170 C   0  0  0  0  0  0  0  0  0  0  0  0
    3.6390   -0.5260   -1.1330 C   0  0  0  0  0  0  0  0  0  0  0  0
   -0.9180   -1.5910    0.1410 O   0  0  0  0  0  0  0  0  0  0  0  0
    0.0400    0.9820   -0.5960 O   0  0  0  0  0  0  0  0  0  0  0  0
    2.6140    0.4710    0.7640 O   0  0  0  0  0  0  0  0  0  0  0  0
   -4.6910   -2.3870   -1.4090 O   0  0  0  0  0  0  0  0  0  0  0  0
   -2.2170    3.5780    1.7180 O   0  0  0  0  0  0  0  0  0  0  0  0
   -2.0290   -1.4340    0.9060 C   0  0  0  0  0  0  0  0  0  0  0  0
   -0.8590    1.8180   -1.1790 C   0  0  0  0  0  0  0  0  0  0  0  0
   -3.2390   -1.7570    0.1790 C   0  0  0  0  0  0  0  0  0  0  0  0
   -1.5560    2.6220   -0.1970 C   0  0  0  0  0  0  0  0  0  0  0  0
    3.2290   -1.7840    1.0790 C   0  0  2  0  0  0  0  0  0  0  0  0
    3.2770    0.9300   -1.4290 C   0  0  2  0  0  0  0  0  0  0  0  0
    0.3420   -1.2660    0.7020 C   0  0  2  0  0  0  0  0  0  0  0  0
    0.8050    0.1240   -1.4190 C   0  0  2  0  0  0  0  0  0  0  0  0
    3.2420    1.4900    0.0110 C   0  0  1  0  0  0  0  0  0  0  0  0
    1.2820   -1.0510   -0.5070 C   0  0  2  0  0  0  0  0  0  0  0  0
    2.6920   -0.7630    0.0600 C   0  0  2  0  0  0  0  0  0  0  0  0
    2.9420   -3.6770   -0.0220 H   0  0  0  0  0  0  0  0  0  0  0  0
    4.5020   -2.9130   -0.3150 H   0  0  0  0  0  0  0  0  0  0  0  0
    4.1970   -3.7290    1.2080 H   0  0  0  0  0  0  0  0  0  0  0  0
    2.9130    3.5820   -0.4540 H   0  0  0  0  0  0  0  0  0  0  0  0
    1.4200    2.7500   -0.0190 H   0  0  0  0  0  0  0  0  0  0  0  0
    2.5610    3.1640    1.2330 H   0  0  0  0  0  0  0  0  0  0  0  0
    4.6660    1.9530    1.6160 H   0  0  0  0  0  0  0  0  0  0  0  0
    5.2880    0.7760    0.4740 H   0  0  0  0  0  0  0  0  0  0  0  0
    5.2000    2.4780    0.0120 H   0  0  0  0  0  0  0  0  0  0  0  0
    0.3150   -2.5030   -1.8570 H   0  0  0  0  0  0  0  0  0  0  0  0
    2.0180   -2.2130   -2.2180 H   0  0  0  0  0  0  0  0  0  0  0  0
    1.5470   -3.2160   -0.8390 H   0  0  0  0  0  0  0  0  0  0  0  0
   -6.4870   -2.1380   -0.3930 H   0  0  0  0  0  0  0  0  0  0  0  0
   -3.7310    4.8180    0.9960 H   0  0  0  0  0  0  0  0  0  0  0  0
   -4.8190   -1.3160    1.7240 H   0  0  0  0  0  0  0  0  0  0  0  0
   -3.0460    3.7080   -1.4830 H   0  0  0  0  0  0  0  0  0  0  0  0
   -2.6650   -2.4500   -1.8980 H   0  0  0  0  0  0  0  0  0  0  0  0
   -0.6670    2.1820    1.8460 H   0  0  0  0  0  0  0  0  0  0  0  0
    2.0850   -1.1830    2.8250 H   0  0  0  0  0  0  0  0  0  0  0  0
    2.5360   -2.8770    2.8320 H   0  0  0  0  0  0  0  0  0  0  0  0
    0.8600   -3.3810    1.0070 H   0  0  0  0  0  0  0  0  0  0  0  0
    0.1000   -2.6270    2.3900 H   0  0  0  0  0  0  0  0  0  0  0  0
    1.5900    1.9850   -2.2930 H   0  0  0  0  0  0  0  0  0  0  0  0
    2.0460    0.5330   -3.1460 H   0  0  0  0  0  0  0  0  0  0  0  0
    3.4750   -1.2150   -1.9840 H   0  0  0  0  0  0  0  0  0  0  0  0
    4.7090   -0.6540   -0.8780 H   0  0  0  0  0  0  0  0  0  0  0  0
    4.1180   -1.3070    1.5810 H   0  0  0  0  0  0  0  0  0  0  0  0
    4.0290    1.4560   -2.0580 H   0  0  0  0  0  0  0  0  0  0  0  0
    0.2860   -0.3370    1.3350 H   0  0  0  0  0  0  0  0  0  0  0  0
    0.1370   -0.3030   -2.2210 H   0  0  0  0  0  0  0  0  0  0  0  0
  1 34  1  0
  1 33  1  0
  1 26  1  0
  1 35  1  0
  2 36  1  0
  2 37  1  0
 30  2  1  6
  2 38  1  0
  3 30  1  0
  3 41  1  0
  3 40  1  0
  3 39  1  0
  4 43  1  0
  4 42  1  0
  4 44  1  0
  5 22  2  0
  6 23  2  0
  7 20  1  0
  7 45  1  0
  7  9  2  0
  8 10  2  0
  8 46  1  0
  8 21  1  0
  9 24  1  0
  9 47  1  0
 10 48  1  0
 10 25  1  0
 11 49  1  0
 11 20  1  0
 11 24  2  0
 12 25  2  0
 12 21  1  0
 12 50  1  0
 13 26  1  0
 13 14  1  0
 13 51  1  0
 13 52  1  0
 14 28  1  0
 14 53  1  0
 14 54  1  0
 15 56  1  0
 15 55  1  0
 15 27  1  0
 15 29  1  0
 16 57  1  0
 16 27  1  0
 16 58  1  0
 16 32  1  0
 17 28  1  0
 17 22  1  0
 18 29  1  0
 18 23  1  0
 19 30  1  0
 22 24  1  0
 23 25  1  0
 26 32  1  0
 26 59  1  1
 27 60  1  6
 27 30  1  0
 28 31  1  0
 28 61  1  1
 29 62  1  6
 29 31  1  0
 31  4  1  6
 31 32  1  0
 32 19  1  1
M  END
>  <id>  (448) 
552

>  <scaffolds>  (448) 
['c1ccoc1', 'C1CCCCC1', 'O=C(OC1CCCC23CC(CO2)CC(OC(=O)c2ccoc2)C13)c1ccoc1', 'C1CCC2CCCCC2C1']

>  <name>  (448) 
1[alpha],9[beta]-Difuranoyloxydihydro-[beta]-agarofuran

>  <formula>  (448) 
C25H30O7

>  <SMILES>  (448) 
C[C@@H]3CC[C@H](OC(=O)c1ccoc1)[C@@]4(C)[C@@H](OC(=O)c2ccoc2)C[C@H]5C[C@]34OC5(C)C

>  <ChEMBL_id>  (448) 


>  <ZINC_id>  (448) 


>  <PubChem_id>  (448) 


>  <DrugBank_id>  (448) 


>  <CAS_no>  (448) 
1231761-71-9

>  <references>  (448) 
[{'journal': {'name': 'Journal of Natural Products', 'id': 5}, 'title': 'Dihydro-[beta]-agarofuran Sesquiterpenes and Pentacyclic Triterpenoids from the Root Bark of Osyris lanceolata', 'year': 2010, 'start_page': 1151, 'volume': 73, 'issue': 6, 'doi': '10.1021/np900597w', 'isbn': '', 'despositor': {'code': 'NFA', 'first_name': 'Ngonidzashe', 'last_name': 'Faya', 'id': 21}, 'refauthors_set': [{'author': {'first_name': 'Elizabeth', 'initials': 'EMO', 'last_name': 'Yeboah', 'id': 739}, 'first_author': True, 'id': 1063}, {'author': {'first_name': 'Runner', 'initials': 'RRT', 'last_name': 'Majinda', 'id': 740}, 'first_author': None, 'id': 1154}, {'author': {'first_name': 'Anders Kadziola', 'initials': 'A', 'last_name': 'Kadziola', 'id': 741}, 'first_author': None, 'id': 1155}, {'author': {'first_name': 'Alfred', 'initials': 'A', 'last_name': 'Muller', 'id': 742}, 'first_author': None, 'id': 1156}], 'id': 354}]

>  <classifications>  (448) 
[{'classification': 'Sesquiterpene', 'id': 828}, {'classification': 'Terpenoid', 'id': 839}, {'classification': 'Phenol lipids (Classyfire)', 'id': 951}]

>  <molecular_mass>  (448) 
442.5

$$$$
SANC00553_minRM1.pdb
     RDKit          3D

 81 85  0  0  1  0  0  0  0  0999 V2000
    2.4950    0.6970   -1.6850 H   0  0  0  0  0  0  0  0  0  0  0  0
    2.5790    0.4020   -0.6000 C   0  0  2  0  0  0  0  0  0  0  0  0
    3.5570   -0.7860   -0.6350 C   0  0  0  0  0  0  0  0  0  0  0  0
    4.5420   -1.0340    0.5200 C   0  0  1  0  0  0  0  0  0  0  0  0
    4.0350   -2.0720    1.5260 C   0  0  0  0  0  0  0  0  0  0  0  0
    5.7780   -1.7170   -0.0650 C   0  0  0  0  0  0  0  0  0  0  0  0
    5.8800   -2.3330   -1.1140 O   0  0  0  0  0  0  0  0  0  0  0  0
    6.8570   -1.6590    0.7470 O   0  0  0  0  0  0  0  0  0  0  0  0
    4.9700    0.2490    1.2300 C   0  0  0  0  0  0  0  0  0  0  0  0
    3.8110    1.2060    1.4530 C   0  0  0  0  0  0  0  0  0  0  0  0
    3.1690    1.6180    0.1270 C   0  0  1  0  0  0  0  0  0  0  0  0
    4.2650    2.2360   -0.7640 C   0  0  0  0  0  0  0  0  0  0  0  0
    2.1390    2.7380    0.3630 C   0  0  0  0  0  0  0  0  0  0  0  0
    0.7430    2.2700    0.7400 C   0  0  0  0  0  0  0  0  0  0  0  0
    0.2160    1.2510   -0.2800 C   0  0  2  0  0  0  0  0  0  0  0  0
    0.2340    1.8990   -1.6630 C   0  0  0  0  0  0  0  0  0  0  0  0
   -1.2210    0.8260    0.0970 C   0  0  1  0  0  0  0  0  0  0  0  0
   -1.1550    0.4190    1.1470 H   0  0  0  0  0  0  0  0  0  0  0  0
   -2.1930    2.0010    0.1370 C   0  0  0  0  0  0  0  0  0  0  0  0
   -3.4840    1.5790    0.8290 C   0  0  0  0  0  0  0  0  0  0  0  0
   -4.1500    0.3760    0.1520 C   0  0  2  0  0  0  0  0  0  0  0  0
   -4.8450    0.8370   -1.1280 C   0  0  0  0  0  0  0  0  0  0  0  0
   -5.2360   -0.1990    1.0990 C   0  0  1  0  0  0  0  0  0  0  0  0
   -4.7590   -0.6010    2.0320 H   0  0  0  0  0  0  0  0  0  0  0  0
   -6.2690    0.8370    1.5200 C   0  0  0  0  0  0  0  0  0  0  0  0
   -5.8870   -1.3670    0.3940 C   0  0  0  0  0  0  0  0  0  0  0  0
   -7.0780   -1.4320    0.1580 O   0  0  0  0  0  0  0  0  0  0  0  0
   -4.9430   -2.4780    0.0110 C   0  0  0  0  0  0  0  0  0  0  0  0
   -3.7850   -1.9180   -0.8050 C   0  0  0  0  0  0  0  0  0  0  0  0
   -3.1180   -0.7510   -0.0750 C   0  0  1  0  0  0  0  0  0  0  0  0
   -2.8120   -1.1270    0.9410 H   0  0  0  0  0  0  0  0  0  0  0  0
   -1.8150   -0.2890   -0.7830 C   0  0  1  0  0  0  0  0  0  0  0  0
   -2.1210    0.1430   -2.2130 C   0  0  0  0  0  0  0  0  0  0  0  0
   -0.8280   -1.4690   -0.8400 C   0  0  0  0  0  0  0  0  0  0  0  0
    0.5970   -1.0410   -1.1720 C   0  0  0  0  0  0  0  0  0  0  0  0
    1.1370    0.0110   -0.1910 C   0  0  1  0  0  0  0  0  0  0  0  0
    1.0960   -0.5810    1.2140 C   0  0  0  0  0  0  0  0  0  0  0  0
    2.9920   -1.7280   -0.8290 H   0  0  0  0  0  0  0  0  0  0  0  0
    4.1450   -0.6480   -1.5720 H   0  0  0  0  0  0  0  0  0  0  0  0
    3.7740   -3.0280    1.0460 H   0  0  0  0  0  0  0  0  0  0  0  0
    4.7810   -2.3040    2.3010 H   0  0  0  0  0  0  0  0  0  0  0  0
    3.1350   -1.7360    2.0590 H   0  0  0  0  0  0  0  0  0  0  0  0
    7.6110   -2.1290    0.3630 H   0  0  0  0  0  0  0  0  0  0  0  0
    5.4570    0.0130    2.2010 H   0  0  0  0  0  0  0  0  0  0  0  0
    5.7750    0.7540    0.6500 H   0  0  0  0  0  0  0  0  0  0  0  0
    3.0580    0.7660    2.1410 H   0  0  0  0  0  0  0  0  0  0  0  0
    4.1840    2.0990    2.0020 H   0  0  0  0  0  0  0  0  0  0  0  0
    5.0840    1.5370   -0.9900 H   0  0  0  0  0  0  0  0  0  0  0  0
    3.8860    2.5770   -1.7380 H   0  0  0  0  0  0  0  0  0  0  0  0
    4.7300    3.1120   -0.2880 H   0  0  0  0  0  0  0  0  0  0  0  0
    2.5150    3.4470    1.1320 H   0  0  0  0  0  0  0  0  0  0  0  0
    2.0550    3.3700   -0.5530 H   0  0  0  0  0  0  0  0  0  0  0  0
    0.7320    1.8640    1.7740 H   0  0  0  0  0  0  0  0  0  0  0  0
    0.0560    3.1460    0.7980 H   0  0  0  0  0  0  0  0  0  0  0  0
    1.1470    2.4820   -1.8670 H   0  0  0  0  0  0  0  0  0  0  0  0
    0.1570    1.1660   -2.4830 H   0  0  0  0  0  0  0  0  0  0  0  0
   -0.5890    2.6170   -1.8000 H   0  0  0  0  0  0  0  0  0  0  0  0
   -1.7430    2.8670    0.6750 H   0  0  0  0  0  0  0  0  0  0  0  0
   -2.3940    2.3970   -0.8820 H   0  0  0  0  0  0  0  0  0  0  0  0
   -3.2810    1.3590    1.8990 H   0  0  0  0  0  0  0  0  0  0  0  0
   -4.1800    2.4450    0.8540 H   0  0  0  0  0  0  0  0  0  0  0  0
   -4.2160    1.4860   -1.7550 H   0  0  0  0  0  0  0  0  0  0  0  0
   -5.1610    0.0020   -1.7720 H   0  0  0  0  0  0  0  0  0  0  0  0
   -5.7550    1.4220   -0.9120 H   0  0  0  0  0  0  0  0  0  0  0  0
   -6.6790    1.3910    0.6600 H   0  0  0  0  0  0  0  0  0  0  0  0
   -7.1270    0.3750    2.0320 H   0  0  0  0  0  0  0  0  0  0  0  0
   -5.8590    1.5780    2.2210 H   0  0  0  0  0  0  0  0  0  0  0  0
   -4.5820   -2.9790    0.9340 H   0  0  0  0  0  0  0  0  0  0  0  0
   -5.4680   -3.2780   -0.5520 H   0  0  0  0  0  0  0  0  0  0  0  0
   -3.0630   -2.7350   -1.0130 H   0  0  0  0  0  0  0  0  0  0  0  0
   -4.1400   -1.6030   -1.8130 H   0  0  0  0  0  0  0  0  0  0  0  0
   -2.5870    1.1420   -2.2680 H   0  0  0  0  0  0  0  0  0  0  0  0
   -1.2260    0.1930   -2.8540 H   0  0  0  0  0  0  0  0  0  0  0  0
   -2.8070   -0.5510   -2.7230 H   0  0  0  0  0  0  0  0  0  0  0  0
   -0.8400   -2.0470    0.1080 H   0  0  0  0  0  0  0  0  0  0  0  0
   -1.1640   -2.2110   -1.5990 H   0  0  0  0  0  0  0  0  0  0  0  0
    1.2620   -1.9360   -1.1780 H   0  0  0  0  0  0  0  0  0  0  0  0
    0.6520   -0.6670   -2.2180 H   0  0  0  0  0  0  0  0  0  0  0  0
    1.5900   -1.5620    1.2720 H   0  0  0  0  0  0  0  0  0  0  0  0
    1.5800    0.0650    1.9650 H   0  0  0  0  0  0  0  0  0  0  0  0
    0.0740   -0.7340    1.5980 H   0  0  0  0  0  0  0  0  0  0  0  0
  2  1  1  6
  2  3  1  0
  2 36  1  0
  2 11  1  0
  3 39  1  0
  3 38  1  0
  3  4  1  0
  4  6  1  6
  4  9  1  0
  4  5  1  0
  5 40  1  0
  5 42  1  0
  5 41  1  0
  6  7  2  0
  6  8  1  0
  8 43  1  0
  9 45  1  0
  9 10  1  0
  9 44  1  0
 10 11  1  0
 10 47  1  0
 10 46  1  0
 11 12  1  6
 11 13  1  0
 12 49  1  0
 12 48  1  0
 12 50  1  0
 13 52  1  0
 13 14  1  0
 13 51  1  0
 14 15  1  0
 14 54  1  0
 14 53  1  0
 15 16  1  6
 15 36  1  0
 15 17  1  0
 16 56  1  0
 16 55  1  0
 16 57  1  0
 17 32  1  0
 17 19  1  0
 17 18  1  1
 19 59  1  0
 19 58  1  0
 19 20  1  0
 20 21  1  0
 20 61  1  0
 20 60  1  0
 21 22  1  6
 21 30  1  0
 21 23  1  0
 22 63  1  0
 22 62  1  0
 22 64  1  0
 23 26  1  0
 23 25  1  0
 23 24  1  1
 25 65  1  0
 25 66  1  0
 25 67  1  0
 26 28  1  0
 26 27  2  0
 28 29  1  0
 28 69  1  0
 28 68  1  0
 29 71  1  0
 29 70  1  0
 29 30  1  0
 30 32  1  0
 30 31  1  1
 32 33  1  6
 32 34  1  0
 33 73  1  0
 33 74  1  0
 33 72  1  0
 34 76  1  0
 34 35  1  0
 34 75  1  0
 35 78  1  0
 35 77  1  0
 35 36  1  0
 36 37  1  1
 37 79  1  0
 37 81  1  0
 37 80  1  0
M  END
>  <id>  (449) 
553

>  <scaffolds>  (449) 
['C1CCCCC1', 'O=C1CCC2C(CCC3C2CCC2C4CCCCC4CCC23)C1', 'C1CCC2CCCCC2C1']

>  <name>  (449) 
Octandronic acid

>  <formula>  (449) 
C30H48O3

>  <SMILES>  (449) 
[H][C@@]14C[C@@](C)(C(=O)O)CC[C@]1(C)CC[C@]5(C)[C@@]3([H])CC[C@]2(C)[C@@H](C)C(=O)CC[C@@]2([H])[C@]3(C)CC[C@@]45C

>  <ChEMBL_id>  (449) 


>  <ZINC_id>  (449) 


>  <PubChem_id>  (449) 


>  <DrugBank_id>  (449) 


>  <CAS_no>  (449) 
50656-72-9

>  <references>  (449) 
[{'journal': {'name': 'Journal of Natural Products', 'id': 5}, 'title': 'Dihydro-[beta]-agarofuran Sesquiterpenes and Pentacyclic Triterpenoids from the Root Bark of Osyris lanceolata', 'year': 2010, 'start_page': 1151, 'volume': 73, 'issue': 6, 'doi': '10.1021/np900597w', 'isbn': '', 'despositor': {'code': 'NFA', 'first_name': 'Ngonidzashe', 'last_name': 'Faya', 'id': 21}, 'refauthors_set': [{'author': {'first_name': 'Elizabeth', 'initials': 'EMO', 'last_name': 'Yeboah', 'id': 739}, 'first_author': True, 'id': 1063}, {'author': {'first_name': 'Runner', 'initials': 'RRT', 'last_name': 'Majinda', 'id': 740}, 'first_author': None, 'id': 1154}, {'author': {'first_name': 'Anders Kadziola', 'initials': 'A', 'last_name': 'Kadziola', 'id': 741}, 'first_author': None, 'id': 1155}, {'author': {'first_name': 'Alfred', 'initials': 'A', 'last_name': 'Muller', 'id': 742}, 'first_author': None, 'id': 1156}], 'id': 354}]

>  <classifications>  (449) 
[{'classification': 'Terpenoid', 'id': 839}, {'classification': 'Triterpene', 'id': 842}, {'classification': 'Phenol lipids (Classyfire)', 'id': 951}]

>  <molecular_mass>  (449) 
456.7

$$$$
SANC00554_minRM1.pdb
     RDKit          3D

 80 83  0  0  1  0  0  0  0  0999 V2000
    2.9900    0.5020   -1.9030 H   0  0  0  0  0  0  0  0  0  0  0  0
    2.7190    0.5130   -0.8120 C   0  0  2  0  0  0  0  0  0  0  0  0
    3.2490   -0.7790   -0.1850 C   0  0  0  0  0  0  0  0  0  0  0  0
    4.7750   -0.8690   -0.2330 C   0  0  2  0  0  0  0  0  0  0  0  0
    5.2800   -1.0470   -1.6620 C   0  0  0  0  0  0  0  0  0  0  0  0
    5.2060   -2.1040    0.5400 C   0  0  0  0  0  0  0  0  0  0  0  0
    4.5040   -2.9580    1.0560 O   0  0  0  0  0  0  0  0  0  0  0  0
    6.5480   -2.2330    0.6290 O   0  0  0  0  0  0  0  0  0  0  0  0
    5.3810    0.3620    0.4430 C   0  0  0  0  0  0  0  0  0  0  0  0
    4.8820    1.6450   -0.2010 C   0  0  0  0  0  0  0  0  0  0  0  0
    3.3510    1.7690   -0.2100 C   0  0  1  0  0  0  0  0  0  0  0  0
    2.9990    2.9750   -1.0890 C   0  0  0  0  0  0  0  0  0  0  0  0
    2.8270    1.9880    1.2070 C   0  0  0  0  0  0  0  0  0  0  0  0
    1.3150    2.1570    1.2250 C   0  0  0  0  0  0  0  0  0  0  0  0
    0.5590    0.9910    0.5730 C   0  0  2  0  0  0  0  0  0  0  0  0
    0.5520   -0.1820    1.5640 C   0  0  0  0  0  0  0  0  0  0  0  0
    1.2200    0.5070   -0.6840 C   0  0  0  0  0  0  0  0  0  0  0  0
    0.5100   -0.0370   -1.6750 C   0  0  0  0  0  0  0  0  0  0  0  0
   -0.9680   -0.1720   -1.6930 C   0  0  0  0  0  0  0  0  0  0  0  0
   -1.6330    0.2110   -0.3720 C   0  0  2  0  0  0  0  0  0  0  0  0
   -1.4610   -0.6490    0.3400 H   0  0  0  0  0  0  0  0  0  0  0  0
   -3.1660    0.3320   -0.5320 C   0  0  1  0  0  0  0  0  0  0  0  0
   -3.5650    1.2700   -1.6690 C   0  0  0  0  0  0  0  0  0  0  0  0
   -3.7450   -1.0540   -0.9060 C   0  0  0  0  0  0  0  0  0  0  0  0
   -3.3660   -2.1520    0.0830 C   0  0  0  0  0  0  0  0  0  0  0  0
   -3.9650   -3.4620   -0.3300 C   0  0  0  0  0  0  0  0  0  0  0  0
   -4.5650   -3.7430   -1.3530 O   0  0  0  0  0  0  0  0  0  0  0  0
   -3.7730   -4.4240    0.6010 O   0  0  0  0  0  0  0  0  0  0  0  0
   -3.7860    0.7850    0.8050 C   0  0  2  0  0  0  0  0  0  0  0  0
   -3.6000   -0.0300    1.5600 H   0  0  0  0  0  0  0  0  0  0  0  0
   -5.2720    0.9930    0.7060 C   0  0  0  0  0  0  0  0  0  0  0  0
   -6.1350    0.0310    1.0300 C   0  0  0  0  0  0  0  0  0  0  0  0
   -5.8050    2.3220    0.2900 C   0  0  0  0  0  0  0  0  0  0  0  0
   -3.1170    2.0490    1.3380 C   0  0  0  0  0  0  0  0  0  0  0  0
   -1.6250    1.8380    1.5370 C   0  0  0  0  0  0  0  0  0  0  0  0
   -0.9140    1.4250    0.2440 C   0  0  1  0  0  0  0  0  0  0  0  0
   -0.8730    2.6160   -0.7100 C   0  0  0  0  0  0  0  0  0  0  0  0
    2.9000   -0.8790    0.8690 H   0  0  0  0  0  0  0  0  0  0  0  0
    2.7980   -1.6560   -0.6990 H   0  0  0  0  0  0  0  0  0  0  0  0
    4.9440   -0.2460   -2.3350 H   0  0  0  0  0  0  0  0  0  0  0  0
    6.3780   -1.0590   -1.7180 H   0  0  0  0  0  0  0  0  0  0  0  0
    4.9270   -1.9900   -2.1070 H   0  0  0  0  0  0  0  0  0  0  0  0
    6.7930   -3.0330    1.1150 H   0  0  0  0  0  0  0  0  0  0  0  0
    5.1580    0.3490    1.5310 H   0  0  0  0  0  0  0  0  0  0  0  0
    6.4920    0.3270    0.3960 H   0  0  0  0  0  0  0  0  0  0  0  0
    5.3270    2.5200    0.3210 H   0  0  0  0  0  0  0  0  0  0  0  0
    5.2850    1.7230   -1.2330 H   0  0  0  0  0  0  0  0  0  0  0  0
    3.4840    2.9350   -2.0760 H   0  0  0  0  0  0  0  0  0  0  0  0
    1.9240    3.0530   -1.2970 H   0  0  0  0  0  0  0  0  0  0  0  0
    3.3080    3.9240   -0.6290 H   0  0  0  0  0  0  0  0  0  0  0  0
    3.1340    1.1660    1.8840 H   0  0  0  0  0  0  0  0  0  0  0  0
    3.3030    2.8870    1.6590 H   0  0  0  0  0  0  0  0  0  0  0  0
    0.9880    2.2810    2.2810 H   0  0  0  0  0  0  0  0  0  0  0  0
    1.0400    3.1280    0.7550 H   0  0  0  0  0  0  0  0  0  0  0  0
    0.0200    0.0610    2.4980 H   0  0  0  0  0  0  0  0  0  0  0  0
    0.0530   -1.0740    1.1490 H   0  0  0  0  0  0  0  0  0  0  0  0
    1.5650   -0.5040    1.8490 H   0  0  0  0  0  0  0  0  0  0  0  0
    1.0000   -0.4230   -2.5780 H   0  0  0  0  0  0  0  0  0  0  0  0
   -1.3750    0.4250   -2.5440 H   0  0  0  0  0  0  0  0  0  0  0  0
   -1.2180   -1.2230   -1.9610 H   0  0  0  0  0  0  0  0  0  0  0  0
   -3.0410    1.0270   -2.6100 H   0  0  0  0  0  0  0  0  0  0  0  0
   -4.6380    1.2240   -1.9010 H   0  0  0  0  0  0  0  0  0  0  0  0
   -3.3330    2.3260   -1.4680 H   0  0  0  0  0  0  0  0  0  0  0  0
   -4.8530   -0.9980   -0.9880 H   0  0  0  0  0  0  0  0  0  0  0  0
   -3.4260   -1.3470   -1.9290 H   0  0  0  0  0  0  0  0  0  0  0  0
   -2.2600   -2.2670    0.1600 H   0  0  0  0  0  0  0  0  0  0  0  0
   -3.6870   -1.8940    1.1180 H   0  0  0  0  0  0  0  0  0  0  0  0
   -4.1540   -5.2680    0.3210 H   0  0  0  0  0  0  0  0  0  0  0  0
   -5.8580   -0.9590    1.3750 H   0  0  0  0  0  0  0  0  0  0  0  0
   -7.2120    0.1580    0.9790 H   0  0  0  0  0  0  0  0  0  0  0  0
   -6.4680    2.2420   -0.5850 H   0  0  0  0  0  0  0  0  0  0  0  0
   -6.4030    2.7770    1.0950 H   0  0  0  0  0  0  0  0  0  0  0  0
   -5.0290    3.0590    0.0320 H   0  0  0  0  0  0  0  0  0  0  0  0
   -3.3170    2.9270    0.6860 H   0  0  0  0  0  0  0  0  0  0  0  0
   -3.5870    2.3360    2.3050 H   0  0  0  0  0  0  0  0  0  0  0  0
   -1.1880    2.7710    1.9520 H   0  0  0  0  0  0  0  0  0  0  0  0
   -1.4560    1.0810    2.3360 H   0  0  0  0  0  0  0  0  0  0  0  0
   -0.3470    3.4790   -0.2690 H   0  0  0  0  0  0  0  0  0  0  0  0
   -0.3610    2.4030   -1.6580 H   0  0  0  0  0  0  0  0  0  0  0  0
   -1.8710    2.9880   -0.9840 H   0  0  0  0  0  0  0  0  0  0  0  0
  2  1  1  6
  2 17  1  0
  2 11  1  0
  2  3  1  0
  3 39  1  0
  3  4  1  0
  3 38  1  0
  4  5  1  0
  4  9  1  0
  4  6  1  1
  5 40  1  0
  5 42  1  0
  5 41  1  0
  6  8  1  0
  6  7  2  0
  8 43  1  0
  9 10  1  0
  9 45  1  0
  9 44  1  0
 10 47  1  0
 10 11  1  0
 10 46  1  0
 11 12  1  6
 11 13  1  0
 12 48  1  0
 12 49  1  0
 12 50  1  0
 13 14  1  0
 13 52  1  0
 13 51  1  0
 14 15  1  0
 14 54  1  0
 14 53  1  0
 15 17  1  0
 15 36  1  0
 15 16  1  1
 16 56  1  0
 16 57  1  0
 16 55  1  0
 17 18  2  0
 18 58  1  0
 18 19  1  0
 19 59  1  0
 19 60  1  0
 19 20  1  0
 20 22  1  0
 20 36  1  0
 20 21  1  1
 22 23  1  6
 22 24  1  0
 22 29  1  0
 23 61  1  0
 23 62  1  0
 23 63  1  0
 24 65  1  0
 24 64  1  0
 24 25  1  0
 25 26  1  0
 25 66  1  0
 25 67  1  0
 26 27  2  0
 26 28  1  0
 28 68  1  0
 29 31  1  0
 29 34  1  0
 29 30  1  1
 31 33  1  0
 31 32  2  0
 32 70  1  0
 32 69  1  0
 33 71  1  0
 33 73  1  0
 33 72  1  0
 34 74  1  0
 34 35  1  0
 34 75  1  0
 35 36  1  0
 35 76  1  0
 35 77  1  0
 36 37  1  6
 37 79  1  0
 37 80  1  0
 37 78  1  0
M  END
>  <id>  (450) 
554

>  <scaffolds>  (450) 
['C1=CCCCC1', 'C1=CCC2CCCCC2C1', 'C1CCCCC1', 'C=C1CCCC2CCCCC12', 'C1=C2CCCCC2CCC1', 'C1=C2C3CCCCC3CCC2C2CCCCC2C1', 'C1CCC2CCCCC2C1']

>  <name>  (450) 
20-Epikoetjapic acid

>  <formula>  (450) 
C30H46O4

>  <SMILES>  (450) 
[H][C@@]12C[C@](C)(C(=O)O)CC[C@]1(C)CC[C@]4(C)C2=CC[C@]3([H])[C@@](C)(CCC(=O)O)[C@H](C(=C)C)CC[C@]34C

>  <ChEMBL_id>  (450) 


>  <ZINC_id>  (450) 


>  <PubChem_id>  (450) 


>  <DrugBank_id>  (450) 


>  <CAS_no>  (450) 
270907-28-3

>  <references>  (450) 
[{'journal': {'name': 'Journal of Natural Products', 'id': 5}, 'title': 'Dihydro-[beta]-agarofuran Sesquiterpenes and Pentacyclic Triterpenoids from the Root Bark of Osyris lanceolata', 'year': 2010, 'start_page': 1151, 'volume': 73, 'issue': 6, 'doi': '10.1021/np900597w', 'isbn': '', 'despositor': {'code': 'NFA', 'first_name': 'Ngonidzashe', 'last_name': 'Faya', 'id': 21}, 'refauthors_set': [{'author': {'first_name': 'Elizabeth', 'initials': 'EMO', 'last_name': 'Yeboah', 'id': 739}, 'first_author': True, 'id': 1063}, {'author': {'first_name': 'Runner', 'initials': 'RRT', 'last_name': 'Majinda', 'id': 740}, 'first_author': None, 'id': 1154}, {'author': {'first_name': 'Anders Kadziola', 'initials': 'A', 'last_name': 'Kadziola', 'id': 741}, 'first_author': None, 'id': 1155}, {'author': {'first_name': 'Alfred', 'initials': 'A', 'last_name': 'Muller', 'id': 742}, 'first_author': None, 'id': 1156}], 'id': 354}]

>  <classifications>  (450) 
[{'classification': 'Terpenoid', 'id': 839}, {'classification': 'Triterpene', 'id': 842}, {'classification': 'Steroids and steroid derivatives (Classyfire)', 'id': 942}]

>  <molecular_mass>  (450) 
470.68

$$$$
SANC00555_minRM1.pdb
     RDKit          3D

 51 53  0  0  1  0  0  0  0  0999 V2000
    1.6480    0.8140   -1.1610 H   0  0  0  0  0  0  0  0  0  0  0  0
    1.9710    0.4450   -0.1460 C   0  0  2  0  0  0  0  0  0  0  0  0
    1.9600    1.6300    0.8070 C   0  0  0  0  0  0  0  0  0  0  0  0
    0.6080    2.2760    0.7920 C   0  0  0  0  0  0  0  0  0  0  0  0
    0.4470    3.3930    1.2570 O   0  0  0  0  0  0  0  0  0  0  0  0
   -0.5170    1.5020    0.2290 C   0  0  0  0  0  0  0  0  0  0  0  0
   -1.6400    2.2280   -0.1480 C   0  0  0  0  0  0  0  0  0  0  0  0
   -2.7690    1.5330   -0.5700 C   0  0  0  0  0  0  0  0  0  0  0  0
   -3.8100    2.2940   -0.9840 O   0  0  0  0  0  0  0  0  0  0  0  0
   -2.7960    0.1340   -0.4710 C   0  0  0  0  0  0  0  0  0  0  0  0
   -4.0100   -0.4030   -0.7630 O   0  0  0  0  0  0  0  0  0  0  0  0
   -1.6760   -0.5900   -0.0390 C   0  0  0  0  0  0  0  0  0  0  0  0
   -1.8620   -2.0310    0.3360 C   0  0  1  0  0  0  0  0  0  0  0  0
   -2.8860   -2.1490    1.4640 C   0  0  0  0  0  0  0  0  0  0  0  0
   -2.2510   -2.9120   -0.8480 C   0  0  0  0  0  0  0  0  0  0  0  0
   -0.4690    0.1020    0.1480 C   0  0  0  0  0  0  0  0  0  0  0  0
    0.8880   -0.5750    0.2840 C   0  0  2  0  0  0  0  0  0  0  0  0
    0.9900   -1.0330    1.7360 C   0  0  0  0  0  0  0  0  0  0  0  0
    1.0030   -1.7720   -0.6720 C   0  0  0  0  0  0  0  0  0  0  0  0
    2.4130   -2.3410   -0.7540 C   0  0  0  0  0  0  0  0  0  0  0  0
    3.3830   -1.2930   -1.2630 C   0  0  0  0  0  0  0  0  0  0  0  0
    3.4080   -0.0750   -0.3370 C   0  0  1  0  0  0  0  0  0  0  0  0
    4.2320    1.0230   -1.0310 C   0  0  0  0  0  0  0  0  0  0  0  0
    4.1220   -0.4150    0.9670 C   0  0  0  0  0  0  0  0  0  0  0  0
    2.2220    1.3520    1.8500 H   0  0  0  0  0  0  0  0  0  0  0  0
    2.7410    2.3760    0.5290 H   0  0  0  0  0  0  0  0  0  0  0  0
   -1.6510    3.3240   -0.1190 H   0  0  0  0  0  0  0  0  0  0  0  0
   -4.4900    1.7300   -1.3670 H   0  0  0  0  0  0  0  0  0  0  0  0
   -3.8730   -1.2440   -1.2160 H   0  0  0  0  0  0  0  0  0  0  0  0
   -0.9000   -2.4350    0.7640 H   0  0  0  0  0  0  0  0  0  0  0  0
   -3.9080   -1.8580    1.1920 H   0  0  0  0  0  0  0  0  0  0  0  0
   -2.9560   -3.1850    1.8280 H   0  0  0  0  0  0  0  0  0  0  0  0
   -2.6080   -1.5260    2.3280 H   0  0  0  0  0  0  0  0  0  0  0  0
   -1.6530   -2.6980   -1.7450 H   0  0  0  0  0  0  0  0  0  0  0  0
   -2.1110   -3.9790   -0.6190 H   0  0  0  0  0  0  0  0  0  0  0  0
   -3.3080   -2.8140   -1.1450 H   0  0  0  0  0  0  0  0  0  0  0  0
    0.2690   -1.8400    1.9530 H   0  0  0  0  0  0  0  0  0  0  0  0
    1.9830   -1.4250    2.0030 H   0  0  0  0  0  0  0  0  0  0  0  0
    0.7650   -0.2280    2.4510 H   0  0  0  0  0  0  0  0  0  0  0  0
    0.3390   -2.6060   -0.3620 H   0  0  0  0  0  0  0  0  0  0  0  0
    0.6430   -1.4810   -1.6810 H   0  0  0  0  0  0  0  0  0  0  0  0
    2.7400   -2.7600    0.2190 H   0  0  0  0  0  0  0  0  0  0  0  0
    2.4190   -3.2230   -1.4330 H   0  0  0  0  0  0  0  0  0  0  0  0
    4.4000   -1.7240   -1.3760 H   0  0  0  0  0  0  0  0  0  0  0  0
    3.1030   -0.9940   -2.2970 H   0  0  0  0  0  0  0  0  0  0  0  0
    3.8430    1.2930   -2.0230 H   0  0  0  0  0  0  0  0  0  0  0  0
    4.2550    1.9580   -0.4470 H   0  0  0  0  0  0  0  0  0  0  0  0
    5.2770    0.7200   -1.1820 H   0  0  0  0  0  0  0  0  0  0  0  0
    5.0940   -0.9020    0.7910 H   0  0  0  0  0  0  0  0  0  0  0  0
    4.3430    0.4740    1.5760 H   0  0  0  0  0  0  0  0  0  0  0  0
    3.5510   -1.0980    1.6130 H   0  0  0  0  0  0  0  0  0  0  0  0
  2  1  1  6
  2 22  1  0
  2 17  1  0
  2  3  1  0
  3 26  1  0
  3  4  1  0
  3 25  1  0
  4  6  1  0
  4  5  2  0
  6  7  2  0
  6 16  1  0
  7  8  1  0
  7 27  1  0
  8  9  1  0
  8 10  2  0
  9 28  1  0
 10 11  1  0
 10 12  1  0
 11 29  1  0
 12 16  2  0
 12 13  1  0
 13 15  1  0
 13 30  1  1
 13 14  1  0
 14 31  1  0
 14 32  1  0
 14 33  1  0
 15 34  1  0
 15 36  1  0
 15 35  1  0
 16 17  1  0
 17 19  1  0
 17 18  1  1
 18 37  1  0
 18 38  1  0
 18 39  1  0
 19 41  1  0
 19 20  1  0
 19 40  1  0
 20 43  1  0
 20 21  1  0
 20 42  1  0
 21 45  1  0
 21 44  1  0
 21 22  1  0
 22 23  1  6
 22 24  1  0
 23 46  1  0
 23 48  1  0
 23 47  1  0
 24 49  1  0
 24 50  1  0
 24 51  1  0
M  END
>  <id>  (451) 
555

>  <scaffolds>  (451) 
['c1ccccc1', 'C1CCCCC1', 'c1ccc2c(c1)CCC1CCCCC21', 'O=C1CC2CCCCC2c2ccccc21', 'c1ccc2c(c1)CCCC2', 'O=C1CCCc2ccccc21']

>  <name>  (451) 
12,13-Dihydroxychina-8,11,13-trien-7-one

>  <formula>  (451) 
C20H28O3

>  <SMILES>  (451) 
[H][C@@]23CC(=O)c1cc(O)c(O)c(C(C)C)c1[C@@]2(C)CCCC3(C)C

>  <ChEMBL_id>  (451) 


>  <ZINC_id>  (451) 


>  <PubChem_id>  (451) 


>  <DrugBank_id>  (451) 


>  <CAS_no>  (451) 
878808-87-8

>  <references>  (451) 
[{'journal': {'name': 'Journal of Natural Products', 'id': 5}, 'title': 'Discovering New Natural Products Directly from Crude Extracts by HPLC-SPE-NMR: Chinane Diterpenes in Harpagophytum procumbens', 'year': 2006, 'start_page': 527, 'volume': 69, 'issue': 4, 'doi': '10.1021/np050504g', 'isbn': '', 'despositor': {'code': 'NFA', 'first_name': 'Ngonidzashe', 'last_name': 'Faya', 'id': 21}, 'refauthors_set': [{'author': {'first_name': 'Cailean', 'initials': 'C', 'last_name': 'Clarkson', 'id': 743}, 'first_author': True, 'id': 1064}, {'author': {'first_name': 'Dan', 'initials': 'D', 'last_name': 'Staerk', 'id': 491}, 'first_author': None, 'id': 1267}, {'author': {'first_name': 'Steen Honore', 'initials': 'SH', 'last_name': 'Hansen', 'id': 745}, 'first_author': None, 'id': 1268}, {'author': {'first_name': 'Peter', 'initials': 'PJ', 'last_name': 'Smith', 'id': 490}, 'first_author': None, 'id': 1269}, {'author': {'first_name': 'Jerzy', 'initials': 'JW', 'last_name': 'Jaroszewski', 'id': 746}, 'first_author': None, 'id': 1270}], 'id': 355}]

>  <classifications>  (451) 
[{'classification': 'Diterpene', 'id': 771}, {'classification': 'Terpenoid', 'id': 839}, {'classification': 'Phenol lipids (Classyfire)', 'id': 951}]

>  <molecular_mass>  (451) 
316.43

$$$$
SANC00556_minRM1.pdb
     RDKit          3D

 50 52  0  0  1  0  0  0  0  0999 V2000
   -2.5580    2.8250   -0.8250 C   0  0  0  0  0  0  0  0  0  0  0  0
   -1.7570    2.0340    0.2070 C   0  0  1  0  0  0  0  0  0  0  0  0
   -2.2990    2.2580    1.6200 C   0  0  0  0  0  0  0  0  0  0  0  0
   -1.7090    0.5660   -0.1050 C   0  0  0  0  0  0  0  0  0  0  0  0
   -2.9140   -0.1520    0.0190 C   0  0  0  0  0  0  0  0  0  0  0  0
   -4.1350    0.4180    0.2070 O   0  0  0  0  0  0  0  0  0  0  0  0
   -2.9470   -1.5510    0.0380 C   0  0  0  0  0  0  0  0  0  0  0  0
   -4.0730   -2.2960    0.1500 O   0  0  0  0  0  0  0  0  0  0  0  0
   -1.7480   -2.2630    0.0030 C   0  0  0  0  0  0  0  0  0  0  0  0
   -0.5800   -1.5500   -0.1880 C   0  0  0  0  0  0  0  0  0  0  0  0
    0.6870   -2.2960   -0.1070 C   0  0  0  0  0  0  0  0  0  0  0  0
    0.7930   -3.4960   -0.2910 O   0  0  0  0  0  0  0  0  0  0  0  0
    1.8430   -1.4560    0.2910 C   0  0  0  0  0  0  0  0  0  0  0  0
    2.7400   -2.0510    1.1180 O   0  0  0  0  0  0  0  0  0  0  0  0
    1.9050   -0.1530   -0.0460 C   0  0  0  0  0  0  0  0  0  0  0  0
    3.0130    0.7210    0.4660 C   0  0  1  0  0  0  0  0  0  0  0  0
    2.8700    0.8280    1.9900 C   0  0  0  0  0  0  0  0  0  0  0  0
    4.3770    0.1110    0.1160 C   0  0  0  0  0  0  0  0  0  0  0  0
    2.9950    2.1380   -0.1230 C   0  0  0  0  0  0  0  0  0  0  0  0
    1.5770    2.6500   -0.2610 C   0  0  0  0  0  0  0  0  0  0  0  0
    0.8870    1.8120   -1.3250 C   0  0  0  0  0  0  0  0  0  0  0  0
    0.7900    0.3290   -0.9510 C   0  0  1  0  0  0  0  0  0  0  0  0
    0.9490   -0.4030   -2.3130 C   0  0  0  0  0  0  0  0  0  0  0  0
   -0.5410   -0.1530   -0.3790 C   0  0  0  0  0  0  0  0  0  0  0  0
   -2.3340    3.9010   -0.7690 H   0  0  0  0  0  0  0  0  0  0  0  0
   -2.3540    2.5080   -1.8570 H   0  0  0  0  0  0  0  0  0  0  0  0
   -3.6500    2.7470   -0.6910 H   0  0  0  0  0  0  0  0  0  0  0  0
   -0.7140    2.4430    0.2330 H   0  0  0  0  0  0  0  0  0  0  0  0
   -3.3890    2.1710    1.7170 H   0  0  0  0  0  0  0  0  0  0  0  0
   -1.8650    1.5480    2.3400 H   0  0  0  0  0  0  0  0  0  0  0  0
   -2.0510    3.2680    1.9830 H   0  0  0  0  0  0  0  0  0  0  0  0
   -4.2120    1.1710   -0.3960 H   0  0  0  0  0  0  0  0  0  0  0  0
   -4.8480   -1.7210    0.1150 H   0  0  0  0  0  0  0  0  0  0  0  0
   -1.7470   -3.3540    0.1130 H   0  0  0  0  0  0  0  0  0  0  0  0
    2.9760   -2.8960    0.7130 H   0  0  0  0  0  0  0  0  0  0  0  0
    2.9970   -0.1290    2.5120 H   0  0  0  0  0  0  0  0  0  0  0  0
    3.6220    1.5030    2.4260 H   0  0  0  0  0  0  0  0  0  0  0  0
    1.8840    1.2110    2.2890 H   0  0  0  0  0  0  0  0  0  0  0  0
    4.4140   -0.2370   -0.9250 H   0  0  0  0  0  0  0  0  0  0  0  0
    5.1930    0.8390    0.2410 H   0  0  0  0  0  0  0  0  0  0  0  0
    4.6610   -0.7400    0.7490 H   0  0  0  0  0  0  0  0  0  0  0  0
    3.6010    2.8270    0.5020 H   0  0  0  0  0  0  0  0  0  0  0  0
    3.5070    2.1650   -1.1100 H   0  0  0  0  0  0  0  0  0  0  0  0
    1.0150    2.6160    0.6980 H   0  0  0  0  0  0  0  0  0  0  0  0
    1.5710    3.7240   -0.5450 H   0  0  0  0  0  0  0  0  0  0  0  0
   -0.1070    2.2220   -1.5870 H   0  0  0  0  0  0  0  0  0  0  0  0
    1.4470    1.9510   -2.2790 H   0  0  0  0  0  0  0  0  0  0  0  0
    1.9420   -0.2250   -2.7530 H   0  0  0  0  0  0  0  0  0  0  0  0
    0.8420   -1.4940   -2.2860 H   0  0  0  0  0  0  0  0  0  0  0  0
    0.2000   -0.0570   -3.0420 H   0  0  0  0  0  0  0  0  0  0  0  0
  1 26  1  0
  1 25  1  0
  1 27  1  0
  1  2  1  0
  2  4  1  0
  2 28  1  1
  2  3  1  0
  3 29  1  0
  3 31  1  0
  3 30  1  0
  4 24  2  0
  4  5  1  0
  5  7  2  0
  5  6  1  0
  6 32  1  0
  7  9  1  0
  7  8  1  0
  8 33  1  0
  9 10  2  0
  9 34  1  0
 10 24  1  0
 10 11  1  0
 11 12  2  0
 11 13  1  0
 13 15  2  0
 13 14  1  0
 14 35  1  0
 15 22  1  0
 15 16  1  0
 16 19  1  0
 16 18  1  1
 16 17  1  0
 17 38  1  0
 17 37  1  0
 17 36  1  0
 18 39  1  0
 18 40  1  0
 18 41  1  0
 19 43  1  0
 19 20  1  0
 19 42  1  0
 20 21  1  0
 20 45  1  0
 20 44  1  0
 21 47  1  0
 21 46  1  0
 21 22  1  0
 22 23  1  6
 22 24  1  0
 23 50  1  0
 23 48  1  0
 23 49  1  0
M  END
>  <id>  (452) 
556

>  <scaffolds>  (452) 
['c1ccccc1', 'C1CCCCC1', 'C1=C2CCCCC2c2ccccc2C1']

>  <name>  (452) 
6,12,13-Trihydroxychina-5,8,11,13-tetraen-7-one

>  <formula>  (452) 
C20H26O4

>  <SMILES>  (452) 
CC(C)c3c(O)c(O)cc2C(=O)C(O)=C1C(C)(C)CCC[C@]1(C)c23

>  <ChEMBL_id>  (452) 


>  <ZINC_id>  (452) 


>  <PubChem_id>  (452) 


>  <DrugBank_id>  (452) 


>  <CAS_no>  (452) 
878808-89-0

>  <references>  (452) 
[{'journal': {'name': 'Journal of Natural Products', 'id': 5}, 'title': 'Discovering New Natural Products Directly from Crude Extracts by HPLC-SPE-NMR: Chinane Diterpenes in Harpagophytum procumbens', 'year': 2006, 'start_page': 527, 'volume': 69, 'issue': 4, 'doi': '10.1021/np050504g', 'isbn': '', 'despositor': {'code': 'NFA', 'first_name': 'Ngonidzashe', 'last_name': 'Faya', 'id': 21}, 'refauthors_set': [{'author': {'first_name': 'Cailean', 'initials': 'C', 'last_name': 'Clarkson', 'id': 743}, 'first_author': True, 'id': 1064}, {'author': {'first_name': 'Dan', 'initials': 'D', 'last_name': 'Staerk', 'id': 491}, 'first_author': None, 'id': 1267}, {'author': {'first_name': 'Steen Honore', 'initials': 'SH', 'last_name': 'Hansen', 'id': 745}, 'first_author': None, 'id': 1268}, {'author': {'first_name': 'Peter', 'initials': 'PJ', 'last_name': 'Smith', 'id': 490}, 'first_author': None, 'id': 1269}, {'author': {'first_name': 'Jerzy', 'initials': 'JW', 'last_name': 'Jaroszewski', 'id': 746}, 'first_author': None, 'id': 1270}], 'id': 355}]

>  <classifications>  (452) 
[{'classification': 'Terpenoid', 'id': 839}, {'classification': 'Triterpene', 'id': 842}, {'classification': 'Phenol lipids (Classyfire)', 'id': 951}]

>  <molecular_mass>  (452) 
330.42

$$$$
SANC00557_minRM1.pdb
     RDKit          3D

 43 43  0  0  1  0  0  0  0  0999 V2000
   -0.5180   -2.5540   -1.7450 C   0  0  0  0  0  0  0  0  0  0  0  0
   -0.4830   -2.7370   -0.2340 C   0  0  1  0  0  0  0  0  0  0  0  0
   -0.1860   -3.7970   -0.0140 H   0  0  0  0  0  0  0  0  0  0  0  0
    0.5360   -1.8060    0.4280 C   0  0  0  0  0  0  0  0  0  0  0  0
    1.9680   -2.0760   -0.0250 C   0  0  0  0  0  0  0  0  0  0  0  0
    2.9130   -0.9620    0.4290 C   0  0  0  0  0  0  0  0  0  0  0  0
    2.6930    0.3460   -0.3380 C   0  0  0  0  0  0  0  0  0  0  0  0
    1.8090    1.3300    0.4260 C   0  0  0  0  0  0  0  0  0  0  0  0
    1.4690    2.5400   -0.4330 C   0  0  0  0  0  0  0  0  0  0  0  0
    0.5510    3.5410    0.2980 C   0  0  0  0  0  0  0  0  0  0  0  0
   -0.8940    3.4120    0.0720 N   0  0  0  0  0  0  0  0  0  0  0  0
   -1.5930    2.3280    0.7810 C   0  0  0  0  0  0  0  0  0  0  0  0
   -1.8960    1.0950   -0.0880 C   0  0  0  0  0  0  0  0  0  0  0  0
   -2.3080   -0.0920    0.7910 C   0  0  0  0  0  0  0  0  0  0  0  0
   -2.6220   -1.3080    0.0150 N   0  0  0  0  0  0  0  0  0  0  0  0
   -1.8940   -2.5330    0.3690 C   0  0  0  0  0  0  0  0  0  0  0  0
   -0.4880   -1.4970   -2.0570 H   0  0  0  0  0  0  0  0  0  0  0  0
    0.3320   -3.0540   -2.2460 H   0  0  0  0  0  0  0  0  0  0  0  0
   -1.4180   -2.9980   -2.1950 H   0  0  0  0  0  0  0  0  0  0  0  0
    0.2800   -0.7420    0.2350 H   0  0  0  0  0  0  0  0  0  0  0  0
    0.4770   -1.9160    1.5360 H   0  0  0  0  0  0  0  0  0  0  0  0
    2.3150   -3.0540    0.3720 H   0  0  0  0  0  0  0  0  0  0  0  0
    2.0330   -2.1930   -1.1280 H   0  0  0  0  0  0  0  0  0  0  0  0
    2.8320   -0.8070    1.5240 H   0  0  0  0  0  0  0  0  0  0  0  0
    3.9610   -1.3010    0.2890 H   0  0  0  0  0  0  0  0  0  0  0  0
    3.6750    0.8260   -0.5490 H   0  0  0  0  0  0  0  0  0  0  0  0
    2.2760    0.1410   -1.3450 H   0  0  0  0  0  0  0  0  0  0  0  0
    0.8820    0.8230    0.7810 H   0  0  0  0  0  0  0  0  0  0  0  0
    2.3290    1.6590    1.3530 H   0  0  0  0  0  0  0  0  0  0  0  0
    2.4100    3.0510   -0.7240 H   0  0  0  0  0  0  0  0  0  0  0  0
    1.0230    2.2340   -1.4020 H   0  0  0  0  0  0  0  0  0  0  0  0
    0.7600    3.5390    1.3950 H   0  0  0  0  0  0  0  0  0  0  0  0
    0.8090    4.5760   -0.0240 H   0  0  0  0  0  0  0  0  0  0  0  0
   -1.1180    3.4110   -0.9280 H   0  0  0  0  0  0  0  0  0  0  0  0
   -1.0480    2.0380    1.7090 H   0  0  0  0  0  0  0  0  0  0  0  0
   -2.5520    2.7670    1.1470 H   0  0  0  0  0  0  0  0  0  0  0  0
   -2.6940    1.3310   -0.8140 H   0  0  0  0  0  0  0  0  0  0  0  0
   -1.0190    0.8340   -0.7180 H   0  0  0  0  0  0  0  0  0  0  0  0
   -1.5460   -0.2660    1.5850 H   0  0  0  0  0  0  0  0  0  0  0  0
   -3.2270    0.1670    1.3650 H   0  0  0  0  0  0  0  0  0  0  0  0
   -2.6190   -1.1380   -0.9950 H   0  0  0  0  0  0  0  0  0  0  0  0
   -2.5480   -3.3780    0.0410 H   0  0  0  0  0  0  0  0  0  0  0  0
   -1.8490   -2.6400    1.4790 H   0  0  0  0  0  0  0  0  0  0  0  0
  1 18  1  0
  1 19  1  0
  1 17  1  0
  1  2  1  0
  2  3  1  6
  2 16  1  0
  2  4  1  0
  4  5  1  0
  4 20  1  0
  4 21  1  0
  5 23  1  0
  5 22  1  0
  5  6  1  0
  6  7  1  0
  6 25  1  0
  6 24  1  0
  7 27  1  0
  7 26  1  0
  7  8  1  0
  8  9  1  0
  8 28  1  0
  8 29  1  0
  9 31  1  0
  9 30  1  0
  9 10  1  0
 10 33  1  0
 10 11  1  0
 10 32  1  0
 11 34  1  0
 11 12  1  0
 12 13  1  0
 12 36  1  0
 12 35  1  0
 13 37  1  0
 13 38  1  0
 13 14  1  0
 14 15  1  0
 14 40  1  0
 14 39  1  0
 15 41  1  0
 15 16  1  0
 16 42  1  0
 16 43  1  0
M  END
>  <id>  (453) 
557

>  <scaffolds>  (453) 
['C1CCCCNCCCNCCCC1']

>  <name>  (453) 
Haliclorensin

>  <formula>  (453) 
C13H28N2

>  <SMILES>  (453) 
C[C@H]1CCCCCCCNCCCNC1

>  <ChEMBL_id>  (453) 


>  <ZINC_id>  (453) 


>  <PubChem_id>  (453) 


>  <DrugBank_id>  (453) 


>  <CAS_no>  (453) 
202747-72-6

>  <references>  (453) 
[{'journal': {'name': 'Journal of Natural Products', 'id': 5}, 'title': 'Haliclorensin, a Novel Diamino Alkaloid from the Marine Sponge Haliclona tulearensis', 'year': 1998, 'start_page': 282, 'volume': 61, 'issue': None, 'doi': '10.1021/np970442x', 'isbn': '', 'despositor': {'code': 'NFA', 'first_name': 'Ngonidzashe', 'last_name': 'Faya', 'id': 21}, 'refauthors_set': [{'author': {'first_name': '', 'initials': 'G', 'last_name': 'Koren-Goldshlager', 'id': 532}, 'first_author': True, 'id': 1065}, {'author': {'first_name': 'Yoel', 'initials': 'Y', 'last_name': 'Kashman', 'id': 536}, 'first_author': None, 'id': 1157}, {'author': {'first_name': 'Michael', 'initials': 'M', 'last_name': 'Schleyer', 'id': 452}, 'first_author': None, 'id': 1158}], 'id': 356}]

>  <classifications>  (453) 
[{'classification': 'Alkaloid', 'id': 738}, {'classification': 'Azacyclodecane', 'id': 745}, {'classification': 'Organonitrogen compounds (Classyfire)', 'id': 987}]

>  <molecular_mass>  (453) 
212.37

$$$$
SANC00558_minRM1.pdb
     RDKit          3D

 65 70  0  0  1  0  0  0  0  0999 V2000
    0.8220    0.3170    1.9640 O   0  0  0  0  0  0  0  0  0  0  0  0
    1.5910    0.3040    1.0130 C   0  0  0  0  0  0  0  0  0  0  0  0
    3.0060    0.6450    1.2030 C   0  0  0  0  0  0  0  0  0  0  0  0
    3.4440    1.0720    2.4160 O   0  0  0  0  0  0  0  0  0  0  0  0
    3.8980    0.5900    0.1890 C   0  0  0  0  0  0  0  0  0  0  0  0
    5.3250    0.8650    0.3140 C   0  0  0  0  0  0  0  0  0  0  0  0
    5.7270    2.0330    0.9600 C   0  0  0  0  0  0  0  0  0  0  0  0
    7.0730    2.2490    1.2180 C   0  0  0  0  0  0  0  0  0  0  0  0
    8.0050    1.2900    0.8270 C   0  0  0  0  0  0  0  0  0  0  0  0
    9.3400    1.4290    1.0410 O   0  0  0  0  0  0  0  0  0  0  0  0
    7.6000    0.1410    0.1310 C   0  0  0  0  0  0  0  0  0  0  0  0
    8.4500   -0.8100   -0.3270 O   0  0  0  0  0  0  0  0  0  0  0  0
    6.2480   -0.0710   -0.1390 C   0  0  0  0  0  0  0  0  0  0  0  0
    3.5510    0.2310   -1.0800 O   0  0  0  0  0  0  0  0  0  0  0  0
    2.2550   -0.1220   -1.3060 C   0  0  0  0  0  0  0  0  0  0  0  0
    2.0170   -0.5590   -2.6190 C   0  0  0  0  0  0  0  0  0  0  0  0
    3.0270   -0.4680   -3.5170 O   0  0  0  0  0  0  0  0  0  0  0  0
    0.7250   -0.9790   -2.9490 C   0  0  0  0  0  0  0  0  0  0  0  0
    0.5760   -1.4490   -4.2080 O   0  0  0  0  0  0  0  0  0  0  0  0
   -0.3100   -0.9300   -2.0080 C   0  0  0  0  0  0  0  0  0  0  0  0
   -0.0630   -0.4550   -0.7290 C   0  0  0  0  0  0  0  0  0  0  0  0
   -1.2020   -0.4280    0.2450 C   0  0  2  0  0  0  0  0  0  0  0  0
   -0.8610    0.0130    1.2340 H   0  0  0  0  0  0  0  0  0  0  0  0
   -1.6810   -1.8110    0.5310 C   0  0  0  0  0  0  0  0  0  0  0  0
   -0.7730   -2.8610    0.6500 C   0  0  0  0  0  0  0  0  0  0  0  0
   -1.1910   -4.1340    1.0050 C   0  0  0  0  0  0  0  0  0  0  0  0
   -2.5410   -4.3610    1.2780 C   0  0  0  0  0  0  0  0  0  0  0  0
   -2.8750   -5.6360    1.5860 O   0  0  0  0  0  0  0  0  0  0  0  0
   -3.4740   -3.3210    1.1660 C   0  0  0  0  0  0  0  0  0  0  0  0
   -4.7690   -3.6380    1.4240 O   0  0  0  0  0  0  0  0  0  0  0  0
   -3.0320   -2.0520    0.7720 C   0  0  0  0  0  0  0  0  0  0  0  0
   -4.0110   -1.1070    0.6450 O   0  0  0  0  0  0  0  0  0  0  0  0
   -3.5520    0.2300    0.7130 C   0  0  2  0  0  0  0  0  0  0  0  0
   -3.2270    0.4540    1.7660 H   0  0  0  0  0  0  0  0  0  0  0  0
   -4.7020    1.1090    0.3120 C   0  0  0  0  0  0  0  0  0  0  0  0
   -5.5970    0.7340   -0.6860 C   0  0  0  0  0  0  0  0  0  0  0  0
   -6.6370    1.5820   -1.0530 C   0  0  0  0  0  0  0  0  0  0  0  0
   -6.7650    2.8150   -0.4200 C   0  0  0  0  0  0  0  0  0  0  0  0
   -7.7090    3.7110   -0.8220 O   0  0  0  0  0  0  0  0  0  0  0  0
   -5.8590    3.1950    0.5790 C   0  0  0  0  0  0  0  0  0  0  0  0
   -5.8890    4.4200    1.1610 O   0  0  0  0  0  0  0  0  0  0  0  0
   -4.8220    2.3420    0.9480 C   0  0  0  0  0  0  0  0  0  0  0  0
   -2.3710    0.4280   -0.2800 C   0  0  1  0  0  0  0  0  0  0  0  0
   -2.6970    0.1180   -1.3090 H   0  0  0  0  0  0  0  0  0  0  0  0
   -1.9240    1.7450   -0.2410 O   0  0  0  0  0  0  0  0  0  0  0  0
    1.2380   -0.0850   -0.3480 C   0  0  0  0  0  0  0  0  0  0  0  0
    2.9350    0.6000    3.0890 H   0  0  0  0  0  0  0  0  0  0  0  0
    4.9860    2.7830    1.2580 H   0  0  0  0  0  0  0  0  0  0  0  0
    7.3950    3.1770    1.7000 H   0  0  0  0  0  0  0  0  0  0  0  0
    9.4530    1.8660    1.8990 H   0  0  0  0  0  0  0  0  0  0  0  0
    9.2700   -0.7680    0.1880 H   0  0  0  0  0  0  0  0  0  0  0  0
    5.9290   -0.9750   -0.6670 H   0  0  0  0  0  0  0  0  0  0  0  0
    3.0850   -1.3310   -3.9570 H   0  0  0  0  0  0  0  0  0  0  0  0
   -0.2730   -1.9040   -4.2690 H   0  0  0  0  0  0  0  0  0  0  0  0
   -1.3110   -1.2720   -2.2870 H   0  0  0  0  0  0  0  0  0  0  0  0
    0.2900   -2.6870    0.4520 H   0  0  0  0  0  0  0  0  0  0  0  0
   -0.4760   -4.9610    1.0550 H   0  0  0  0  0  0  0  0  0  0  0  0
   -3.7000   -5.6300    2.1010 H   0  0  0  0  0  0  0  0  0  0  0  0
   -5.2250   -2.8410    1.7090 H   0  0  0  0  0  0  0  0  0  0  0  0
   -5.4900   -0.2310   -1.1930 H   0  0  0  0  0  0  0  0  0  0  0  0
   -7.3360    1.2940   -1.8440 H   0  0  0  0  0  0  0  0  0  0  0  0
   -8.5160    3.4810   -0.3400 H   0  0  0  0  0  0  0  0  0  0  0  0
   -6.7920    4.5650    1.4850 H   0  0  0  0  0  0  0  0  0  0  0  0
   -4.1200    2.6560    1.7280 H   0  0  0  0  0  0  0  0  0  0  0  0
   -2.5980    2.2970   -0.6540 H   0  0  0  0  0  0  0  0  0  0  0  0
  1  2  2  0
  2 46  1  0
  2  3  1  0
  3  5  2  0
  3  4  1  0
  4 47  1  0
  5 14  1  0
  5  6  1  0
  6 13  2  0
  6  7  1  0
  7  8  2  0
  7 48  1  0
  8  9  1  0
  8 49  1  0
  9 11  2  0
  9 10  1  0
 10 50  1  0
 11 12  1  0
 11 13  1  0
 12 51  1  0
 13 52  1  0
 14 15  1  0
 15 16  2  0
 15 46  1  0
 16 17  1  0
 16 18  1  0
 17 53  1  0
 18 19  1  0
 18 20  2  0
 19 54  1  0
 20 55  1  0
 20 21  1  0
 21 46  2  0
 21 22  1  0
 22 43  1  0
 22 24  1  0
 22 23  1  1
 24 25  2  0
 24 31  1  0
 25 56  1  0
 25 26  1  0
 26 57  1  0
 26 27  2  0
 27 29  1  0
 27 28  1  0
 28 58  1  0
 29 31  2  0
 29 30  1  0
 30 59  1  0
 31 32  1  0
 32 33  1  0
 33 43  1  0
 33 35  1  0
 33 34  1  1
 35 36  2  0
 35 42  1  0
 36 60  1  0
 36 37  1  0
 37 61  1  0
 37 38  2  0
 38 39  1  0
 38 40  1  0
 39 62  1  0
 40 42  2  0
 40 41  1  0
 41 63  1  0
 42 64  1  0
 43 44  1  6
 43 45  1  0
 45 65  1  0
M  END
>  <id>  (454) 
558

>  <scaffolds>  (454) 
['c1ccccc1', 'O=c1cc(-c2ccccc2)oc2ccccc12', 'c1ccc(C2CCc3ccccc3O2)cc1', 'O=c1cc(-c2ccccc2)oc2cccc(C3CC(c4ccccc4)Oc4ccccc43)c12', 'O=c1ccoc2ccccc12', 'c1ccc(Cc2ccccc2)cc1']

>  <name>  (454) 
Mesquitol-(4[alpha][to]5)-3,3',4',7,8-pentahydroxyflavonone

>  <formula>  (454) 
C30H22O13

>  <SMILES>  (454) 
O=c5c(O)c(c1ccc(O)c(O)c1)oc6c(O)c(O)cc([C@@H]4c2ccc(O)c(O)c2O[C@H](c3ccc(O)c(O)c3)[C@H]4O)c56

>  <ChEMBL_id>  (454) 


>  <ZINC_id>  (454) 


>  <PubChem_id>  (454) 


>  <DrugBank_id>  (454) 


>  <CAS_no>  (454) 
437658-41-8

>  <references>  (454) 
[{'journal': {'name': 'Journal of Natural Products', 'id': 5}, 'title': 'Identification of Two Novel Promelacacinidin Dimers from Acacia nigrescens', 'year': 2002, 'start_page': 769, 'volume': 65, 'issue': 5, 'doi': '10.1021/np010460l', 'isbn': '', 'despositor': {'code': 'NFA', 'first_name': 'Ngonidzashe', 'last_name': 'Faya', 'id': 21}, 'refauthors_set': [{'author': {'first_name': 'Hiten', 'initials': 'H', 'last_name': 'Howell', 'id': 747}, 'first_author': True, 'id': 1159}, {'author': {'first_name': 'Elfranco', 'initials': 'E', 'last_name': 'Malan', 'id': 748}, 'first_author': None, 'id': 1160}, {'author': {'first_name': 'Jacobus', 'initials': 'JA', 'last_name': 'Steenkamp', 'id': 749}, 'first_author': None, 'id': 1161}, {'author': {'first_name': 'Vincent', 'initials': 'EV', 'last_name': 'Brandt', 'id': 750}, 'first_author': None, 'id': 1162}, {'author': {'first_name': 'Jaco', 'initials': 'J', 'last_name': 'Brand', 'id': 751}, 'first_author': None, 'id': 1163}], 'id': 357}]

>  <classifications>  (454) 
[{'classification': 'Flavonoids', 'id': 776}, {'classification': 'Promelacacinidin', 'id': 814}, {'classification': 'Flavonoids (Classyfire)', 'id': 941}]

>  <molecular_mass>  (454) 
590.49

$$$$
SANC00559_minRM1.pdb
     RDKit          3D

 65 70  0  0  1  0  0  0  0  0999 V2000
    0.8010   -0.0980    2.2860 O   0  0  0  0  0  0  0  0  0  0  0  0
    1.4920    0.2620    1.3450 C   0  0  0  0  0  0  0  0  0  0  0  0
    2.9580    0.1770    1.4340 C   0  0  0  0  0  0  0  0  0  0  0  0
    3.5610    0.0130    2.6400 O   0  0  0  0  0  0  0  0  0  0  0  0
    3.7430    0.2580    0.3380 C   0  0  0  0  0  0  0  0  0  0  0  0
    5.1880    0.0660    0.3070 C   0  0  0  0  0  0  0  0  0  0  0  0
    5.9860    0.7290    1.2370 C   0  0  0  0  0  0  0  0  0  0  0  0
    7.3390    0.4310    1.3190 C   0  0  0  0  0  0  0  0  0  0  0  0
    7.8790   -0.5320    0.4710 C   0  0  0  0  0  0  0  0  0  0  0  0
    9.1920   -0.8870    0.5000 O   0  0  0  0  0  0  0  0  0  0  0  0
    7.0820   -1.1600   -0.4990 C   0  0  0  0  0  0  0  0  0  0  0  0
    7.5480   -2.0540   -1.4020 O   0  0  0  0  0  0  0  0  0  0  0  0
    5.7260   -0.8470   -0.5950 C   0  0  0  0  0  0  0  0  0  0  0  0
    3.2390    0.5150   -0.9040 O   0  0  0  0  0  0  0  0  0  0  0  0
    1.9080    0.7730   -1.0070 C   0  0  0  0  0  0  0  0  0  0  0  0
    1.5070    1.0730   -2.3190 C   0  0  0  0  0  0  0  0  0  0  0  0
    2.4340    1.1980   -3.3000 O   0  0  0  0  0  0  0  0  0  0  0  0
    0.1630    1.3590   -2.5450 C   0  0  0  0  0  0  0  0  0  0  0  0
   -0.1860    1.6410   -3.8220 O   0  0  0  0  0  0  0  0  0  0  0  0
   -0.7480    1.3960   -1.4820 C   0  0  0  0  0  0  0  0  0  0  0  0
   -0.3470    1.0710   -0.1950 C   0  0  0  0  0  0  0  0  0  0  0  0
   -1.3610    1.0910    0.9170 C   0  0  1  0  0  0  0  0  0  0  0  0
   -0.8810    1.4050    1.8840 H   0  0  0  0  0  0  0  0  0  0  0  0
   -2.4620    2.0660    0.6540 C   0  0  0  0  0  0  0  0  0  0  0  0
   -2.2390    3.4230    0.8780 C   0  0  0  0  0  0  0  0  0  0  0  0
   -3.2410    4.3570    0.6700 C   0  0  0  0  0  0  0  0  0  0  0  0
   -4.4900    3.9280    0.2150 C   0  0  0  0  0  0  0  0  0  0  0  0
   -5.4380    4.8830    0.0680 O   0  0  0  0  0  0  0  0  0  0  0  0
   -4.7420    2.5670   -0.0050 C   0  0  0  0  0  0  0  0  0  0  0  0
   -5.9960    2.2500   -0.4160 O   0  0  0  0  0  0  0  0  0  0  0  0
   -3.7220    1.6380    0.2410 C   0  0  0  0  0  0  0  0  0  0  0  0
   -4.0710    0.3290    0.0630 O   0  0  0  0  0  0  0  0  0  0  0  0
   -2.9790   -0.5580   -0.0650 C   0  0  2  0  0  0  0  0  0  0  0  0
   -2.4980   -0.3910   -1.0660 H   0  0  0  0  0  0  0  0  0  0  0  0
   -3.5120   -1.9600    0.0100 C   0  0  0  0  0  0  0  0  0  0  0  0
   -4.5800   -2.3030    0.8320 C   0  0  0  0  0  0  0  0  0  0  0  0
   -5.0430   -3.6130    0.8620 C   0  0  0  0  0  0  0  0  0  0  0  0
   -4.4320   -4.5760    0.0650 C   0  0  0  0  0  0  0  0  0  0  0  0
   -4.7920   -5.8880    0.0650 O   0  0  0  0  0  0  0  0  0  0  0  0
   -3.3410   -4.2350   -0.7500 C   0  0  0  0  0  0  0  0  0  0  0  0
   -2.6560   -5.1150   -1.5180 O   0  0  0  0  0  0  0  0  0  0  0  0
   -2.8760   -2.9210   -0.7710 C   0  0  0  0  0  0  0  0  0  0  0  0
   -1.9500   -0.3280    1.0720 C   0  0  2  0  0  0  0  0  0  0  0  0
   -1.1430   -1.1060    1.0110 H   0  0  0  0  0  0  0  0  0  0  0  0
   -2.6090   -0.3280    2.2990 O   0  0  0  0  0  0  0  0  0  0  0  0
    0.9930    0.7130    0.0480 C   0  0  0  0  0  0  0  0  0  0  0  0
    2.9710   -0.5250    3.1850 H   0  0  0  0  0  0  0  0  0  0  0  0
    5.5520    1.4800    1.9050 H   0  0  0  0  0  0  0  0  0  0  0  0
    7.9730    0.9510    2.0440 H   0  0  0  0  0  0  0  0  0  0  0  0
    9.4730   -0.8830    1.4260 H   0  0  0  0  0  0  0  0  0  0  0  0
    8.3630   -2.4540   -1.0560 H   0  0  0  0  0  0  0  0  0  0  0  0
    5.1030   -1.3340   -1.3510 H   0  0  0  0  0  0  0  0  0  0  0  0
    2.4450    0.3460   -3.7580 H   0  0  0  0  0  0  0  0  0  0  0  0
   -1.0170    1.1770   -4.0100 H   0  0  0  0  0  0  0  0  0  0  0  0
   -1.7740    1.7210   -1.6930 H   0  0  0  0  0  0  0  0  0  0  0  0
   -1.2520    3.7630    1.2080 H   0  0  0  0  0  0  0  0  0  0  0  0
   -3.0650    5.4200    0.8540 H   0  0  0  0  0  0  0  0  0  0  0  0
   -6.0140    4.6390   -0.6670 H   0  0  0  0  0  0  0  0  0  0  0  0
   -5.9590    1.4060   -0.8970 H   0  0  0  0  0  0  0  0  0  0  0  0
   -5.0690   -1.5440    1.4530 H   0  0  0  0  0  0  0  0  0  0  0  0
   -5.8770   -3.8850    1.5170 H   0  0  0  0  0  0  0  0  0  0  0  0
   -5.7550   -5.9210    0.1160 H   0  0  0  0  0  0  0  0  0  0  0  0
   -3.1980   -5.9050   -1.6500 H   0  0  0  0  0  0  0  0  0  0  0  0
   -2.0230   -2.6680   -1.4080 H   0  0  0  0  0  0  0  0  0  0  0  0
   -2.7300   -1.2450    2.5610 H   0  0  0  0  0  0  0  0  0  0  0  0
  1  2  2  0
  2 46  1  0
  2  3  1  0
  3  5  2  0
  3  4  1  0
  4 47  1  0
  5 14  1  0
  5  6  1  0
  6 13  2  0
  6  7  1  0
  7  8  2  0
  7 48  1  0
  8  9  1  0
  8 49  1  0
  9 11  2  0
  9 10  1  0
 10 50  1  0
 11 12  1  0
 11 13  1  0
 12 51  1  0
 13 52  1  0
 14 15  1  0
 15 16  2  0
 15 46  1  0
 16 17  1  0
 16 18  1  0
 17 53  1  0
 18 19  1  0
 18 20  2  0
 19 54  1  0
 20 55  1  0
 20 21  1  0
 21 46  2  0
 21 22  1  0
 22 24  1  0
 22 43  1  0
 22 23  1  1
 24 31  2  0
 24 25  1  0
 25 26  2  0
 25 56  1  0
 26 27  1  0
 26 57  1  0
 27 29  2  0
 27 28  1  0
 28 58  1  0
 29 30  1  0
 29 31  1  0
 30 59  1  0
 31 32  1  0
 32 33  1  0
 33 34  1  6
 33 35  1  0
 33 43  1  0
 35 42  2  0
 35 36  1  0
 36 37  2  0
 36 60  1  0
 37 38  1  0
 37 61  1  0
 38 40  2  0
 38 39  1  0
 39 62  1  0
 40 41  1  0
 40 42  1  0
 41 63  1  0
 42 64  1  0
 43 44  1  1
 43 45  1  0
 45 65  1  0
M  END
>  <id>  (455) 
559

>  <scaffolds>  (455) 
['c1ccccc1', 'O=c1cc(-c2ccccc2)oc2ccccc12', 'c1ccc(C2CCc3ccccc3O2)cc1', 'O=c1cc(-c2ccccc2)oc2cccc(C3CC(c4ccccc4)Oc4ccccc43)c12', 'O=c1ccoc2ccccc12', 'c1ccc(Cc2ccccc2)cc1']

>  <name>  (455) 
Epimesquitol-(4[beta][to]5)-3,3',4',7,8-pentahydroxyflavonone

>  <formula>  (455) 
C30H22O13

>  <SMILES>  (455) 
O=c5c(O)c(c1ccc(O)c(O)c1)oc6c(O)c(O)cc([C@H]4c2ccc(O)c(O)c2O[C@H](c3ccc(O)c(O)c3)[C@@H]4O)c56

>  <ChEMBL_id>  (455) 


>  <ZINC_id>  (455) 


>  <PubChem_id>  (455) 


>  <DrugBank_id>  (455) 


>  <CAS_no>  (455) 
437658-43-0

>  <references>  (455) 
[{'journal': {'name': 'Journal of Natural Products', 'id': 5}, 'title': 'Identification of Two Novel Promelacacinidin Dimers from Acacia nigrescens', 'year': 2002, 'start_page': 769, 'volume': 65, 'issue': 5, 'doi': '10.1021/np010460l', 'isbn': '', 'despositor': {'code': 'NFA', 'first_name': 'Ngonidzashe', 'last_name': 'Faya', 'id': 21}, 'refauthors_set': [{'author': {'first_name': 'Hiten', 'initials': 'H', 'last_name': 'Howell', 'id': 747}, 'first_author': True, 'id': 1159}, {'author': {'first_name': 'Elfranco', 'initials': 'E', 'last_name': 'Malan', 'id': 748}, 'first_author': None, 'id': 1160}, {'author': {'first_name': 'Jacobus', 'initials': 'JA', 'last_name': 'Steenkamp', 'id': 749}, 'first_author': None, 'id': 1161}, {'author': {'first_name': 'Vincent', 'initials': 'EV', 'last_name': 'Brandt', 'id': 750}, 'first_author': None, 'id': 1162}, {'author': {'first_name': 'Jaco', 'initials': 'J', 'last_name': 'Brand', 'id': 751}, 'first_author': None, 'id': 1163}], 'id': 357}]

>  <classifications>  (455) 
[{'classification': 'Flavonoids', 'id': 776}, {'classification': 'Promelacacinidin', 'id': 814}, {'classification': 'Flavonoids (Classyfire)', 'id': 941}]

>  <molecular_mass>  (455) 
590.49

$$$$
SANC00560_minRM1.pdb
     RDKit          3D

 30 31  0  0  1  0  0  0  0  0999 V2000
   -0.7870   -0.0740    1.8090 H   0  0  0  0  0  0  0  0  0  0  0  0
   -0.2610   -0.2360    0.8380 C   0  0  1  0  0  0  0  0  0  0  0  0
   -0.0840   -1.7420    0.5240 C   0  0  0  0  0  0  0  0  0  0  0  0
    1.3110   -1.8520   -0.0040 C   0  0  0  0  0  0  0  0  0  0  0  0
    2.0020   -0.7260    0.1880 C   0  0  0  0  0  0  0  0  0  0  0  0
    3.4160   -0.4590   -0.1860 C   0  0  0  0  0  0  0  0  0  0  0  0
    4.0470   -1.7020   -0.3300 O   0  0  0  0  0  0  0  0  0  0  0  0
    1.1880    0.3060    0.9100 C   0  0  1  0  0  0  0  0  0  0  0  0
    1.5310    0.3450    1.9750 H   0  0  0  0  0  0  0  0  0  0  0  0
    1.3200    1.7080    0.3090 C   0  0  2  0  0  0  0  0  0  0  0  0
    2.3830    2.0130    0.1060 H   0  0  0  0  0  0  0  0  0  0  0  0
    0.6450    2.5630    1.1740 O   0  0  0  0  0  0  0  0  0  0  0  0
    0.7030    1.8500   -0.9510 O   0  0  0  0  0  0  0  0  0  0  0  0
   -0.5420    1.3370   -1.0750 C   0  0  0  0  0  0  0  0  0  0  0  0
   -1.0480    0.4020   -0.2530 C   0  0  0  0  0  0  0  0  0  0  0  0
   -2.4350   -0.0080   -0.4660 C   0  0  0  0  0  0  0  0  0  0  0  0
   -3.1460    0.2920   -1.4150 O   0  0  0  0  0  0  0  0  0  0  0  0
   -2.9380   -0.7860    0.5290 O   0  0  0  0  0  0  0  0  0  0  0  0
   -4.2810   -1.1950    0.4050 C   0  0  0  0  0  0  0  0  0  0  0  0
   -0.2090   -2.3640    1.4330 H   0  0  0  0  0  0  0  0  0  0  0  0
   -0.8280   -2.1380   -0.1940 H   0  0  0  0  0  0  0  0  0  0  0  0
    1.6690   -2.7690   -0.4670 H   0  0  0  0  0  0  0  0  0  0  0  0
    3.4510    0.1420   -1.1270 H   0  0  0  0  0  0  0  0  0  0  0  0
    3.9210    0.1580    0.5970 H   0  0  0  0  0  0  0  0  0  0  0  0
    4.9310   -1.5320   -0.6680 H   0  0  0  0  0  0  0  0  0  0  0  0
    0.7640    3.4720    0.8780 H   0  0  0  0  0  0  0  0  0  0  0  0
   -1.0430    1.7790   -1.9470 H   0  0  0  0  0  0  0  0  0  0  0  0
   -4.4580   -1.7970    1.3080 H   0  0  0  0  0  0  0  0  0  0  0  0
   -4.9840   -0.3470    0.3840 H   0  0  0  0  0  0  0  0  0  0  0  0
   -4.4560   -1.8140   -0.4900 H   0  0  0  0  0  0  0  0  0  0  0  0
  2  1  1  1
  2 15  1  0
  2  3  1  0
  2  8  1  0
  3 21  1  0
  3  4  1  0
  3 20  1  0
  4 22  1  0
  4  5  2  0
  5  6  1  0
  5  8  1  0
  6 23  1  0
  6  7  1  0
  6 24  1  0
  7 25  1  0
  8 10  1  0
  8  9  1  1
 10 13  1  0
 10 11  1  6
 10 12  1  0
 12 26  1  0
 13 14  1  0
 14 27  1  0
 14 15  2  0
 15 16  1  0
 16 17  2  0
 16 18  1  0
 18 19  1  0
 19 30  1  0
 19 29  1  0
 19 28  1  0
M  END
>  <id>  (456) 
560

>  <scaffolds>  (456) 
['C1=CC2COC=CC2C1']

>  <name>  (456) 
Genipin

>  <formula>  (456) 
C11H14O5

>  <SMILES>  (456) 
[H][C@]12CC=C(CO)[C@@]1([H])[C@H](O)OC=C2C(=O)OC

>  <ChEMBL_id>  (456) 


>  <ZINC_id>  (456) 


>  <PubChem_id>  (456) 


>  <DrugBank_id>  (456) 


>  <CAS_no>  (456) 
6902-77-8

>  <references>  (456) 
[{'journal': {'name': 'Journal of Natural Products', 'id': 5}, 'title': 'Iridoid Molluscicidal Compounds from Apodytes dimidiata', 'year': 1996, 'start_page': 1169, 'volume': 59, 'issue': None, 'doi': '10.1021/np960404y', 'isbn': '', 'despositor': {'code': 'NFA', 'first_name': 'Ngonidzashe', 'last_name': 'Faya', 'id': 21}, 'refauthors_set': [{'author': {'first_name': 'Siegfried', 'initials': 'SE', 'last_name': 'Drewes', 'id': 613}, 'first_author': True, 'id': 1066}, {'author': {'first_name': 'Louis', 'initials': 'L', 'last_name': 'Kayonga', 'id': 752}, 'first_author': None, 'id': 1164}], 'id': 358}]

>  <classifications>  (456) 
[{'classification': 'Iridoid', 'id': 788}, {'classification': 'Monoterpene', 'id': 795}, {'classification': 'Terpenoid', 'id': 839}, {'classification': 'Phenol lipids (Classyfire)', 'id': 951}]

>  <molecular_mass>  (456) 
226.23

$$$$
SANC00561_minRM1.pdb
     RDKit          3D

 35 36  0  0  1  0  0  0  0  0999 V2000
   -1.8370    0.0520    1.7920 H   0  0  0  0  0  0  0  0  0  0  0  0
   -1.2290   -0.0800    0.8640 C   0  0  1  0  0  0  0  0  0  0  0  0
   -0.7400   -1.5400    0.7020 C   0  0  0  0  0  0  0  0  0  0  0  0
    0.6800   -1.4120    0.2540 C   0  0  0  0  0  0  0  0  0  0  0  0
    1.1240   -0.1580    0.3730 C   0  0  0  0  0  0  0  0  0  0  0  0
    2.4740    0.3680    0.0480 C   0  0  0  0  0  0  0  0  0  0  0  0
    3.3540   -0.7430    0.0750 O   0  0  0  0  0  0  0  0  0  0  0  0
    4.6610   -0.5080   -0.2100 C   0  0  0  0  0  0  0  0  0  0  0  0
    5.4700   -1.7610   -0.1510 C   0  0  0  0  0  0  0  0  0  0  0  0
    5.0440    0.6180   -0.4710 O   0  0  0  0  0  0  0  0  0  0  0  0
    0.0760    0.7470    0.9510 C   0  0  1  0  0  0  0  0  0  0  0  0
    0.3350    0.9480    2.0230 H   0  0  0  0  0  0  0  0  0  0  0  0
   -0.0280    2.0900    0.2220 C   0  0  2  0  0  0  0  0  0  0  0  0
    0.9660    2.5810    0.0350 H   0  0  0  0  0  0  0  0  0  0  0  0
   -0.9110    2.8630    0.9680 O   0  0  0  0  0  0  0  0  0  0  0  0
   -0.5810    1.9940   -1.0710 O   0  0  0  0  0  0  0  0  0  0  0  0
   -1.6930    1.2370   -1.2000 C   0  0  0  0  0  0  0  0  0  0  0  0
   -2.0570    0.2920   -0.3150 C   0  0  0  0  0  0  0  0  0  0  0  0
   -3.3210   -0.4030   -0.5490 C   0  0  0  0  0  0  0  0  0  0  0  0
   -4.0190   -0.3300   -1.5500 O   0  0  0  0  0  0  0  0  0  0  0  0
   -3.7200   -1.1840    0.4910 O   0  0  0  0  0  0  0  0  0  0  0  0
   -4.9490   -1.8590    0.3490 C   0  0  0  0  0  0  0  0  0  0  0  0
   -0.8000   -2.0990    1.6580 H   0  0  0  0  0  0  0  0  0  0  0  0
   -1.3430   -2.1350   -0.0110 H   0  0  0  0  0  0  0  0  0  0  0  0
    1.2380   -2.2730   -0.1050 H   0  0  0  0  0  0  0  0  0  0  0  0
    2.4780    0.8540   -0.9560 H   0  0  0  0  0  0  0  0  0  0  0  0
    2.8000    1.1400    0.7840 H   0  0  0  0  0  0  0  0  0  0  0  0
    5.1200   -2.4990   -0.8890 H   0  0  0  0  0  0  0  0  0  0  0  0
    6.5320   -1.5590   -0.3580 H   0  0  0  0  0  0  0  0  0  0  0  0
    5.4060   -2.2370    0.8390 H   0  0  0  0  0  0  0  0  0  0  0  0
   -0.9410    3.7530    0.5990 H   0  0  0  0  0  0  0  0  0  0  0  0
   -2.2170    1.4940   -2.1310 H   0  0  0  0  0  0  0  0  0  0  0  0
   -5.8000   -1.1710    0.2200 H   0  0  0  0  0  0  0  0  0  0  0  0
   -4.9470   -2.5740   -0.4900 H   0  0  0  0  0  0  0  0  0  0  0  0
   -5.0610   -2.4060    1.2970 H   0  0  0  0  0  0  0  0  0  0  0  0
  2  1  1  1
  2 18  1  0
  2  3  1  0
  2 11  1  0
  3 24  1  0
  3  4  1  0
  3 23  1  0
  4 25  1  0
  4  5  2  0
  5  6  1  0
  5 11  1  0
  6 26  1  0
  6  7  1  0
  6 27  1  0
  7  8  1  0
  8 10  2  0
  8  9  1  0
  9 28  1  0
  9 29  1  0
  9 30  1  0
 11 13  1  0
 11 12  1  1
 13 16  1  0
 13 14  1  6
 13 15  1  0
 15 31  1  0
 16 17  1  0
 17 32  1  0
 17 18  2  0
 18 19  1  0
 19 20  2  0
 19 21  1  0
 21 22  1  0
 22 34  1  0
 22 33  1  0
 22 35  1  0
M  END
>  <id>  (457) 
561

>  <scaffolds>  (457) 
['C1=CC2COC=CC2C1']

>  <name>  (457) 
10-Acetyl genipin

>  <formula>  (457) 
C13H16O6

>  <SMILES>  (457) 
[H][C@]12CC=C(COC(C)=O)[C@@]1([H])[C@H](O)OC=C2C(=O)OC

>  <ChEMBL_id>  (457) 


>  <ZINC_id>  (457) 


>  <PubChem_id>  (457) 


>  <DrugBank_id>  (457) 


>  <CAS_no>  (457) 
62218-51-3

>  <references>  (457) 
[{'journal': {'name': 'Journal of Natural Products', 'id': 5}, 'title': 'Iridoid Molluscicidal Compounds from Apodytes dimidiata', 'year': 1996, 'start_page': 1169, 'volume': 59, 'issue': None, 'doi': '10.1021/np960404y', 'isbn': '', 'despositor': {'code': 'NFA', 'first_name': 'Ngonidzashe', 'last_name': 'Faya', 'id': 21}, 'refauthors_set': [{'author': {'first_name': 'Siegfried', 'initials': 'SE', 'last_name': 'Drewes', 'id': 613}, 'first_author': True, 'id': 1066}, {'author': {'first_name': 'Louis', 'initials': 'L', 'last_name': 'Kayonga', 'id': 752}, 'first_author': None, 'id': 1164}], 'id': 358}]

>  <classifications>  (457) 
[{'classification': 'Iridoid', 'id': 788}, {'classification': 'Monoterpene', 'id': 795}, {'classification': 'Terpenoid', 'id': 839}, {'classification': 'Phenol lipids (Classyfire)', 'id': 951}]

>  <molecular_mass>  (457) 
268.26

$$$$
SANC00562_minRM1.pdb
     RDKit          3D

 50 52  0  0  1  0  0  0  0  0999 V2000
   -3.9780    3.0400    0.8880 O   0  0  0  0  0  0  0  0  0  0  0  0
   -4.8020    2.0170    1.3700 C   0  0  0  0  0  0  0  0  0  0  0  0
   -4.6580    0.8690    0.3500 C   0  0  1  0  0  0  0  0  0  0  0  0
   -4.7900    1.2620   -0.6960 H   0  0  0  0  0  0  0  0  0  0  0  0
   -3.3640    0.3620    0.5650 O   0  0  0  0  0  0  0  0  0  0  0  0
   -3.0170   -0.6390   -0.3590 C   0  0  1  0  0  0  0  0  0  0  0  0
   -3.0980   -0.3170   -1.4370 H   0  0  0  0  0  0  0  0  0  0  0  0
   -1.7090   -0.9920   -0.0000 O   0  0  0  0  0  0  0  0  0  0  0  0
   -0.7100   -0.0980   -0.2840 C   0  0  0  0  0  0  0  0  0  0  0  0
   -0.9240    1.1990   -0.7420 C   0  0  0  0  0  0  0  0  0  0  0  0
    0.2040    1.9870   -0.9760 C   0  0  0  0  0  0  0  0  0  0  0  0
    0.1220    3.2660   -1.4210 O   0  0  0  0  0  0  0  0  0  0  0  0
    1.4990    1.5100   -0.7820 C   0  0  0  0  0  0  0  0  0  0  0  0
    1.6770    0.2110   -0.3090 C   0  0  0  0  0  0  0  0  0  0  0  0
    3.0230   -0.2930   -0.0480 C   0  0  0  0  0  0  0  0  0  0  0  0
    4.1100    0.4720   -0.2240 C   0  0  0  0  0  0  0  0  0  0  0  0
    5.4780    0.0500    0.0310 C   0  0  0  0  0  0  0  0  0  0  0  0
    5.7860   -1.2210    0.5150 C   0  0  0  0  0  0  0  0  0  0  0  0
    7.1060   -1.5950    0.7270 C   0  0  0  0  0  0  0  0  0  0  0  0
    8.1190   -0.6790    0.4480 C   0  0  0  0  0  0  0  0  0  0  0  0
    9.4170   -0.9950    0.7280 O   0  0  0  0  0  0  0  0  0  0  0  0
    7.8340    0.6030   -0.0220 C   0  0  0  0  0  0  0  0  0  0  0  0
    6.5110    0.9590   -0.2260 C   0  0  0  0  0  0  0  0  0  0  0  0
    0.5740   -0.6060   -0.0610 C   0  0  0  0  0  0  0  0  0  0  0  0
   -3.8940   -1.8920   -0.0750 C   0  0  2  0  0  0  0  0  0  0  0  0
   -3.7330   -2.2650    0.9730 H   0  0  0  0  0  0  0  0  0  0  0  0
   -3.6540   -2.8730   -1.0350 O   0  0  0  0  0  0  0  0  0  0  0  0
   -5.3700   -1.4660   -0.2830 C   0  0  1  0  0  0  0  0  0  0  0  0
   -5.5540   -1.1920   -1.3590 H   0  0  0  0  0  0  0  0  0  0  0  0
   -6.2310   -2.4760    0.1390 O   0  0  0  0  0  0  0  0  0  0  0  0
   -5.6810   -0.2590    0.6420 C   0  0  2  0  0  0  0  0  0  0  0  0
   -5.6240   -0.5720    1.7200 H   0  0  0  0  0  0  0  0  0  0  0  0
   -6.9240    0.2820    0.3190 O   0  0  0  0  0  0  0  0  0  0  0  0
   -3.8340    3.6560    1.6090 H   0  0  0  0  0  0  0  0  0  0  0  0
   -4.5250    1.6810    2.3960 H   0  0  0  0  0  0  0  0  0  0  0  0
   -5.8640    2.3510    1.4240 H   0  0  0  0  0  0  0  0  0  0  0  0
   -1.9170    1.6280   -0.8910 H   0  0  0  0  0  0  0  0  0  0  0  0
   -0.7950    3.5660   -1.3200 H   0  0  0  0  0  0  0  0  0  0  0  0
    2.3570    2.1580   -0.9920 H   0  0  0  0  0  0  0  0  0  0  0  0
    3.0970   -1.3270    0.3060 H   0  0  0  0  0  0  0  0  0  0  0  0
    3.9960    1.5030   -0.5920 H   0  0  0  0  0  0  0  0  0  0  0  0
    4.9880   -1.9380    0.7360 H   0  0  0  0  0  0  0  0  0  0  0  0
    7.3510   -2.5880    1.1130 H   0  0  0  0  0  0  0  0  0  0  0  0
    9.7280   -1.5140   -0.0240 H   0  0  0  0  0  0  0  0  0  0  0  0
    8.6430    1.3130   -0.2140 H   0  0  0  0  0  0  0  0  0  0  0  0
    6.2830    1.9640   -0.5960 H   0  0  0  0  0  0  0  0  0  0  0  0
    0.7020   -1.6260    0.3110 H   0  0  0  0  0  0  0  0  0  0  0  0
   -2.7740   -3.2290   -0.8700 H   0  0  0  0  0  0  0  0  0  0  0  0
   -6.1140   -3.2300   -0.4470 H   0  0  0  0  0  0  0  0  0  0  0  0
   -7.5920   -0.3830    0.5170 H   0  0  0  0  0  0  0  0  0  0  0  0
  1  2  1  0
  1 34  1  0
  2  3  1  0
  2 36  1  0
  2 35  1  0
  3  4  1  6
  3  5  1  0
  3 31  1  0
  5  6  1  0
  6  7  1  6
  6 25  1  0
  6  8  1  0
  8  9  1  0
  9 10  2  0
  9 24  1  0
 10 11  1  0
 10 37  1  0
 11 12  1  0
 11 13  2  0
 12 38  1  0
 13 39  1  0
 13 14  1  0
 14 24  2  0
 14 15  1  0
 15 16  2  0
 15 40  1  0
 16 41  1  0
 16 17  1  0
 17 23  2  0
 17 18  1  0
 18 19  2  0
 18 42  1  0
 19 20  1  0
 19 43  1  0
 20 22  2  0
 20 21  1  0
 21 44  1  0
 22 23  1  0
 22 45  1  0
 23 46  1  0
 24 47  1  0
 25 27  1  0
 25 28  1  0
 25 26  1  1
 27 48  1  0
 28 29  1  6
 28 30  1  0
 28 31  1  0
 30 49  1  0
 31 33  1  0
 31 32  1  1
 33 50  1  0
M  END
>  <id>  (458) 
562

>  <scaffolds>  (458) 
['c1ccccc1', 'C(=Cc1ccccc1)c1ccccc1', 'C1CCOCC1', 'c1ccc(OC2CCCCO2)cc1', 'C(=Cc1cccc(OC2CCCCO2)c1)c1ccccc1']

>  <name>  (458) 
Resveratrol 3-O-[beta]-D-glucopyranoside

>  <formula>  (458) 
C20H22O8

>  <SMILES>  (458) 
OC[C@H]3O[C@@H](Oc2cc(O)cc(/C=C/c1ccc(O)cc1)c2)[C@H](O)[C@@H](O)[C@@H]3O

>  <ChEMBL_id>  (458) 


>  <ZINC_id>  (458) 


>  <PubChem_id>  (458) 


>  <DrugBank_id>  (458) 


>  <CAS_no>  (458) 
27208-80-6

>  <references>  (458) 
[{'journal': {'name': 'Journal of Natural Products', 'id': 5}, 'title': 'Isolation, Synthesis, and Antiplatelet Aggregation Activity of Resveratrol 3-O-[beta]-D-Glucopyranoside and Related Compounds', 'year': 1997, 'start_page': 1082, 'volume': 60, 'issue': 11, 'doi': '10.1021/np970069t', 'isbn': '', 'despositor': {'code': 'NFA', 'first_name': 'Ngonidzashe', 'last_name': 'Faya', 'id': 21}, 'refauthors_set': [{'author': {'first_name': 'Fulvia', 'initials': 'F', 'last_name': 'Orsini', 'id': 753}, 'first_author': True, 'id': 1165}, {'author': {'first_name': 'Francesca', 'initials': 'F', 'last_name': 'Pelizzoni', 'id': 754}, 'first_author': None, 'id': 1166}, {'author': {'first_name': 'Luisella', 'initials': 'L', 'last_name': 'Verotta', 'id': 755}, 'first_author': None, 'id': 1167}, {'author': {'first_name': 'Talal', 'initials': 'T', 'last_name': 'Aburjai', 'id': 756}, 'first_author': None, 'id': 1168}], 'id': 359}]

>  <classifications>  (458) 
[{'classification': 'Glycoside', 'id': 781}, {'classification': 'Stilbenoid', 'id': 837}, {'classification': 'Stilbenes (Classyfire)', 'id': 988}]

>  <molecular_mass>  (458) 
390.38

$$$$
SANC00563_minRM1.pdb
     RDKit          3D

 35 36  0  0  1  0  0  0  0  0999 V2000
   -0.1130   -2.7070   -2.3680 C   0  0  0  0  0  0  0  0  0  0  0  0
   -0.7540   -2.4750   -1.2300 C   0  0  0  0  0  0  0  0  0  0  0  0
   -0.4590   -1.2810   -0.3690 C   0  0  2  0  0  0  0  0  0  0  0  0
    0.3430   -0.6630   -0.8530 H   0  0  0  0  0  0  0  0  0  0  0  0
   -0.0030   -1.7580    0.9760 C   0  0  0  0  0  0  0  0  0  0  0  0
    1.1340   -1.3900    1.5600 C   0  0  0  0  0  0  0  0  0  0  0  0
    2.0880   -0.4410    0.9940 C   0  0  0  0  0  0  0  0  0  0  0  0
    1.7260    0.8850    0.7820 C   0  0  0  0  0  0  0  0  0  0  0  0
    2.6470    1.7930    0.2760 C   0  0  0  0  0  0  0  0  0  0  0  0
    3.9380    1.3510   -0.0080 C   0  0  0  0  0  0  0  0  0  0  0  0
    4.9100    2.1570   -0.5030 O   0  0  0  0  0  0  0  0  0  0  0  0
    4.3190    0.0230    0.2030 C   0  0  0  0  0  0  0  0  0  0  0  0
    3.3840   -0.8660    0.7070 C   0  0  0  0  0  0  0  0  0  0  0  0
   -1.7060   -0.4570   -0.2050 C   0  0  0  0  0  0  0  0  0  0  0  0
   -2.8480   -1.0130    0.3660 C   0  0  0  0  0  0  0  0  0  0  0  0
   -3.9970   -0.2520    0.5350 C   0  0  0  0  0  0  0  0  0  0  0  0
   -3.9900    1.0760    0.1120 C   0  0  0  0  0  0  0  0  0  0  0  0
   -5.1610    1.7680    0.2060 O   0  0  0  0  0  0  0  0  0  0  0  0
   -2.8560    1.6520   -0.4600 C   0  0  0  0  0  0  0  0  0  0  0  0
   -1.7180    0.8740   -0.6170 C   0  0  0  0  0  0  0  0  0  0  0  0
    0.6460   -2.0540   -2.7930 H   0  0  0  0  0  0  0  0  0  0  0  0
   -0.2970   -3.5850   -2.9820 H   0  0  0  0  0  0  0  0  0  0  0  0
   -1.5250   -3.1620   -0.8670 H   0  0  0  0  0  0  0  0  0  0  0  0
   -0.6640   -2.4680    1.4820 H   0  0  0  0  0  0  0  0  0  0  0  0
    1.4210   -1.8000    2.5340 H   0  0  0  0  0  0  0  0  0  0  0  0
    0.7080    1.2160    1.0190 H   0  0  0  0  0  0  0  0  0  0  0  0
    2.3540    2.8330    0.1140 H   0  0  0  0  0  0  0  0  0  0  0  0
    4.5590    3.0530   -0.5910 H   0  0  0  0  0  0  0  0  0  0  0  0
    5.3370   -0.2980   -0.0240 H   0  0  0  0  0  0  0  0  0  0  0  0
    3.6640   -1.9110    0.8760 H   0  0  0  0  0  0  0  0  0  0  0  0
   -2.8610   -2.0570    0.6950 H   0  0  0  0  0  0  0  0  0  0  0  0
   -4.8960   -0.6840    0.9860 H   0  0  0  0  0  0  0  0  0  0  0  0
   -4.9760    2.5520    0.7520 H   0  0  0  0  0  0  0  0  0  0  0  0
   -2.8680    2.6950   -0.7860 H   0  0  0  0  0  0  0  0  0  0  0  0
   -0.8290    1.3210   -1.0730 H   0  0  0  0  0  0  0  0  0  0  0  0
  1 22  1  0
  1 21  1  0
  1  2  2  0
  2 23  1  0
  2  3  1  0
  3  4  1  6
  3 14  1  0
  3  5  1  0
  5 24  1  0
  5  6  2  0
  6  7  1  0
  6 25  1  0
  7 13  2  0
  7  8  1  0
  8  9  2  0
  8 26  1  0
  9 10  1  0
  9 27  1  0
 10 11  1  0
 10 12  2  0
 11 28  1  0
 12 29  1  0
 12 13  1  0
 13 30  1  0
 14 20  2  0
 14 15  1  0
 15 16  2  0
 15 31  1  0
 16 17  1  0
 16 32  1  0
 17 19  2  0
 17 18  1  0
 18 33  1  0
 19 34  1  0
 19 20  1  0
 20 35  1  0
M  END
>  <id>  (459) 
563

>  <scaffolds>  (459) 
['c1ccccc1', 'C(=Cc1ccccc1)Cc1ccccc1']

>  <name>  (459) 
(-)-Nyasol

>  <formula>  (459) 
C17H16O2

>  <SMILES>  (459) 
C=C[C@H](/C=C\c1ccc(O)cc1)c2ccc(O)cc2

>  <ChEMBL_id>  (459) 
CHEMBL451713

>  <ZINC_id>  (459) 
ZINC14439508

>  <PubChem_id>  (459) 
 6915833

>  <DrugBank_id>  (459) 


>  <CAS_no>  (459) 
96895-25-9

>  <references>  (459) 
[{'journal': {'name': 'Biochemical Systematics and Ecology', 'id': 24}, 'title': 'Norlignans and homoisoflavanones from two South African Drimiopsis species (Hyacinthaceae: Hyacinthoideae)', 'year': 2006, 'start_page': 588, 'volume': 34, 'issue': None, 'doi': '10.1016/j.bse.2005.12.011', 'isbn': '', 'despositor': {'code': 'rah', 'first_name': 'Rowan', 'last_name': 'Hatherley', 'id': 20}, 'refauthors_set': [{'author': {'first_name': 'Chantal', 'initials': 'C', 'last_name': 'Koorbanally', 'id': 523}, 'first_author': True, 'id': 1067}, {'author': {'first_name': 'Dulcie', 'initials': 'DA', 'last_name': 'Mulholland', 'id': 525}, 'first_author': None, 'id': 1068}, {'author': {'first_name': 'Neil', 'initials': 'NR', 'last_name': 'Crouch', 'id': 524}, 'first_author': None, 'id': 1069}], 'id': 360}]

>  <classifications>  (459) 
[{'classification': 'Norlignan', 'id': 799}]

>  <molecular_mass>  (459) 
252.31

$$$$
SANC00564_minRM1.pdb
     RDKit          3D

 35 36  0  0  1  0  0  0  0  0999 V2000
    1.7640    3.8030   -0.5730 C   0  0  0  0  0  0  0  0  0  0  0  0
    1.5240    2.5390   -0.8950 C   0  0  0  0  0  0  0  0  0  0  0  0
    1.2160    1.4870    0.1320 C   0  0  1  0  0  0  0  0  0  0  0  0
   -0.1150    0.8770   -0.1920 C   0  0  0  0  0  0  0  0  0  0  0  0
   -1.1220    0.8670    0.6830 C   0  0  0  0  0  0  0  0  0  0  0  0
   -2.4230    0.2760    0.4010 C   0  0  0  0  0  0  0  0  0  0  0  0
   -2.6650   -0.4380   -0.7720 C   0  0  0  0  0  0  0  0  0  0  0  0
   -3.9020   -1.0200   -1.0070 C   0  0  0  0  0  0  0  0  0  0  0  0
   -4.9040   -0.8780   -0.0490 C   0  0  0  0  0  0  0  0  0  0  0  0
   -6.1600   -1.3730   -0.2220 O   0  0  0  0  0  0  0  0  0  0  0  0
   -4.6920   -0.1540    1.1270 C   0  0  0  0  0  0  0  0  0  0  0  0
   -3.4500    0.4200    1.3390 C   0  0  0  0  0  0  0  0  0  0  0  0
    2.2770    0.4240    0.1010 C   0  0  0  0  0  0  0  0  0  0  0  0
    2.5130   -0.3030   -1.0620 C   0  0  0  0  0  0  0  0  0  0  0  0
    3.5030   -1.2760   -1.0980 C   0  0  0  0  0  0  0  0  0  0  0  0
    4.2560   -1.5130    0.0510 C   0  0  0  0  0  0  0  0  0  0  0  0
    5.1590   -2.5340    0.0270 O   0  0  0  0  0  0  0  0  0  0  0  0
    4.0320   -0.7960    1.2250 C   0  0  0  0  0  0  0  0  0  0  0  0
    3.0400    0.1730    1.2410 C   0  0  0  0  0  0  0  0  0  0  0  0
    1.7690    4.1890    0.4430 H   0  0  0  0  0  0  0  0  0  0  0  0
    1.9900    4.5690   -1.3080 H   0  0  0  0  0  0  0  0  0  0  0  0
    1.5470    2.2100   -1.9380 H   0  0  0  0  0  0  0  0  0  0  0  0
    1.1840    1.9580    1.1500 H   0  0  0  0  0  0  0  0  0  0  0  0
   -0.2110    0.4350   -1.1900 H   0  0  0  0  0  0  0  0  0  0  0  0
   -1.0040    1.3070    1.6810 H   0  0  0  0  0  0  0  0  0  0  0  0
   -1.8710   -0.5550   -1.5190 H   0  0  0  0  0  0  0  0  0  0  0  0
   -4.0820   -1.5780   -1.9300 H   0  0  0  0  0  0  0  0  0  0  0  0
   -6.0660   -2.2360   -0.6920 H   0  0  0  0  0  0  0  0  0  0  0  0
   -5.5010   -0.0310    1.8520 H   0  0  0  0  0  0  0  0  0  0  0  0
   -3.2820    0.9890    2.2600 H   0  0  0  0  0  0  0  0  0  0  0  0
    1.9320   -0.1140   -1.9690 H   0  0  0  0  0  0  0  0  0  0  0  0
    3.6870   -1.8570   -2.0060 H   0  0  0  0  0  0  0  0  0  0  0  0
    6.0320   -2.1140    0.0130 H   0  0  0  0  0  0  0  0  0  0  0  0
    4.6240   -1.0060    2.1210 H   0  0  0  0  0  0  0  0  0  0  0  0
    2.8640    0.7380    2.1620 H   0  0  0  0  0  0  0  0  0  0  0  0
  1 21  1  0
  1  2  2  0
  1 20  1  0
  2 22  1  0
  2  3  1  0
  3  4  1  0
  3 13  1  0
  3 23  1  1
  4 24  1  0
  4  5  2  0
  5  6  1  0
  5 25  1  0
  6  7  2  0
  6 12  1  0
  7 26  1  0
  7  8  1  0
  8 27  1  0
  8  9  2  0
  9 10  1  0
  9 11  1  0
 10 28  1  0
 11 12  2  0
 11 29  1  0
 12 30  1  0
 13 14  2  0
 13 19  1  0
 14 31  1  0
 14 15  1  0
 15 32  1  0
 15 16  2  0
 16 17  1  0
 16 18  1  0
 17 33  1  0
 18 19  2  0
 18 34  1  0
 19 35  1  0
M  END
>  <id>  (460) 
564

>  <scaffolds>  (460) 
['c1ccccc1', 'C(=Cc1ccccc1)Cc1ccccc1']

>  <name>  (460) 
(-)-(E)-1,3-bis(4-hydroxyphenyl)-1,4-pentadiene

>  <formula>  (460) 
C17H16O2

>  <SMILES>  (460) 
C=CC(/C=C/c1ccc(O)cc1)c2ccc(O)cc2

>  <ChEMBL_id>  (460) 


>  <ZINC_id>  (460) 


>  <PubChem_id>  (460) 


>  <DrugBank_id>  (460) 


>  <CAS_no>  (460) 
175520-27-1

>  <references>  (460) 
[{'journal': {'name': 'Biochemical Systematics and Ecology', 'id': 24}, 'title': 'Norlignans and homoisoflavanones from two South African Drimiopsis species (Hyacinthaceae: Hyacinthoideae)', 'year': 2006, 'start_page': 588, 'volume': 34, 'issue': None, 'doi': '10.1016/j.bse.2005.12.011', 'isbn': '', 'despositor': {'code': 'rah', 'first_name': 'Rowan', 'last_name': 'Hatherley', 'id': 20}, 'refauthors_set': [{'author': {'first_name': 'Chantal', 'initials': 'C', 'last_name': 'Koorbanally', 'id': 523}, 'first_author': True, 'id': 1067}, {'author': {'first_name': 'Dulcie', 'initials': 'DA', 'last_name': 'Mulholland', 'id': 525}, 'first_author': None, 'id': 1068}, {'author': {'first_name': 'Neil', 'initials': 'NR', 'last_name': 'Crouch', 'id': 524}, 'first_author': None, 'id': 1069}], 'id': 360}]

>  <classifications>  (460) 
[{'classification': 'Norlignan', 'id': 799}]

>  <molecular_mass>  (460) 
252.31

$$$$
SANC00565_minRM1.pdb
     RDKit          3D

 41 43  0  0  1  0  0  0  0  0999 V2000
    5.5850   -1.2650   -1.2510 C   0  0  0  0  0  0  0  0  0  0  0  0
    4.8950   -0.0420   -1.1960 O   0  0  0  0  0  0  0  0  0  0  0  0
    3.6750   -0.0190   -0.6000 C   0  0  0  0  0  0  0  0  0  0  0  0
    3.0370   -1.1320   -0.0500 C   0  0  0  0  0  0  0  0  0  0  0  0
    1.7800   -0.9470    0.5280 C   0  0  0  0  0  0  0  0  0  0  0  0
    1.0340   -1.9430    1.0640 O   0  0  0  0  0  0  0  0  0  0  0  0
    1.6080   -3.2220    1.1710 C   0  0  0  0  0  0  0  0  0  0  0  0
    1.1580    0.3120    0.5680 C   0  0  0  0  0  0  0  0  0  0  0  0
   -0.1610    0.5150    1.1630 C   0  0  0  0  0  0  0  0  0  0  0  0
   -0.7120   -0.2890    1.8890 O   0  0  0  0  0  0  0  0  0  0  0  0
   -0.8060    1.8380    0.8040 C   0  0  2  0  0  0  0  0  0  0  0  0
   -1.6090    2.0950    1.5410 H   0  0  0  0  0  0  0  0  0  0  0  0
   -1.4210    1.7260   -0.5940 C   0  0  0  0  0  0  0  0  0  0  0  0
   -2.5570    0.7590   -0.5540 C   0  0  0  0  0  0  0  0  0  0  0  0
   -2.3110   -0.6030   -0.6910 C   0  0  0  0  0  0  0  0  0  0  0  0
   -3.3560   -1.5150   -0.6310 C   0  0  0  0  0  0  0  0  0  0  0  0
   -4.6510   -1.0410   -0.4230 C   0  0  0  0  0  0  0  0  0  0  0  0
   -5.7380   -1.8530   -0.3600 O   0  0  0  0  0  0  0  0  0  0  0  0
   -4.9170    0.3240   -0.2880 C   0  0  0  0  0  0  0  0  0  0  0  0
   -3.8580    1.2150   -0.3540 C   0  0  0  0  0  0  0  0  0  0  0  0
    0.2760    2.9140    0.8570 C   0  0  0  0  0  0  0  0  0  0  0  0
    1.3350    2.6500   -0.0360 O   0  0  0  0  0  0  0  0  0  0  0  0
    1.8480    1.3930    0.0050 C   0  0  0  0  0  0  0  0  0  0  0  0
    3.1010    1.2570   -0.5850 C   0  0  0  0  0  0  0  0  0  0  0  0
    6.5240   -1.0020   -1.7630 H   0  0  0  0  0  0  0  0  0  0  0  0
    5.8270   -1.6740   -0.2560 H   0  0  0  0  0  0  0  0  0  0  0  0
    5.0640   -2.0330   -1.8450 H   0  0  0  0  0  0  0  0  0  0  0  0
    3.5030   -2.1150   -0.0760 H   0  0  0  0  0  0  0  0  0  0  0  0
    0.8240   -3.8000    1.6870 H   0  0  0  0  0  0  0  0  0  0  0  0
    1.8070   -3.6910    0.1930 H   0  0  0  0  0  0  0  0  0  0  0  0
    2.5250   -3.2430    1.7820 H   0  0  0  0  0  0  0  0  0  0  0  0
   -1.7560    2.7260   -0.9450 H   0  0  0  0  0  0  0  0  0  0  0  0
   -0.6590    1.4200   -1.3420 H   0  0  0  0  0  0  0  0  0  0  0  0
   -1.2900   -0.9690   -0.8450 H   0  0  0  0  0  0  0  0  0  0  0  0
   -3.1530   -2.5830   -0.7350 H   0  0  0  0  0  0  0  0  0  0  0  0
   -5.4350   -2.7640   -0.2700 H   0  0  0  0  0  0  0  0  0  0  0  0
   -5.9400    0.6750   -0.1310 H   0  0  0  0  0  0  0  0  0  0  0  0
   -4.0540    2.2860   -0.2430 H   0  0  0  0  0  0  0  0  0  0  0  0
   -0.0890    3.9090    0.5270 H   0  0  0  0  0  0  0  0  0  0  0  0
    0.6700    3.0360    1.8910 H   0  0  0  0  0  0  0  0  0  0  0  0
    3.6180    2.1160   -1.0200 H   0  0  0  0  0  0  0  0  0  0  0  0
  1 27  1  0
  1 25  1  0
  1  2  1  0
  1 26  1  0
  2  3  1  0
  3 24  2  0
  3  4  1  0
  4 28  1  0
  4  5  2  0
  5  8  1  0
  5  6  1  0
  6  7  1  0
  7 30  1  0
  7 29  1  0
  7 31  1  0
  8 23  2  0
  8  9  1  0
  9 11  1  0
  9 10  2  0
 11 13  1  0
 11 21  1  0
 11 12  1  1
 13 33  1  0
 13 32  1  0
 13 14  1  0
 14 15  2  0
 14 20  1  0
 15 34  1  0
 15 16  1  0
 16 35  1  0
 16 17  2  0
 17 18  1  0
 17 19  1  0
 18 36  1  0
 19 20  2  0
 19 37  1  0
 20 38  1  0
 21 22  1  0
 21 39  1  0
 21 40  1  0
 22 23  1  0
 23 24  1  0
 24 41  1  0
M  END
>  <id>  (461) 
565

>  <scaffolds>  (461) 
['c1ccccc1', 'O=C1c2ccccc2OCC1Cc1ccccc1', 'O=C(CCc1ccccc1)c1ccccc1']

>  <name>  (461) 
5,7-dimethoxy-3-(4-hydroxybenzyl)-4-chromanone

>  <formula>  (461) 
C18H18O5

>  <SMILES>  (461) 
COc3cc(OC)c2C(=O)[C@H](Cc1ccc(O)cc1)COc2c3

>  <ChEMBL_id>  (461) 


>  <ZINC_id>  (461) 


>  <PubChem_id>  (461) 


>  <DrugBank_id>  (461) 


>  <CAS_no>  (461) 
916225-81-5

>  <references>  (461) 
[{'journal': {'name': 'Biochemical Systematics and Ecology', 'id': 24}, 'title': 'Norlignans and homoisoflavanones from two South African Drimiopsis species (Hyacinthaceae: Hyacinthoideae)', 'year': 2006, 'start_page': 588, 'volume': 34, 'issue': None, 'doi': '10.1016/j.bse.2005.12.011', 'isbn': '', 'despositor': {'code': 'rah', 'first_name': 'Rowan', 'last_name': 'Hatherley', 'id': 20}, 'refauthors_set': [{'author': {'first_name': 'Chantal', 'initials': 'C', 'last_name': 'Koorbanally', 'id': 523}, 'first_author': True, 'id': 1067}, {'author': {'first_name': 'Dulcie', 'initials': 'DA', 'last_name': 'Mulholland', 'id': 525}, 'first_author': None, 'id': 1068}, {'author': {'first_name': 'Neil', 'initials': 'NR', 'last_name': 'Crouch', 'id': 524}, 'first_author': None, 'id': 1069}], 'id': 360}, {'journal': {'name': 'Bioorganic & Medicinal Chemistry', 'id': 34}, 'title': 'Anti-inflammatory activity and QSAR studies of compounds isolated from Hyacinthaceae species and Tachiadenus longiflorus Griseb. (Gentianaceae)', 'year': 2005, 'start_page': 2561, 'volume': 13, 'issue': 7, 'doi': '10.1016/j.bmc.2005.01.036', 'isbn': '', 'despositor': {'code': 'rah', 'first_name': 'Rowan', 'last_name': 'Hatherley', 'id': 20}, 'refauthors_set': [{'author': {'first_name': 'Karen', 'initials': 'K', 'last_name': 'Du Toit', 'id': 713}, 'first_author': True, 'id': 1075}, {'author': {'first_name': 'Esameldin', 'initials': 'EE', 'last_name': 'Elgorashi', 'id': 594}, 'first_author': None, 'id': 1076}, {'author': {'first_name': 'Sarel', 'initials': 'SF', 'last_name': 'Malan', 'id': 759}, 'first_author': None, 'id': 1077}, {'author': {'first_name': 'Siegfried', 'initials': 'SE', 'last_name': 'Drewes', 'id': 613}, 'first_author': None, 'id': 1078}, {'author': {'first_name': 'Johannes', 'initials': 'J', 'last_name': 'Van Staden', 'id': 489}, 'first_author': None, 'id': 1079}, {'author': {'first_name': 'Neil', 'initials': 'NR', 'last_name': 'Crouch', 'id': 524}, 'first_author': None, 'id': 1080}, {'author': {'first_name': 'Dulcie', 'initials': 'DA', 'last_name': 'Mulholland', 'id': 525}, 'first_author': None, 'id': 1081}], 'id': 362}, {'journal': {'name': 'Phytochemistry', 'id': 10}, 'title': 'Homoisoflavanones and stilbenoids from Scilla nervosa', 'year': 1999, 'start_page': 947, 'volume': 51, 'issue': 7, 'doi': '10.1016/S0031-9422(99)00155-7', 'isbn': '', 'despositor': {'code': 'rah', 'first_name': 'Rowan', 'last_name': 'Hatherley', 'id': 20}, 'refauthors_set': [{'author': {'first_name': 'Vuyisile', 'initials': 'V', 'last_name': 'Bangani', 'id': 802}, 'first_author': True, 'id': 1283}, {'author': {'first_name': 'Neil', 'initials': 'NR', 'last_name': 'Crouch', 'id': 524}, 'first_author': None, 'id': 1284}, {'author': {'first_name': 'Dulcie', 'initials': 'DA', 'last_name': 'Mulholland', 'id': 525}, 'first_author': None, 'id': 1285}], 'id': 372}]

>  <classifications>  (461) 
[{'classification': 'Flavonoids', 'id': 776}, {'classification': 'Homoisoflavonoid', 'id': 783}, {'classification': 'Homoisoflavonoids (Classyfire)', 'id': 964}]

>  <molecular_mass>  (461) 
314.33

$$$$
SANC00566_minRM1.pdb
     RDKit          3D

 50 52  0  0  1  0  0  0  0  0999 V2000
   -4.8810    3.4280   -0.6260 C   0  0  0  0  0  0  0  0  0  0  0  0
   -5.0800    2.0380   -0.6260 O   0  0  0  0  0  0  0  0  0  0  0  0
   -3.9610    1.2610   -0.6840 C   0  0  0  0  0  0  0  0  0  0  0  0
   -2.6800    1.6960   -0.9780 C   0  0  0  0  0  0  0  0  0  0  0  0
   -1.6410    0.7670   -1.0400 C   0  0  0  0  0  0  0  0  0  0  0  0
   -1.8830   -0.5780   -0.8180 C   0  0  0  0  0  0  0  0  0  0  0  0
   -0.7650   -1.5630   -0.9050 C   0  0  0  0  0  0  0  0  0  0  0  0
   -0.1880   -1.8280    0.4990 C   0  0  1  0  0  0  0  0  0  0  0  0
   -1.1660   -2.5190    1.2090 O   0  0  0  0  0  0  0  0  0  0  0  0
    1.0710   -2.7240    0.4250 C   0  0  0  0  0  0  0  0  0  0  0  0
    2.1020   -2.1180   -0.3230 O   0  0  0  0  0  0  0  0  0  0  0  0
    2.4360   -0.8620    0.0670 C   0  0  0  0  0  0  0  0  0  0  0  0
    3.6910   -0.4000   -0.3060 C   0  0  0  0  0  0  0  0  0  0  0  0
    4.5940   -1.2400   -0.8890 O   0  0  0  0  0  0  0  0  0  0  0  0
    4.5540   -1.1630   -2.2970 C   0  0  0  0  0  0  0  0  0  0  0  0
    4.0690    0.9200    0.0280 C   0  0  0  0  0  0  0  0  0  0  0  0
    5.2920    1.2600   -0.4390 O   0  0  0  0  0  0  0  0  0  0  0  0
    5.7810    2.5410   -0.1160 C   0  0  0  0  0  0  0  0  0  0  0  0
    3.2300    1.7470    0.7660 C   0  0  0  0  0  0  0  0  0  0  0  0
    1.9750    1.2500    1.1460 C   0  0  0  0  0  0  0  0  0  0  0  0
    1.2100    2.0820    1.8620 O   0  0  0  0  0  0  0  0  0  0  0  0
    1.5500   -0.0390    0.7780 C   0  0  0  0  0  0  0  0  0  0  0  0
    0.2260   -0.5040    1.1180 C   0  0  0  0  0  0  0  0  0  0  0  0
   -0.5100    0.1410    1.8580 O   0  0  0  0  0  0  0  0  0  0  0  0
   -3.1700   -1.0300   -0.5110 C   0  0  0  0  0  0  0  0  0  0  0  0
   -4.2060   -0.1140   -0.4390 C   0  0  0  0  0  0  0  0  0  0  0  0
   -5.5110   -0.3930   -0.1600 O   0  0  0  0  0  0  0  0  0  0  0  0
   -5.8180   -1.7230    0.1900 C   0  0  0  0  0  0  0  0  0  0  0  0
   -4.2170    3.7830    0.1820 H   0  0  0  0  0  0  0  0  0  0  0  0
   -4.5100    3.8090   -1.5890 H   0  0  0  0  0  0  0  0  0  0  0  0
   -5.8890    3.8310   -0.4600 H   0  0  0  0  0  0  0  0  0  0  0  0
   -2.4510    2.7490   -1.1610 H   0  0  0  0  0  0  0  0  0  0  0  0
   -0.6320    1.1210   -1.2730 H   0  0  0  0  0  0  0  0  0  0  0  0
   -1.1070   -2.5190   -1.3570 H   0  0  0  0  0  0  0  0  0  0  0  0
    0.0390   -1.2080   -1.5840 H   0  0  0  0  0  0  0  0  0  0  0  0
   -1.1300   -2.2540    2.1330 H   0  0  0  0  0  0  0  0  0  0  0  0
    1.4290   -3.0010    1.4420 H   0  0  0  0  0  0  0  0  0  0  0  0
    0.8800   -3.6700   -0.1240 H   0  0  0  0  0  0  0  0  0  0  0  0
    5.3270   -1.8710   -2.6260 H   0  0  0  0  0  0  0  0  0  0  0  0
    3.5820   -1.4740   -2.7140 H   0  0  0  0  0  0  0  0  0  0  0  0
    4.7990   -0.1590   -2.6820 H   0  0  0  0  0  0  0  0  0  0  0  0
    5.1750    3.3550   -0.5500 H   0  0  0  0  0  0  0  0  0  0  0  0
    5.8930    2.7050    0.9680 H   0  0  0  0  0  0  0  0  0  0  0  0
    6.7810    2.5530   -0.5760 H   0  0  0  0  0  0  0  0  0  0  0  0
    3.5060    2.7600    1.0670 H   0  0  0  0  0  0  0  0  0  0  0  0
    0.3470    1.6600    2.0940 H   0  0  0  0  0  0  0  0  0  0  0  0
   -3.3230   -2.0970   -0.3230 H   0  0  0  0  0  0  0  0  0  0  0  0
   -6.8940   -1.6880    0.4240 H   0  0  0  0  0  0  0  0  0  0  0  0
   -5.6640   -2.4350   -0.6430 H   0  0  0  0  0  0  0  0  0  0  0  0
   -5.2770   -2.0860    1.0810 H   0  0  0  0  0  0  0  0  0  0  0  0
  1 30  1  0
  1  2  1  0
  1 31  1  0
  1 29  1  0
  2  3  1  0
  3  4  2  0
  3 26  1  0
  4 32  1  0
  4  5  1  0
  5 33  1  0
  5  6  2  0
  6  7  1  0
  6 25  1  0
  7 35  1  0
  7 34  1  0
  7  8  1  0
  8 10  1  0
  8 23  1  0
  8  9  1  1
  9 36  1  0
 10 11  1  0
 10 38  1  0
 10 37  1  0
 11 12  1  0
 12 13  2  0
 12 22  1  0
 13 14  1  0
 13 16  1  0
 14 15  1  0
 15 40  1  0
 15 41  1  0
 15 39  1  0
 16 17  1  0
 16 19  2  0
 17 18  1  0
 18 44  1  0
 18 42  1  0
 18 43  1  0
 19 45  1  0
 19 20  1  0
 20 22  2  0
 20 21  1  0
 21 46  1  0
 22 23  1  0
 23 24  2  0
 25 26  2  0
 25 47  1  0
 26 27  1  0
 27 28  1  0
 28 49  1  0
 28 48  1  0
 28 50  1  0
M  END
>  <id>  (462) 
566

>  <scaffolds>  (462) 
['c1ccccc1', 'O=C1c2ccccc2OCC1Cc1ccccc1', 'O=C(CCc1ccccc1)c1ccccc1']

>  <name>  (462) 
3,5-dihydroxy-7,8-dimethoxy-3-(3',4'-dimethoxybenzyl)-4-chromanone

>  <formula>  (462) 
C20H22O8

>  <SMILES>  (462) 
COc3ccc(CC2(O)COc1c(OC)c(OC)cc(O)c1C2=O)cc3OC

>  <ChEMBL_id>  (462) 


>  <ZINC_id>  (462) 


>  <PubChem_id>  (462) 


>  <DrugBank_id>  (462) 


>  <CAS_no>  (462) 
1000888-65-2

>  <references>  (462) 
[{'journal': {'name': 'Phytochemistry', 'id': 10}, 'title': 'Homoisoflavanones from Pseudoprospero firmifolium of the monotypic tribe Pseudoprospereae (Hyacinthaceae: Hyacinthoideae)', 'year': 2007, 'start_page': 2753, 'volume': 68, 'issue': 22, 'doi': '10.1016/j.phytochem.2007.08.005', 'isbn': '', 'despositor': {'code': 'rah', 'first_name': 'Rowan', 'last_name': 'Hatherley', 'id': 20}, 'refauthors_set': [{'author': {'first_name': 'Chantal', 'initials': 'C', 'last_name': 'Koorbanally', 'id': 523}, 'first_author': True, 'id': 1070}, {'author': {'first_name': 'Sarisha', 'initials': 'S', 'last_name': 'Sewjee', 'id': 757}, 'first_author': None, 'id': 1071}, {'author': {'first_name': 'Dulcie', 'initials': 'DA', 'last_name': 'Mulholland', 'id': 525}, 'first_author': None, 'id': 1072}, {'author': {'first_name': 'Neil', 'initials': 'NR', 'last_name': 'Crouch', 'id': 524}, 'first_author': None, 'id': 1073}, {'author': {'first_name': 'Anthony', 'initials': 'A', 'last_name': 'Dold', 'id': 758}, 'first_author': None, 'id': 1074}], 'id': 361}]

>  <classifications>  (462) 
[{'classification': 'Flavonoids', 'id': 776}, {'classification': 'Homoisoflavonoid', 'id': 783}, {'classification': 'Homoisoflavonoids (Classyfire)', 'id': 964}]

>  <molecular_mass>  (462) 
390.38

$$$$
SANC00567_minRM1.pdb
     RDKit          3D

 46 48  0  0  1  0  0  0  0  0999 V2000
    5.6100   -2.5560    0.3520 C   0  0  0  0  0  0  0  0  0  0  0  0
    5.2010   -1.2770    0.7740 O   0  0  0  0  0  0  0  0  0  0  0  0
    4.0400   -0.7830    0.2800 C   0  0  0  0  0  0  0  0  0  0  0  0
    3.2110   -1.4560   -0.6130 C   0  0  0  0  0  0  0  0  0  0  0  0
    2.0380   -0.8150   -1.0280 C   0  0  0  0  0  0  0  0  0  0  0  0
    1.2680   -1.4950   -1.8860 O   0  0  0  0  0  0  0  0  0  0  0  0
    1.6910    0.4600   -0.5490 C   0  0  0  0  0  0  0  0  0  0  0  0
    0.4430    1.0760   -0.9300 C   0  0  0  0  0  0  0  0  0  0  0  0
   -0.2700    0.6010   -1.8090 O   0  0  0  0  0  0  0  0  0  0  0  0
    0.0770    2.3370   -0.1660 C   0  0  1  0  0  0  0  0  0  0  0  0
   -0.8040    3.1880   -0.8250 O   0  0  0  0  0  0  0  0  0  0  0  0
   -0.6030    1.9370    1.1580 C   0  0  0  0  0  0  0  0  0  0  0  0
   -1.7520    1.0280    0.8760 C   0  0  0  0  0  0  0  0  0  0  0  0
   -3.0010    1.5540    0.5980 C   0  0  0  0  0  0  0  0  0  0  0  0
   -4.0810    0.7110    0.3280 C   0  0  0  0  0  0  0  0  0  0  0  0
   -3.8890   -0.6600    0.3260 C   0  0  0  0  0  0  0  0  0  0  0  0
   -4.8380   -1.6090    0.0900 O   0  0  0  0  0  0  0  0  0  0  0  0
   -6.1090   -1.1520   -0.2960 C   0  0  0  0  0  0  0  0  0  0  0  0
   -2.6080   -1.1970    0.6020 C   0  0  0  0  0  0  0  0  0  0  0  0
   -2.5680   -2.5600    0.5910 O   0  0  0  0  0  0  0  0  0  0  0  0
   -1.2900   -3.1480    0.5600 C   0  0  0  0  0  0  0  0  0  0  0  0
   -1.5440   -0.3560    0.8800 C   0  0  0  0  0  0  0  0  0  0  0  0
    1.3880    3.1150    0.0910 C   0  0  0  0  0  0  0  0  0  0  0  0
    2.3240    2.3480    0.8140 O   0  0  0  0  0  0  0  0  0  0  0  0
    2.5810    1.1080    0.3210 C   0  0  0  0  0  0  0  0  0  0  0  0
    3.7510    0.5100    0.7570 C   0  0  0  0  0  0  0  0  0  0  0  0
    4.9070   -3.3520    0.6470 H   0  0  0  0  0  0  0  0  0  0  0  0
    5.7990   -2.6170   -0.7320 H   0  0  0  0  0  0  0  0  0  0  0  0
    6.5610   -2.7050    0.8860 H   0  0  0  0  0  0  0  0  0  0  0  0
    3.4340   -2.4490   -1.0080 H   0  0  0  0  0  0  0  0  0  0  0  0
    0.4860   -0.9590   -2.1560 H   0  0  0  0  0  0  0  0  0  0  0  0
   -0.7730    3.0090   -1.7710 H   0  0  0  0  0  0  0  0  0  0  0  0
    0.1340    1.4640    1.8400 H   0  0  0  0  0  0  0  0  0  0  0  0
   -0.9350    2.8490    1.7010 H   0  0  0  0  0  0  0  0  0  0  0  0
   -3.1510    2.6380    0.5790 H   0  0  0  0  0  0  0  0  0  0  0  0
   -5.0530    1.1630    0.1160 H   0  0  0  0  0  0  0  0  0  0  0  0
   -6.6250   -0.5810    0.4940 H   0  0  0  0  0  0  0  0  0  0  0  0
   -6.1000   -0.5560   -1.2240 H   0  0  0  0  0  0  0  0  0  0  0  0
   -6.6680   -2.0820   -0.4790 H   0  0  0  0  0  0  0  0  0  0  0  0
   -0.6460   -2.7820   -0.2580 H   0  0  0  0  0  0  0  0  0  0  0  0
   -0.7500   -3.0460    1.5170 H   0  0  0  0  0  0  0  0  0  0  0  0
   -1.5030   -4.2160    0.3910 H   0  0  0  0  0  0  0  0  0  0  0  0
   -0.5480   -0.7450    1.1040 H   0  0  0  0  0  0  0  0  0  0  0  0
    1.8320    3.4790   -0.8630 H   0  0  0  0  0  0  0  0  0  0  0  0
    1.2270    4.0020    0.7390 H   0  0  0  0  0  0  0  0  0  0  0  0
    4.4290    1.0200    1.4460 H   0  0  0  0  0  0  0  0  0  0  0  0
  1 28  1  0
  1 27  1  0
  1  2  1  0
  1 29  1  0
  2  3  1  0
  3  4  2  0
  3 26  1  0
  4  5  1  0
  4 30  1  0
  5  6  1  0
  5  7  2  0
  6 31  1  0
  7  8  1  0
  7 25  1  0
  8  9  2  0
  8 10  1  0
 10 11  1  6
 10 23  1  0
 10 12  1  0
 11 32  1  0
 12 13  1  0
 12 34  1  0
 12 33  1  0
 13 14  2  0
 13 22  1  0
 14 15  1  0
 14 35  1  0
 15 36  1  0
 15 16  2  0
 16 17  1  0
 16 19  1  0
 17 18  1  0
 18 38  1  0
 18 39  1  0
 18 37  1  0
 19 20  1  0
 19 22  2  0
 20 21  1  0
 21 40  1  0
 21 42  1  0
 21 41  1  0
 22 43  1  0
 23 44  1  0
 23 45  1  0
 23 24  1  0
 24 25  1  0
 25 26  2  0
 26 46  1  0
M  END
>  <id>  (463) 
567

>  <scaffolds>  (463) 
['c1ccccc1', 'O=C1c2ccccc2OCC1Cc1ccccc1', 'O=C(CCc1ccccc1)c1ccccc1']

>  <name>  (463) 
3,5-dihydroxy-7-methoxy-3-(3',4'-dimethoxybenzyl)-4-chromanone

>  <formula>  (463) 
C19H20O7

>  <SMILES>  (463) 
COc3cc(O)c2C(=O)C(O)(Cc1ccc(OC)c(OC)c1)COc2c3

>  <ChEMBL_id>  (463) 


>  <ZINC_id>  (463) 


>  <PubChem_id>  (463) 


>  <DrugBank_id>  (463) 


>  <CAS_no>  (463) 
1000888-66-3

>  <references>  (463) 
[{'journal': {'name': 'Phytochemistry', 'id': 10}, 'title': 'Homoisoflavanones from Pseudoprospero firmifolium of the monotypic tribe Pseudoprospereae (Hyacinthaceae: Hyacinthoideae)', 'year': 2007, 'start_page': 2753, 'volume': 68, 'issue': 22, 'doi': '10.1016/j.phytochem.2007.08.005', 'isbn': '', 'despositor': {'code': 'rah', 'first_name': 'Rowan', 'last_name': 'Hatherley', 'id': 20}, 'refauthors_set': [{'author': {'first_name': 'Chantal', 'initials': 'C', 'last_name': 'Koorbanally', 'id': 523}, 'first_author': True, 'id': 1070}, {'author': {'first_name': 'Sarisha', 'initials': 'S', 'last_name': 'Sewjee', 'id': 757}, 'first_author': None, 'id': 1071}, {'author': {'first_name': 'Dulcie', 'initials': 'DA', 'last_name': 'Mulholland', 'id': 525}, 'first_author': None, 'id': 1072}, {'author': {'first_name': 'Neil', 'initials': 'NR', 'last_name': 'Crouch', 'id': 524}, 'first_author': None, 'id': 1073}, {'author': {'first_name': 'Anthony', 'initials': 'A', 'last_name': 'Dold', 'id': 758}, 'first_author': None, 'id': 1074}], 'id': 361}]

>  <classifications>  (463) 
[{'classification': 'Flavonoids', 'id': 776}, {'classification': 'Homoisoflavonoid', 'id': 783}, {'classification': 'Homoisoflavonoids (Classyfire)', 'id': 964}]

>  <molecular_mass>  (463) 
360.36

$$$$
SANC00568_minRM1.pdb
     RDKit          3D

 47 49  0  0  1  0  0  0  0  0999 V2000
   -5.1600   -3.1250    0.4530 C   0  0  0  0  0  0  0  0  0  0  0  0
   -5.3300   -1.7360    0.5780 O   0  0  0  0  0  0  0  0  0  0  0  0
   -4.1940   -0.9810    0.6440 C   0  0  0  0  0  0  0  0  0  0  0  0
   -2.9240   -1.4570    0.9470 C   0  0  0  0  0  0  0  0  0  0  0  0
   -1.8600   -0.5640    1.0040 C   0  0  0  0  0  0  0  0  0  0  0  0
   -2.0570    0.7920    0.7640 C   0  0  0  0  0  0  0  0  0  0  0  0
   -0.9030    1.7350    0.8340 C   0  0  0  0  0  0  0  0  0  0  0  0
   -0.3040    1.9430   -0.5700 C   0  0  1  0  0  0  0  0  0  0  0  0
   -1.2370    2.6780   -1.2910 O   0  0  0  0  0  0  0  0  0  0  0  0
    1.0100    2.7560   -0.4980 C   0  0  0  0  0  0  0  0  0  0  0  0
    1.9950    2.0970    0.2670 O   0  0  0  0  0  0  0  0  0  0  0  0
    2.2450    0.8130   -0.0940 C   0  0  0  0  0  0  0  0  0  0  0  0
    3.4610    0.2740    0.3050 C   0  0  0  0  0  0  0  0  0  0  0  0
    4.4160    1.0630    0.8790 O   0  0  0  0  0  0  0  0  0  0  0  0
    4.3450    1.0410    2.2870 C   0  0  0  0  0  0  0  0  0  0  0  0
    3.7450   -1.0790    0.0140 C   0  0  0  0  0  0  0  0  0  0  0  0
    4.9320   -1.4950    0.5090 O   0  0  0  0  0  0  0  0  0  0  0  0
    5.3390   -2.8110    0.2170 C   0  0  0  0  0  0  0  0  0  0  0  0
    2.8550   -1.8660   -0.7090 C   0  0  0  0  0  0  0  0  0  0  0  0
    1.6510   -1.2850   -1.1320 C   0  0  0  0  0  0  0  0  0  0  0  0
    0.8400   -2.0760   -1.8460 O   0  0  0  0  0  0  0  0  0  0  0  0
    1.3140    0.0380   -0.8010 C   0  0  0  0  0  0  0  0  0  0  0  0
    0.0320    0.5890   -1.1750 C   0  0  0  0  0  0  0  0  0  0  0  0
   -0.7260   -0.0070   -1.9340 O   0  0  0  0  0  0  0  0  0  0  0  0
   -3.3240    1.2780    0.4540 C   0  0  0  0  0  0  0  0  0  0  0  0
   -4.3940    0.3880    0.3950 C   0  0  0  0  0  0  0  0  0  0  0  0
   -5.6170    0.9340    0.1750 O   0  0  0  0  0  0  0  0  0  0  0  0
   -6.1780   -3.4930    0.2460 H   0  0  0  0  0  0  0  0  0  0  0  0
   -4.4960   -3.4160   -0.3770 H   0  0  0  0  0  0  0  0  0  0  0  0
   -4.8020   -3.5930    1.3840 H   0  0  0  0  0  0  0  0  0  0  0  0
   -2.7360   -2.5140    1.1520 H   0  0  0  0  0  0  0  0  0  0  0  0
   -0.8610   -0.9420    1.2420 H   0  0  0  0  0  0  0  0  0  0  0  0
   -1.2130    2.7160    1.2570 H   0  0  0  0  0  0  0  0  0  0  0  0
   -0.1210    1.3690    1.5320 H   0  0  0  0  0  0  0  0  0  0  0  0
   -1.1790    2.4380   -2.2230 H   0  0  0  0  0  0  0  0  0  0  0  0
    1.3930    2.9950   -1.5150 H   0  0  0  0  0  0  0  0  0  0  0  0
    0.8760    3.7200    0.0370 H   0  0  0  0  0  0  0  0  0  0  0  0
    4.5030    0.0360    2.7130 H   0  0  0  0  0  0  0  0  0  0  0  0
    5.1670    1.6990    2.6050 H   0  0  0  0  0  0  0  0  0  0  0  0
    3.3930    1.4410    2.6750 H   0  0  0  0  0  0  0  0  0  0  0  0
    6.3290   -2.8810    0.6930 H   0  0  0  0  0  0  0  0  0  0  0  0
    4.6780   -3.5740    0.6610 H   0  0  0  0  0  0  0  0  0  0  0  0
    5.4480   -3.0040   -0.8620 H   0  0  0  0  0  0  0  0  0  0  0  0
    3.0520   -2.9090   -0.9620 H   0  0  0  0  0  0  0  0  0  0  0  0
    0.0390   -1.5800   -2.1410 H   0  0  0  0  0  0  0  0  0  0  0  0
   -3.4860    2.3420    0.2550 H   0  0  0  0  0  0  0  0  0  0  0  0
   -6.1470    0.3030   -0.3300 H   0  0  0  0  0  0  0  0  0  0  0  0
  1 29  1  0
  1 28  1  0
  1  2  1  0
  1 30  1  0
  2  3  1  0
  3 26  2  0
  3  4  1  0
  4  5  2  0
  4 31  1  0
  5  6  1  0
  5 32  1  0
  6 25  2  0
  6  7  1  0
  7  8  1  0
  7 33  1  0
  7 34  1  0
  8  9  1  6
  8 23  1  0
  8 10  1  0
  9 35  1  0
 10 36  1  0
 10 37  1  0
 10 11  1  0
 11 12  1  0
 12 22  2  0
 12 13  1  0
 13 16  2  0
 13 14  1  0
 14 15  1  0
 15 39  1  0
 15 40  1  0
 15 38  1  0
 16 19  1  0
 16 17  1  0
 17 18  1  0
 18 43  1  0
 18 42  1  0
 18 41  1  0
 19 20  2  0
 19 44  1  0
 20 21  1  0
 20 22  1  0
 21 45  1  0
 22 23  1  0
 23 24  2  0
 25 46  1  0
 25 26  1  0
 26 27  1  0
 27 47  1  0
M  END
>  <id>  (464) 
568

>  <scaffolds>  (464) 
['c1ccccc1', 'O=C1c2ccccc2OCC1Cc1ccccc1', 'O=C(CCc1ccccc1)c1ccccc1']

>  <name>  (464) 
3,5-dihydroxy-7,8-dimethoxy-3-(3'-hydroxy-4'-methoxybenzyl)-4-chromanone

>  <formula>  (464) 
C19H20O8

>  <SMILES>  (464) 
COc3ccc(CC2(O)COc1c(OC)c(OC)cc(O)c1C2=O)cc3O

>  <ChEMBL_id>  (464) 


>  <ZINC_id>  (464) 


>  <PubChem_id>  (464) 


>  <DrugBank_id>  (464) 


>  <CAS_no>  (464) 
1000888-67-4

>  <references>  (464) 
[{'journal': {'name': 'Phytochemistry', 'id': 10}, 'title': 'Homoisoflavanones from Pseudoprospero firmifolium of the monotypic tribe Pseudoprospereae (Hyacinthaceae: Hyacinthoideae)', 'year': 2007, 'start_page': 2753, 'volume': 68, 'issue': 22, 'doi': '10.1016/j.phytochem.2007.08.005', 'isbn': '', 'despositor': {'code': 'rah', 'first_name': 'Rowan', 'last_name': 'Hatherley', 'id': 20}, 'refauthors_set': [{'author': {'first_name': 'Chantal', 'initials': 'C', 'last_name': 'Koorbanally', 'id': 523}, 'first_author': True, 'id': 1070}, {'author': {'first_name': 'Sarisha', 'initials': 'S', 'last_name': 'Sewjee', 'id': 757}, 'first_author': None, 'id': 1071}, {'author': {'first_name': 'Dulcie', 'initials': 'DA', 'last_name': 'Mulholland', 'id': 525}, 'first_author': None, 'id': 1072}, {'author': {'first_name': 'Neil', 'initials': 'NR', 'last_name': 'Crouch', 'id': 524}, 'first_author': None, 'id': 1073}, {'author': {'first_name': 'Anthony', 'initials': 'A', 'last_name': 'Dold', 'id': 758}, 'first_author': None, 'id': 1074}], 'id': 361}]

>  <classifications>  (464) 
[{'classification': 'Flavonoids', 'id': 776}, {'classification': 'Homoisoflavonoid', 'id': 783}, {'classification': 'Homoisoflavonoids (Classyfire)', 'id': 964}]

>  <molecular_mass>  (464) 
376.36

$$$$
SANC00569_minRM1.pdb
     RDKit          3D

 44 46  0  0  1  0  0  0  0  0999 V2000
    4.8060    3.2550    0.3230 C   0  0  0  0  0  0  0  0  0  0  0  0
    5.0530    1.8720    0.4090 O   0  0  0  0  0  0  0  0  0  0  0  0
    3.9610    1.0620    0.5430 C   0  0  0  0  0  0  0  0  0  0  0  0
    2.6760    1.4770    0.8650 C   0  0  0  0  0  0  0  0  0  0  0  0
    1.6700    0.5250    1.0000 C   0  0  0  0  0  0  0  0  0  0  0  0
    1.9390   -0.8250    0.8110 C   0  0  0  0  0  0  0  0  0  0  0  0
    0.8450   -1.8290    0.9550 C   0  0  0  0  0  0  0  0  0  0  0  0
    0.1930   -2.0910   -0.4160 C   0  0  1  0  0  0  0  0  0  0  0  0
    1.1350   -2.7700   -1.1790 O   0  0  0  0  0  0  0  0  0  0  0  0
   -1.0590   -2.9880   -0.2790 C   0  0  0  0  0  0  0  0  0  0  0  0
   -2.0450   -2.3950    0.5360 O   0  0  0  0  0  0  0  0  0  0  0  0
   -2.3920   -1.1210    0.2140 C   0  0  0  0  0  0  0  0  0  0  0  0
   -3.6060   -0.6790    0.7300 C   0  0  0  0  0  0  0  0  0  0  0  0
   -3.9990    0.6320    0.4420 C   0  0  0  0  0  0  0  0  0  0  0  0
   -5.1280    1.2240    0.8930 O   0  0  0  0  0  0  0  0  0  0  0  0
   -6.0250    0.4380    1.6410 C   0  0  0  0  0  0  0  0  0  0  0  0
   -3.2160    1.4660   -0.3740 C   0  0  0  0  0  0  0  0  0  0  0  0
   -3.7190    2.6650   -0.7660 O   0  0  0  0  0  0  0  0  0  0  0  0
   -1.9970    0.9950   -0.8770 C   0  0  0  0  0  0  0  0  0  0  0  0
   -1.2870    1.8530   -1.6170 O   0  0  0  0  0  0  0  0  0  0  0  0
   -1.5560   -0.3010   -0.5540 C   0  0  0  0  0  0  0  0  0  0  0  0
   -0.2640   -0.7670   -1.0050 C   0  0  0  0  0  0  0  0  0  0  0  0
    0.4100   -0.1270   -1.8040 O   0  0  0  0  0  0  0  0  0  0  0  0
    3.2200   -1.2510    0.4690 C   0  0  0  0  0  0  0  0  0  0  0  0
    4.2320   -0.3040    0.3360 C   0  0  0  0  0  0  0  0  0  0  0  0
    5.4790   -0.7780    0.0840 O   0  0  0  0  0  0  0  0  0  0  0  0
    4.4560    3.6860    1.2760 H   0  0  0  0  0  0  0  0  0  0  0  0
    5.7950    3.6780    0.0840 H   0  0  0  0  0  0  0  0  0  0  0  0
    4.1000    3.5320   -0.4790 H   0  0  0  0  0  0  0  0  0  0  0  0
    2.4300    2.5290    1.0210 H   0  0  0  0  0  0  0  0  0  0  0  0
    0.6600    0.8540    1.2650 H   0  0  0  0  0  0  0  0  0  0  0  0
    1.2280   -2.7840    1.3770 H   0  0  0  0  0  0  0  0  0  0  0  0
    0.0780   -1.4920    1.6850 H   0  0  0  0  0  0  0  0  0  0  0  0
    1.0310   -2.5270   -2.1050 H   0  0  0  0  0  0  0  0  0  0  0  0
   -1.4790   -3.2490   -1.2760 H   0  0  0  0  0  0  0  0  0  0  0  0
   -0.8350   -3.9420    0.2430 H   0  0  0  0  0  0  0  0  0  0  0  0
   -4.2090   -1.3590    1.3340 H   0  0  0  0  0  0  0  0  0  0  0  0
   -6.4170   -0.4270    1.0800 H   0  0  0  0  0  0  0  0  0  0  0  0
   -5.6040    0.0930    2.6000 H   0  0  0  0  0  0  0  0  0  0  0  0
   -6.8560    1.1340    1.8420 H   0  0  0  0  0  0  0  0  0  0  0  0
   -3.1790    3.3340   -0.3180 H   0  0  0  0  0  0  0  0  0  0  0  0
   -0.4830    1.4100   -1.9760 H   0  0  0  0  0  0  0  0  0  0  0  0
    3.4370   -2.3110    0.3010 H   0  0  0  0  0  0  0  0  0  0  0  0
    5.9110   -0.1710   -0.5310 H   0  0  0  0  0  0  0  0  0  0  0  0
  1 29  1  0
  1 28  1  0
  1  2  1  0
  1 27  1  0
  2  3  1  0
  3 25  2  0
  3  4  1  0
  4  5  2  0
  4 30  1  0
  5  6  1  0
  5 31  1  0
  6 24  2  0
  6  7  1  0
  7  8  1  0
  7 32  1  0
  7 33  1  0
  8  9  1  6
  8 22  1  0
  8 10  1  0
  9 34  1  0
 10 35  1  0
 10 36  1  0
 10 11  1  0
 11 12  1  0
 12 21  2  0
 12 13  1  0
 13 14  2  0
 13 37  1  0
 14 17  1  0
 14 15  1  0
 15 16  1  0
 16 38  1  0
 16 40  1  0
 16 39  1  0
 17 19  2  0
 17 18  1  0
 18 41  1  0
 19 20  1  0
 19 21  1  0
 20 42  1  0
 21 22  1  0
 22 23  2  0
 24 43  1  0
 24 25  1  0
 25 26  1  0
 26 44  1  0
M  END
>  <id>  (465) 
569

>  <scaffolds>  (465) 
['c1ccccc1', 'O=C1c2ccccc2OCC1Cc1ccccc1', 'O=C(CCc1ccccc1)c1ccccc1']

>  <name>  (465) 
3,5,6-trihydroxy-7-methoxy-3-(3'-hydroxy-4'-methoxybenzyl)-4-chromanone

>  <formula>  (465) 
C18H18O8

>  <SMILES>  (465) 
COc3ccc(CC2(O)COc1cc(OC)c(O)c(O)c1C2=O)cc3O

>  <ChEMBL_id>  (465) 


>  <ZINC_id>  (465) 


>  <PubChem_id>  (465) 


>  <DrugBank_id>  (465) 


>  <CAS_no>  (465) 
1000888-68-5

>  <references>  (465) 
[{'journal': {'name': 'Phytochemistry', 'id': 10}, 'title': 'Homoisoflavanones from Pseudoprospero firmifolium of the monotypic tribe Pseudoprospereae (Hyacinthaceae: Hyacinthoideae)', 'year': 2007, 'start_page': 2753, 'volume': 68, 'issue': 22, 'doi': '10.1016/j.phytochem.2007.08.005', 'isbn': '', 'despositor': {'code': 'rah', 'first_name': 'Rowan', 'last_name': 'Hatherley', 'id': 20}, 'refauthors_set': [{'author': {'first_name': 'Chantal', 'initials': 'C', 'last_name': 'Koorbanally', 'id': 523}, 'first_author': True, 'id': 1070}, {'author': {'first_name': 'Sarisha', 'initials': 'S', 'last_name': 'Sewjee', 'id': 757}, 'first_author': None, 'id': 1071}, {'author': {'first_name': 'Dulcie', 'initials': 'DA', 'last_name': 'Mulholland', 'id': 525}, 'first_author': None, 'id': 1072}, {'author': {'first_name': 'Neil', 'initials': 'NR', 'last_name': 'Crouch', 'id': 524}, 'first_author': None, 'id': 1073}, {'author': {'first_name': 'Anthony', 'initials': 'A', 'last_name': 'Dold', 'id': 758}, 'first_author': None, 'id': 1074}], 'id': 361}]

>  <classifications>  (465) 
[{'classification': 'Flavonoids', 'id': 776}, {'classification': 'Homoisoflavonoid', 'id': 783}, {'classification': 'Homoisoflavonoids (Classyfire)', 'id': 964}]

>  <molecular_mass>  (465) 
362.33

$$$$
SANC00570_minRM1.pdb
     RDKit          3D

 40 42  0  0  1  0  0  0  0  0999 V2000
   -4.6490    2.9920   -0.0900 C   0  0  0  0  0  0  0  0  0  0  0  0
   -4.7720    1.5960   -0.2240 O   0  0  0  0  0  0  0  0  0  0  0  0
   -3.6140    0.8930   -0.4120 C   0  0  0  0  0  0  0  0  0  0  0  0
   -2.3820    1.4330   -0.7550 C   0  0  0  0  0  0  0  0  0  0  0  0
   -1.2980    0.5830   -0.9510 C   0  0  0  0  0  0  0  0  0  0  0  0
   -1.4390   -0.7920   -0.8060 C   0  0  0  0  0  0  0  0  0  0  0  0
   -0.2650   -1.6880   -1.0220 C   0  0  0  0  0  0  0  0  0  0  0  0
    0.4430   -1.9400    0.3220 C   0  0  1  0  0  0  0  0  0  0  0  0
   -0.4210   -2.7210    1.0810 O   0  0  0  0  0  0  0  0  0  0  0  0
    1.7670   -2.7120    0.1230 C   0  0  0  0  0  0  0  0  0  0  0  0
    2.6720   -2.0100   -0.6970 O   0  0  0  0  0  0  0  0  0  0  0  0
    2.8790   -0.7040   -0.3860 C   0  0  0  0  0  0  0  0  0  0  0  0
    3.9990   -0.1190   -0.9600 C   0  0  0  0  0  0  0  0  0  0  0  0
    4.2260    1.2370   -0.6840 C   0  0  0  0  0  0  0  0  0  0  0  0
    5.3200    1.7520   -1.2790 O   0  0  0  0  0  0  0  0  0  0  0  0
    3.4020    1.9930    0.1520 C   0  0  0  0  0  0  0  0  0  0  0  0
    2.2920    1.3600    0.7190 C   0  0  0  0  0  0  0  0  0  0  0  0
    1.5290    2.1150    1.5190 O   0  0  0  0  0  0  0  0  0  0  0  0
    1.9970    0.0140    0.4350 C   0  0  0  0  0  0  0  0  0  0  0  0
    0.7970   -0.6040    0.9510 C   0  0  0  0  0  0  0  0  0  0  0  0
    0.1180   -0.0730    1.8230 O   0  0  0  0  0  0  0  0  0  0  0  0
   -2.6660   -1.3430   -0.4480 C   0  0  0  0  0  0  0  0  0  0  0  0
   -3.7540   -0.4980   -0.2470 C   0  0  0  0  0  0  0  0  0  0  0  0
   -4.9370   -1.1010    0.0300 O   0  0  0  0  0  0  0  0  0  0  0  0
   -3.9450    3.3060    0.7000 H   0  0  0  0  0  0  0  0  0  0  0  0
   -4.3740    3.4870   -1.0360 H   0  0  0  0  0  0  0  0  0  0  0  0
   -5.6590    3.3180    0.1970 H   0  0  0  0  0  0  0  0  0  0  0  0
   -2.2360    2.5080   -0.8850 H   0  0  0  0  0  0  0  0  0  0  0  0
   -0.3300    1.0120   -1.2310 H   0  0  0  0  0  0  0  0  0  0  0  0
   -0.5750   -2.6550   -1.4730 H   0  0  0  0  0  0  0  0  0  0  0  0
    0.4470   -1.2550   -1.7550 H   0  0  0  0  0  0  0  0  0  0  0  0
   -0.2440   -2.5640    2.0160 H   0  0  0  0  0  0  0  0  0  0  0  0
    2.2390   -2.9600    1.1000 H   0  0  0  0  0  0  0  0  0  0  0  0
    1.6150   -3.6690   -0.4190 H   0  0  0  0  0  0  0  0  0  0  0  0
    4.6740   -0.6840   -1.6060 H   0  0  0  0  0  0  0  0  0  0  0  0
    5.3910    2.7020   -1.0680 H   0  0  0  0  0  0  0  0  0  0  0  0
    3.6040    3.0420    0.3770 H   0  0  0  0  0  0  0  0  0  0  0  0
    0.8310    1.5670    1.9420 H   0  0  0  0  0  0  0  0  0  0  0  0
   -2.7810   -2.4240   -0.3220 H   0  0  0  0  0  0  0  0  0  0  0  0
   -5.4450   -0.5220    0.6150 H   0  0  0  0  0  0  0  0  0  0  0  0
  1 26  1  0
  1  2  1  0
  1 27  1  0
  1 25  1  0
  2  3  1  0
  3  4  2  0
  3 23  1  0
  4  5  1  0
  4 28  1  0
  5 29  1  0
  5  6  2  0
  6  7  1  0
  6 22  1  0
  7 31  1  0
  7 30  1  0
  7  8  1  0
  8 10  1  0
  8 20  1  0
  8  9  1  1
  9 32  1  0
 10 11  1  0
 10 34  1  0
 10 33  1  0
 11 12  1  0
 12 13  2  0
 12 19  1  0
 13 35  1  0
 13 14  1  0
 14 15  1  0
 14 16  2  0
 15 36  1  0
 16 37  1  0
 16 17  1  0
 17 19  2  0
 17 18  1  0
 18 38  1  0
 19 20  1  0
 20 21  2  0
 22 39  1  0
 22 23  2  0
 23 24  1  0
 24 40  1  0
M  END
>  <id>  (466) 
570

>  <scaffolds>  (466) 
['c1ccccc1', 'O=C1c2ccccc2OCC1Cc1ccccc1', 'O=C(CCc1ccccc1)c1ccccc1']

>  <name>  (466) 
3,5,7-trihydroxy-3-(3'-hydroxy-4'methoxybenzyl)-4-chromanone

>  <formula>  (466) 
C17H16O7

>  <SMILES>  (466) 
COc3ccc(CC2(O)COc1cc(O)cc(O)c1C2=O)cc3O

>  <ChEMBL_id>  (466) 


>  <ZINC_id>  (466) 


>  <PubChem_id>  (466) 


>  <DrugBank_id>  (466) 


>  <CAS_no>  (466) 
1000888-69-6

>  <references>  (466) 
[{'journal': {'name': 'Phytochemistry', 'id': 10}, 'title': 'Homoisoflavanones from Pseudoprospero firmifolium of the monotypic tribe Pseudoprospereae (Hyacinthaceae: Hyacinthoideae)', 'year': 2007, 'start_page': 2753, 'volume': 68, 'issue': 22, 'doi': '10.1016/j.phytochem.2007.08.005', 'isbn': '', 'despositor': {'code': 'rah', 'first_name': 'Rowan', 'last_name': 'Hatherley', 'id': 20}, 'refauthors_set': [{'author': {'first_name': 'Chantal', 'initials': 'C', 'last_name': 'Koorbanally', 'id': 523}, 'first_author': True, 'id': 1070}, {'author': {'first_name': 'Sarisha', 'initials': 'S', 'last_name': 'Sewjee', 'id': 757}, 'first_author': None, 'id': 1071}, {'author': {'first_name': 'Dulcie', 'initials': 'DA', 'last_name': 'Mulholland', 'id': 525}, 'first_author': None, 'id': 1072}, {'author': {'first_name': 'Neil', 'initials': 'NR', 'last_name': 'Crouch', 'id': 524}, 'first_author': None, 'id': 1073}, {'author': {'first_name': 'Anthony', 'initials': 'A', 'last_name': 'Dold', 'id': 758}, 'first_author': None, 'id': 1074}], 'id': 361}]

>  <classifications>  (466) 
[{'classification': 'Flavonoids', 'id': 776}, {'classification': 'Homoisoflavonoid', 'id': 783}, {'classification': 'Homoisoflavonoids (Classyfire)', 'id': 964}]

>  <molecular_mass>  (466) 
332.3

$$$$
SANC00571_minRM1.pdb
     RDKit          3D

 79 83  0  0  1  0  0  0  0  0999 V2000
   -2.9740   -1.3130   -0.8390 H   0  0  0  0  0  0  0  0  0  0  0  0
   -3.3940   -0.6990    0.0060 C   0  0  2  0  0  0  0  0  0  0  0  0
   -2.8960   -1.3070    1.3130 C   0  0  0  0  0  0  0  0  0  0  0  0
   -1.3890   -1.5270    1.2350 C   0  0  0  0  0  0  0  0  0  0  0  0
   -0.6660   -0.4670    0.4810 C   0  0  0  0  0  0  0  0  0  0  0  0
   -1.2630    0.5310   -0.1850 C   0  0  0  0  0  0  0  0  0  0  0  0
   -0.4880    1.5880   -0.9090 C   0  0  0  0  0  0  0  0  0  0  0  0
    1.0410    1.5000   -0.8340 C   0  0  0  0  0  0  0  0  0  0  0  0
    1.4740    0.7870    0.4340 C   0  0  1  0  0  0  0  0  0  0  0  0
    1.0120    1.5840    1.6560 C   0  0  0  0  0  0  0  0  0  0  0  0
    0.8220   -0.6180    0.4080 C   0  0  2  0  0  0  0  0  0  0  0  0
    1.1050   -1.4120   -0.8720 C   0  0  0  0  0  0  0  0  0  0  0  0
    1.5280   -1.3230    1.5690 C   0  0  0  0  0  0  0  0  0  0  0  0
    2.9730   -0.8140    1.4930 C   0  0  0  0  0  0  0  0  0  0  0  0
    2.9730    0.4700    0.6160 C   0  0  1  0  0  0  0  0  0  0  0  0
    3.5370    0.1920   -0.6510 O   0  0  0  0  0  0  0  0  0  0  0  0
    4.9250    0.4170   -0.6240 C   0  0  2  0  0  0  0  0  0  0  0  0
    5.1410    1.1270   -1.4650 H   0  0  0  0  0  0  0  0  0  0  0  0
    5.6690   -0.8840   -0.8850 C   0  0  0  0  0  0  0  0  0  0  0  0
    5.1050   -1.9560   -0.9450 O   0  0  0  0  0  0  0  0  0  0  0  0
    7.1540   -0.7240   -1.0950 C   0  0  0  0  0  0  0  0  0  0  0  0
    7.8760   -2.0590   -1.1160 C   0  0  0  0  0  0  0  0  0  0  0  0
    5.2750    1.0110    0.7490 C   0  0  0  0  0  0  0  0  0  0  0  0
    3.9130    1.5420    1.2210 C   0  0  1  0  0  0  0  0  0  0  0  0
    3.8440    1.5850    2.3320 H   0  0  0  0  0  0  0  0  0  0  0  0
    3.6990    2.9370    0.6590 C   0  0  0  0  0  0  0  0  0  0  0  0
   -2.7700    0.7020   -0.1510 C   0  0  2  0  0  0  0  0  0  0  0  0
   -3.0460    1.6470    1.0190 C   0  0  0  0  0  0  0  0  0  0  0  0
   -3.3010    1.3210   -1.4500 C   0  0  0  0  0  0  0  0  0  0  0  0
   -4.8200    1.3270   -1.5090 C   0  0  0  0  0  0  0  0  0  0  0  0
   -5.3500   -0.1080   -1.4300 C   0  0  2  0  0  0  0  0  0  0  0  0
   -4.9580   -0.6930   -2.3110 H   0  0  0  0  0  0  0  0  0  0  0  0
   -6.7520   -0.1090   -1.4400 O   0  0  0  0  0  0  0  0  0  0  0  0
   -4.9270   -0.8070   -0.1190 C   0  0  1  0  0  0  0  0  0  0  0  0
   -5.2910   -2.2940   -0.2330 C   0  0  0  0  0  0  0  0  0  0  0  0
   -5.6830   -0.2280    1.0940 C   0  0  0  0  0  0  0  0  0  0  0  0
   -7.0520   -0.4690    1.0540 O   0  0  0  0  0  0  0  0  0  0  0  0
   -3.1470   -0.6700    2.1860 H   0  0  0  0  0  0  0  0  0  0  0  0
   -3.4080   -2.2720    1.5280 H   0  0  0  0  0  0  0  0  0  0  0  0
   -0.9840   -1.6150    2.2670 H   0  0  0  0  0  0  0  0  0  0  0  0
   -1.1690   -2.5120    0.7660 H   0  0  0  0  0  0  0  0  0  0  0  0
   -0.7670    1.5890   -1.9860 H   0  0  0  0  0  0  0  0  0  0  0  0
   -0.8060    2.5840   -0.5270 H   0  0  0  0  0  0  0  0  0  0  0  0
    1.4360    0.9770   -1.7330 H   0  0  0  0  0  0  0  0  0  0  0  0
    1.4780    2.5160   -0.9120 H   0  0  0  0  0  0  0  0  0  0  0  0
   -0.0800    1.5980    1.7870 H   0  0  0  0  0  0  0  0  0  0  0  0
    1.4190    1.2050    2.6040 H   0  0  0  0  0  0  0  0  0  0  0  0
    1.3160    2.6430    1.5930 H   0  0  0  0  0  0  0  0  0  0  0  0
    2.1480   -1.7460   -0.9640 H   0  0  0  0  0  0  0  0  0  0  0  0
    0.4980   -2.3290   -0.9200 H   0  0  0  0  0  0  0  0  0  0  0  0
    0.8770   -0.8410   -1.7850 H   0  0  0  0  0  0  0  0  0  0  0  0
    1.0670   -1.0890    2.5490 H   0  0  0  0  0  0  0  0  0  0  0  0
    1.4680   -2.4270    1.4990 H   0  0  0  0  0  0  0  0  0  0  0  0
    3.3770   -0.6280    2.5070 H   0  0  0  0  0  0  0  0  0  0  0  0
    3.6450   -1.5900    1.0750 H   0  0  0  0  0  0  0  0  0  0  0  0
    7.3210   -0.1750   -2.0470 H   0  0  0  0  0  0  0  0  0  0  0  0
    7.5790   -0.0660   -0.3090 H   0  0  0  0  0  0  0  0  0  0  0  0
    7.5120   -2.7140   -1.9210 H   0  0  0  0  0  0  0  0  0  0  0  0
    8.9580   -1.9330   -1.2660 H   0  0  0  0  0  0  0  0  0  0  0  0
    7.7420   -2.6150   -0.1770 H   0  0  0  0  0  0  0  0  0  0  0  0
    5.6800    0.2500    1.4460 H   0  0  0  0  0  0  0  0  0  0  0  0
    6.0600    1.7870    0.6900 H   0  0  0  0  0  0  0  0  0  0  0  0
    3.7400    2.9660   -0.4390 H   0  0  0  0  0  0  0  0  0  0  0  0
    2.7290    3.3650    0.9590 H   0  0  0  0  0  0  0  0  0  0  0  0
    4.4650    3.6410    1.0200 H   0  0  0  0  0  0  0  0  0  0  0  0
   -2.6360    2.6540    0.8480 H   0  0  0  0  0  0  0  0  0  0  0  0
   -4.1170    1.7900    1.2250 H   0  0  0  0  0  0  0  0  0  0  0  0
   -2.5960    1.2930    1.9590 H   0  0  0  0  0  0  0  0  0  0  0  0
   -2.9410    2.3640   -1.5780 H   0  0  0  0  0  0  0  0  0  0  0  0
   -2.8970    0.7700   -2.3280 H   0  0  0  0  0  0  0  0  0  0  0  0
   -5.2640    1.9700   -0.7230 H   0  0  0  0  0  0  0  0  0  0  0  0
   -5.1550    1.8070   -2.4550 H   0  0  0  0  0  0  0  0  0  0  0  0
   -7.0490    0.2850   -2.2660 H   0  0  0  0  0  0  0  0  0  0  0  0
   -4.7990   -2.7930   -1.0800 H   0  0  0  0  0  0  0  0  0  0  0  0
   -5.0000   -2.8520    0.6710 H   0  0  0  0  0  0  0  0  0  0  0  0
   -6.3700   -2.4550   -0.3680 H   0  0  0  0  0  0  0  0  0  0  0  0
   -5.3710   -0.7110    2.0460 H   0  0  0  0  0  0  0  0  0  0  0  0
   -5.4760    0.8610    1.2200 H   0  0  0  0  0  0  0  0  0  0  0  0
   -7.4060   -0.1520    0.2090 H   0  0  0  0  0  0  0  0  0  0  0  0
  2  1  1  6
  2 27  1  0
  2 34  1  0
  2  3  1  0
  3  4  1  0
  3 39  1  0
  3 38  1  0
  4  5  1  0
  4 41  1  0
  4 40  1  0
  5  6  2  0
  5 11  1  0
  6  7  1  0
  6 27  1  0
  7 42  1  0
  7  8  1  0
  7 43  1  0
  8 44  1  0
  8 45  1  0
  8  9  1  0
  9 11  1  0
  9 15  1  0
  9 10  1  1
 10 48  1  0
 10 46  1  0
 10 47  1  0
 11 12  1  6
 11 13  1  0
 12 51  1  0
 12 49  1  0
 12 50  1  0
 13 14  1  0
 13 53  1  0
 13 52  1  0
 14 15  1  0
 14 55  1  0
 14 54  1  0
 15 16  1  6
 15 24  1  0
 16 17  1  0
 17 18  1  6
 17 19  1  0
 17 23  1  0
 19 21  1  0
 19 20  2  0
 21 56  1  0
 21 22  1  0
 21 57  1  0
 22 58  1  0
 22 59  1  0
 22 60  1  0
 23 62  1  0
 23 24  1  0
 23 61  1  0
 24 26  1  0
 24 25  1  1
 26 63  1  0
 26 64  1  0
 26 65  1  0
 27 29  1  0
 27 28  1  1
 28 66  1  0
 28 67  1  0
 28 68  1  0
 29 70  1  0
 29 69  1  0
 29 30  1  0
 30 72  1  0
 30 31  1  0
 30 71  1  0
 31 32  1  6
 31 33  1  0
 31 34  1  0
 33 73  1  0
 34 35  1  6
 34 36  1  0
 35 74  1  0
 35 76  1  0
 35 75  1  0
 36 37  1  0
 36 78  1  0
 36 77  1  0
 37 79  1  0
M  END
>  <id>  (467) 
571

>  <scaffolds>  (467) 
['C1=CC2CCCCC2CC1', 'C1=CCCCC1', 'C1CCCCC1', 'C1CCC2C3=C(CCC2C1)C1CCC2(CCCO2)C1CC3', 'C1CCC2C3=C(CCC2C1)C1CCCC1CC3']

>  <name>  (467) 
15-deoxoeucosterol

>  <formula>  (467) 
C29H46O4

>  <SMILES>  (467) 
[H][C@@]45CCC1=C(CC[C@@]2(C)[C@@]1(C)CC[C@@]23O[C@H](C(=O)CC)C[C@H]3C)[C@@]4(C)CC[C@H](O)[C@]5(C)CO

>  <ChEMBL_id>  (467) 


>  <ZINC_id>  (467) 


>  <PubChem_id>  (467) 


>  <DrugBank_id>  (467) 


>  <CAS_no>  (467) 
81241-53-4

>  <references>  (467) 
[{'journal': {'name': 'Phytochemistry', 'id': 10}, 'title': 'Homoisoflavanones from Pseudoprospero firmifolium of the monotypic tribe Pseudoprospereae (Hyacinthaceae: Hyacinthoideae)', 'year': 2007, 'start_page': 2753, 'volume': 68, 'issue': 22, 'doi': '10.1016/j.phytochem.2007.08.005', 'isbn': '', 'despositor': {'code': 'rah', 'first_name': 'Rowan', 'last_name': 'Hatherley', 'id': 20}, 'refauthors_set': [{'author': {'first_name': 'Chantal', 'initials': 'C', 'last_name': 'Koorbanally', 'id': 523}, 'first_author': True, 'id': 1070}, {'author': {'first_name': 'Sarisha', 'initials': 'S', 'last_name': 'Sewjee', 'id': 757}, 'first_author': None, 'id': 1071}, {'author': {'first_name': 'Dulcie', 'initials': 'DA', 'last_name': 'Mulholland', 'id': 525}, 'first_author': None, 'id': 1072}, {'author': {'first_name': 'Neil', 'initials': 'NR', 'last_name': 'Crouch', 'id': 524}, 'first_author': None, 'id': 1073}, {'author': {'first_name': 'Anthony', 'initials': 'A', 'last_name': 'Dold', 'id': 758}, 'first_author': None, 'id': 1074}], 'id': 361}]

>  <classifications>  (467) 
[{'classification': 'Spirocyclic', 'id': 832}, {'classification': 'Terpenoid', 'id': 839}, {'classification': 'Triterpene', 'id': 842}, {'classification': 'Phenol lipids (Classyfire)', 'id': 951}]

>  <molecular_mass>  (467) 
458.67

$$$$
SANC00572_minRM1.pdb
     RDKit          3D

 43 45  0  0  1  0  0  0  0  0999 V2000
    6.5820   -1.1340   -0.2730 C   0  0  0  0  0  0  0  0  0  0  0  0
    5.3060   -1.5570    0.1370 O   0  0  0  0  0  0  0  0  0  0  0  0
    4.3270   -0.6070    0.1940 C   0  0  0  0  0  0  0  0  0  0  0  0
    4.4670    0.7330   -0.1420 C   0  0  0  0  0  0  0  0  0  0  0  0
    3.3760    1.5860   -0.0010 C   0  0  0  0  0  0  0  0  0  0  0  0
    2.1540    1.1090    0.4540 C   0  0  0  0  0  0  0  0  0  0  0  0
    0.9940    2.0380    0.5870 C   0  0  0  0  0  0  0  0  0  0  0  0
    0.2360    2.1010   -0.7440 C   0  0  2  0  0  0  0  0  0  0  0  0
    0.9450    2.3750   -1.5660 H   0  0  0  0  0  0  0  0  0  0  0  0
   -0.8920    3.1340   -0.6870 C   0  0  0  0  0  0  0  0  0  0  0  0
   -1.8620    2.8140    0.2860 O   0  0  0  0  0  0  0  0  0  0  0  0
   -2.3810    1.5610    0.2030 C   0  0  0  0  0  0  0  0  0  0  0  0
   -3.6020    1.3680    0.8320 C   0  0  0  0  0  0  0  0  0  0  0  0
   -4.1670    0.0850    0.7710 C   0  0  0  0  0  0  0  0  0  0  0  0
   -5.3490   -0.0510    1.4010 O   0  0  0  0  0  0  0  0  0  0  0  0
   -3.5360   -0.9590    0.0850 C   0  0  0  0  0  0  0  0  0  0  0  0
   -4.0860   -2.2110    0.1420 O   0  0  0  0  0  0  0  0  0  0  0  0
   -4.7170   -2.5740   -1.0670 C   0  0  0  0  0  0  0  0  0  0  0  0
   -2.2940   -0.7410   -0.5250 C   0  0  0  0  0  0  0  0  0  0  0  0
   -1.7420   -1.7780   -1.1610 O   0  0  0  0  0  0  0  0  0  0  0  0
   -1.6970    0.5290   -0.4560 C   0  0  0  0  0  0  0  0  0  0  0  0
   -0.3740    0.7480   -1.0060 C   0  0  0  0  0  0  0  0  0  0  0  0
    0.2070   -0.1410   -1.6240 O   0  0  0  0  0  0  0  0  0  0  0  0
    1.9960   -0.2380    0.7700 C   0  0  0  0  0  0  0  0  0  0  0  0
    3.0830   -1.0960    0.6400 C   0  0  0  0  0  0  0  0  0  0  0  0
    2.8960   -2.3770    1.0510 O   0  0  0  0  0  0  0  0  0  0  0  0
    7.0270   -0.3790    0.3980 H   0  0  0  0  0  0  0  0  0  0  0  0
    7.1870   -2.0520   -0.2200 H   0  0  0  0  0  0  0  0  0  0  0  0
    6.6050   -0.7560   -1.3090 H   0  0  0  0  0  0  0  0  0  0  0  0
    5.4110    1.1450   -0.5040 H   0  0  0  0  0  0  0  0  0  0  0  0
    3.4960    2.6450   -0.2460 H   0  0  0  0  0  0  0  0  0  0  0  0
    0.3170    1.7300    1.4120 H   0  0  0  0  0  0  0  0  0  0  0  0
    1.3310    3.0550    0.8800 H   0  0  0  0  0  0  0  0  0  0  0  0
   -0.5370    4.1370   -0.3710 H   0  0  0  0  0  0  0  0  0  0  0  0
   -1.3730    3.2550   -1.6840 H   0  0  0  0  0  0  0  0  0  0  0  0
   -4.1050    2.1780    1.3670 H   0  0  0  0  0  0  0  0  0  0  0  0
   -5.6420   -0.9670    1.3590 H   0  0  0  0  0  0  0  0  0  0  0  0
   -5.5640   -1.9130   -1.3140 H   0  0  0  0  0  0  0  0  0  0  0  0
   -4.0380   -2.5940   -1.9320 H   0  0  0  0  0  0  0  0  0  0  0  0
   -5.0930   -3.5910   -0.8850 H   0  0  0  0  0  0  0  0  0  0  0  0
   -0.8440   -1.5390   -1.4980 H   0  0  0  0  0  0  0  0  0  0  0  0
    1.0360   -0.6300    1.1210 H   0  0  0  0  0  0  0  0  0  0  0  0
    3.3920   -2.9670    0.4720 H   0  0  0  0  0  0  0  0  0  0  0  0
  1 29  1  0
  1 28  1  0
  1  2  1  0
  1 27  1  0
  2  3  1  0
  3  4  2  0
  3 25  1  0
  4 30  1  0
  4  5  1  0
  5 31  1  0
  5  6  2  0
  6  7  1  0
  6 24  1  0
  7  8  1  0
  7 33  1  0
  7 32  1  0
  8  9  1  6
  8 22  1  0
  8 10  1  0
 10 35  1  0
 10 34  1  0
 10 11  1  0
 11 12  1  0
 12 21  2  0
 12 13  1  0
 13 14  2  0
 13 36  1  0
 14 16  1  0
 14 15  1  0
 15 37  1  0
 16 19  2  0
 16 17  1  0
 17 18  1  0
 18 39  1  0
 18 38  1  0
 18 40  1  0
 19 20  1  0
 19 21  1  0
 20 41  1  0
 21 22  1  0
 22 23  2  0
 24 25  2  0
 24 42  1  0
 25 26  1  0
 26 43  1  0
M  END
>  <id>  (468) 
572

>  <scaffolds>  (468) 
['c1ccccc1', 'O=C1c2ccccc2OCC1Cc1ccccc1', 'O=C(CCc1ccccc1)c1ccccc1']

>  <name>  (468) 
5,7-dihydroxy-3-(3-hydroxy-4-methoxybenzyl)chroman-4-one

>  <formula>  (468) 
C18H18O7

>  <SMILES>  (468) 
COc3ccc(C[C@@H]2COc1cc(O)c(OC)c(O)c1C2=O)cc3O

>  <ChEMBL_id>  (468) 


>  <ZINC_id>  (468) 


>  <PubChem_id>  (468) 


>  <DrugBank_id>  (468) 


>  <CAS_no>  (468) 
142546-12-1

>  <references>  (468) 
[{'journal': {'name': 'Bioorganic & Medicinal Chemistry', 'id': 34}, 'title': 'Anti-inflammatory activity and QSAR studies of compounds isolated from Hyacinthaceae species and Tachiadenus longiflorus Griseb. (Gentianaceae)', 'year': 2005, 'start_page': 2561, 'volume': 13, 'issue': 7, 'doi': '10.1016/j.bmc.2005.01.036', 'isbn': '', 'despositor': {'code': 'rah', 'first_name': 'Rowan', 'last_name': 'Hatherley', 'id': 20}, 'refauthors_set': [{'author': {'first_name': 'Karen', 'initials': 'K', 'last_name': 'Du Toit', 'id': 713}, 'first_author': True, 'id': 1075}, {'author': {'first_name': 'Esameldin', 'initials': 'EE', 'last_name': 'Elgorashi', 'id': 594}, 'first_author': None, 'id': 1076}, {'author': {'first_name': 'Sarel', 'initials': 'SF', 'last_name': 'Malan', 'id': 759}, 'first_author': None, 'id': 1077}, {'author': {'first_name': 'Siegfried', 'initials': 'SE', 'last_name': 'Drewes', 'id': 613}, 'first_author': None, 'id': 1078}, {'author': {'first_name': 'Johannes', 'initials': 'J', 'last_name': 'Van Staden', 'id': 489}, 'first_author': None, 'id': 1079}, {'author': {'first_name': 'Neil', 'initials': 'NR', 'last_name': 'Crouch', 'id': 524}, 'first_author': None, 'id': 1080}, {'author': {'first_name': 'Dulcie', 'initials': 'DA', 'last_name': 'Mulholland', 'id': 525}, 'first_author': None, 'id': 1081}], 'id': 362}]

>  <classifications>  (468) 
[{'classification': 'Flavonoids', 'id': 776}, {'classification': 'Homoisoflavonoid', 'id': 783}, {'classification': 'Homoisoflavonoids (Classyfire)', 'id': 964}]

>  <molecular_mass>  (468) 
346.33

$$$$
SANC00573_minRM1.pdb
     RDKit          3D

 35 36  0  0  1  0  0  0  0  0999 V2000
   -0.0860   -2.3960    2.0590 C   0  0  0  0  0  0  0  0  0  0  0  0
   -0.5900   -2.2570    0.8400 C   0  0  0  0  0  0  0  0  0  0  0  0
   -0.5020   -0.9600    0.0830 C   0  0  1  0  0  0  0  0  0  0  0  0
   -0.0730   -1.2470   -1.3230 C   0  0  0  0  0  0  0  0  0  0  0  0
    1.1230   -0.9380   -1.8250 C   0  0  0  0  0  0  0  0  0  0  0  0
    2.1810   -0.2780   -1.0680 C   0  0  0  0  0  0  0  0  0  0  0  0
    2.7030    0.9360   -1.5190 C   0  0  0  0  0  0  0  0  0  0  0  0
    3.7240    1.5550   -0.8160 C   0  0  0  0  0  0  0  0  0  0  0  0
    4.2200    0.9430    0.3330 C   0  0  0  0  0  0  0  0  0  0  0  0
    5.2870    1.4960    0.9790 O   0  0  0  0  0  0  0  0  0  0  0  0
    3.7280   -0.2830    0.7880 C   0  0  0  0  0  0  0  0  0  0  0  0
    2.6930   -0.8820    0.0780 C   0  0  0  0  0  0  0  0  0  0  0  0
   -1.8540   -0.3030    0.0830 C   0  0  0  0  0  0  0  0  0  0  0  0
   -2.9630   -0.9730   -0.4280 C   0  0  0  0  0  0  0  0  0  0  0  0
   -4.2180   -0.3850   -0.4020 C   0  0  0  0  0  0  0  0  0  0  0  0
   -4.3500    0.9000    0.1300 C   0  0  0  0  0  0  0  0  0  0  0  0
   -5.6010    1.4250    0.0600 O   0  0  0  0  0  0  0  0  0  0  0  0
   -3.2520    1.5850    0.6470 C   0  0  0  0  0  0  0  0  0  0  0  0
   -2.0070    0.9710    0.6210 C   0  0  0  0  0  0  0  0  0  0  0  0
    0.4480   -1.6280    2.6020 H   0  0  0  0  0  0  0  0  0  0  0  0
   -0.1690   -3.3220    2.6220 H   0  0  0  0  0  0  0  0  0  0  0  0
   -1.1060   -3.0780    0.3300 H   0  0  0  0  0  0  0  0  0  0  0  0
    0.2380   -0.2780    0.5780 H   0  0  0  0  0  0  0  0  0  0  0  0
   -0.8200   -1.7330   -1.9670 H   0  0  0  0  0  0  0  0  0  0  0  0
    1.3810   -1.1680   -2.8670 H   0  0  0  0  0  0  0  0  0  0  0  0
    2.3030    1.3870   -2.4310 H   0  0  0  0  0  0  0  0  0  0  0  0
    4.1450    2.5010   -1.1640 H   0  0  0  0  0  0  0  0  0  0  0  0
    4.9100    2.1010    1.6300 H   0  0  0  0  0  0  0  0  0  0  0  0
    4.1380   -0.7470    1.6860 H   0  0  0  0  0  0  0  0  0  0  0  0
    2.2890   -1.8400    0.4230 H   0  0  0  0  0  0  0  0  0  0  0  0
   -2.8620   -1.9720   -0.8630 H   0  0  0  0  0  0  0  0  0  0  0  0
   -5.0940   -0.9150   -0.7870 H   0  0  0  0  0  0  0  0  0  0  0  0
   -5.6570    2.1910    0.6700 H   0  0  0  0  0  0  0  0  0  0  0  0
   -3.3620    2.5860    1.0720 H   0  0  0  0  0  0  0  0  0  0  0  0
   -1.1450    1.5120    1.0250 H   0  0  0  0  0  0  0  0  0  0  0  0
  1  2  2  0
  1 20  1  0
  1 21  1  0
  2  3  1  0
  2 22  1  0
  3  4  1  0
  3 13  1  0
  3 23  1  1
  4 24  1  0
  4  5  2  0
  5 25  1  0
  5  6  1  0
  6  7  2  0
  6 12  1  0
  7 26  1  0
  7  8  1  0
  8 27  1  0
  8  9  2  0
  9 11  1  0
  9 10  1  0
 10 28  1  0
 11 12  2  0
 11 29  1  0
 12 30  1  0
 13 14  2  0
 13 19  1  0
 14 31  1  0
 14 15  1  0
 15 32  1  0
 15 16  2  0
 16 17  1  0
 16 18  1  0
 17 33  1  0
 18 19  2  0
 18 34  1  0
 19 35  1  0
M  END
>  <id>  (469) 
573

>  <scaffolds>  (469) 
['c1ccccc1', 'C(=Cc1ccccc1)Cc1ccccc1']

>  <name>  (469) 
(+)-Nyasol

>  <formula>  (469) 
C17H16O2

>  <SMILES>  (469) 
C=CC(/C=C\c1ccc(O)cc1)c2ccc(O)cc2

>  <ChEMBL_id>  (469) 


>  <ZINC_id>  (469) 


>  <PubChem_id>  (469) 
 6440617

>  <DrugBank_id>  (469) 


>  <CAS_no>  (469) 
230292-85-0

>  <references>  (469) 
[{'journal': {'name': 'Bioorganic & Medicinal Chemistry', 'id': 34}, 'title': 'Anti-inflammatory activity and QSAR studies of compounds isolated from Hyacinthaceae species and Tachiadenus longiflorus Griseb. (Gentianaceae)', 'year': 2005, 'start_page': 2561, 'volume': 13, 'issue': 7, 'doi': '10.1016/j.bmc.2005.01.036', 'isbn': '', 'despositor': {'code': 'rah', 'first_name': 'Rowan', 'last_name': 'Hatherley', 'id': 20}, 'refauthors_set': [{'author': {'first_name': 'Karen', 'initials': 'K', 'last_name': 'Du Toit', 'id': 713}, 'first_author': True, 'id': 1075}, {'author': {'first_name': 'Esameldin', 'initials': 'EE', 'last_name': 'Elgorashi', 'id': 594}, 'first_author': None, 'id': 1076}, {'author': {'first_name': 'Sarel', 'initials': 'SF', 'last_name': 'Malan', 'id': 759}, 'first_author': None, 'id': 1077}, {'author': {'first_name': 'Siegfried', 'initials': 'SE', 'last_name': 'Drewes', 'id': 613}, 'first_author': None, 'id': 1078}, {'author': {'first_name': 'Johannes', 'initials': 'J', 'last_name': 'Van Staden', 'id': 489}, 'first_author': None, 'id': 1079}, {'author': {'first_name': 'Neil', 'initials': 'NR', 'last_name': 'Crouch', 'id': 524}, 'first_author': None, 'id': 1080}, {'author': {'first_name': 'Dulcie', 'initials': 'DA', 'last_name': 'Mulholland', 'id': 525}, 'first_author': None, 'id': 1081}], 'id': 362}]

>  <classifications>  (469) 
[{'classification': 'Norlignan', 'id': 799}]

>  <molecular_mass>  (469) 
252.31

$$$$
SANC00574_minRM1.pdb
     RDKit          3D

 43 45  0  0  1  0  0  0  0  0999 V2000
    6.0960   -1.4610    0.3380 C   0  0  0  0  0  0  0  0  0  0  0  0
    5.6980   -0.1260    0.1640 O   0  0  0  0  0  0  0  0  0  0  0  0
    4.3990    0.0930   -0.2010 C   0  0  0  0  0  0  0  0  0  0  0  0
    3.3890   -0.8580   -0.2070 C   0  0  0  0  0  0  0  0  0  0  0  0
    2.1030   -0.4800   -0.5920 C   0  0  0  0  0  0  0  0  0  0  0  0
    1.0170   -1.5040   -0.6110 C   0  0  0  0  0  0  0  0  0  0  0  0
    0.3950   -1.6130    0.7850 C   0  0  2  0  0  0  0  0  0  0  0  0
    1.1960   -1.8300    1.5370 H   0  0  0  0  0  0  0  0  0  0  0  0
   -0.6570   -2.7240    0.8360 C   0  0  0  0  0  0  0  0  0  0  0  0
   -1.7300   -2.4870   -0.0490 O   0  0  0  0  0  0  0  0  0  0  0  0
   -2.3260   -1.2700    0.0740 C   0  0  0  0  0  0  0  0  0  0  0  0
   -3.6160   -1.1730   -0.4360 C   0  0  0  0  0  0  0  0  0  0  0  0
   -4.2610    0.0650   -0.3470 C   0  0  0  0  0  0  0  0  0  0  0  0
   -5.5190    0.3190   -0.7760 O   0  0  0  0  0  0  0  0  0  0  0  0
   -6.1700   -0.6870   -1.5150 C   0  0  0  0  0  0  0  0  0  0  0  0
   -3.6340    1.1740    0.2450 C   0  0  0  0  0  0  0  0  0  0  0  0
   -4.2530    2.3810    0.1970 O   0  0  0  0  0  0  0  0  0  0  0  0
   -2.3340    1.0430    0.7530 C   0  0  0  0  0  0  0  0  0  0  0  0
   -1.8140    2.1230    1.3440 O   0  0  0  0  0  0  0  0  0  0  0  0
   -1.6590   -0.1850    0.6540 C   0  0  0  0  0  0  0  0  0  0  0  0
   -0.2840   -0.3050    1.0980 C   0  0  0  0  0  0  0  0  0  0  0  0
    0.2790    0.6240    1.6670 O   0  0  0  0  0  0  0  0  0  0  0  0
    1.8260    0.8350   -0.9440 C   0  0  0  0  0  0  0  0  0  0  0  0
    2.8300    1.7960   -0.9220 C   0  0  0  0  0  0  0  0  0  0  0  0
    4.1210    1.4270   -0.5540 C   0  0  0  0  0  0  0  0  0  0  0  0
    5.0640    2.4000   -0.6280 O   0  0  0  0  0  0  0  0  0  0  0  0
    7.1810   -1.3850    0.5120 H   0  0  0  0  0  0  0  0  0  0  0  0
    5.6320   -1.9370    1.2180 H   0  0  0  0  0  0  0  0  0  0  0  0
    5.9220   -2.0920   -0.5490 H   0  0  0  0  0  0  0  0  0  0  0  0
    3.5760   -1.8970    0.0740 H   0  0  0  0  0  0  0  0  0  0  0  0
    0.2420   -1.2630   -1.3700 H   0  0  0  0  0  0  0  0  0  0  0  0
    1.4080   -2.4930   -0.9330 H   0  0  0  0  0  0  0  0  0  0  0  0
   -0.2610   -3.7030    0.4940 H   0  0  0  0  0  0  0  0  0  0  0  0
   -1.0360   -2.8670    1.8730 H   0  0  0  0  0  0  0  0  0  0  0  0
   -4.0830   -2.0530   -0.8810 H   0  0  0  0  0  0  0  0  0  0  0  0
   -7.1130   -0.2030   -1.8170 H   0  0  0  0  0  0  0  0  0  0  0  0
   -5.6200   -0.9930   -2.4200 H   0  0  0  0  0  0  0  0  0  0  0  0
   -6.4060   -1.5780   -0.9110 H   0  0  0  0  0  0  0  0  0  0  0  0
   -4.4470    2.6130    1.1170 H   0  0  0  0  0  0  0  0  0  0  0  0
   -0.8860    1.9450    1.6280 H   0  0  0  0  0  0  0  0  0  0  0  0
    0.8140    1.1280   -1.2410 H   0  0  0  0  0  0  0  0  0  0  0  0
    2.6150    2.8340   -1.1950 H   0  0  0  0  0  0  0  0  0  0  0  0
    5.7500    2.2220    0.0260 H   0  0  0  0  0  0  0  0  0  0  0  0
  1 29  1  0
  1  2  1  0
  1 27  1  0
  1 28  1  0
  2  3  1  0
  3 25  2  0
  3  4  1  0
  4  5  2  0
  4 30  1  0
  5 23  1  0
  5  6  1  0
  6 31  1  0
  6 32  1  0
  6  7  1  0
  7  9  1  0
  7 21  1  0
  7  8  1  1
  9 10  1  0
  9 33  1  0
  9 34  1  0
 10 11  1  0
 11 12  2  0
 11 20  1  0
 12 35  1  0
 12 13  1  0
 13 14  1  0
 13 16  2  0
 14 15  1  0
 15 37  1  0
 15 36  1  0
 15 38  1  0
 16 17  1  0
 16 18  1  0
 17 39  1  0
 18 20  2  0
 18 19  1  0
 19 40  1  0
 20 21  1  0
 21 22  2  0
 23 41  1  0
 23 24  2  0
 24 42  1  0
 24 25  1  0
 25 26  1  0
 26 43  1  0
M  END
>  <id>  (470) 
574

>  <scaffolds>  (470) 
['c1ccccc1', 'O=C1c2ccccc2OCC1Cc1ccccc1', 'O=C(CCc1ccccc1)c1ccccc1']

>  <name>  (470) 
Zebrinin A

>  <formula>  (470) 
C18H18O7

>  <SMILES>  (470) 
COc3cc(C[C@@H]2COc1cc(OC)c(O)c(O)c1C2=O)ccc3O

>  <ChEMBL_id>  (470) 


>  <ZINC_id>  (470) 


>  <PubChem_id>  (470) 


>  <DrugBank_id>  (470) 


>  <CAS_no>  (470) 
849727-91-9

>  <references>  (470) 
[{'journal': {'name': 'Bioorganic & Medicinal Chemistry', 'id': 34}, 'title': 'Anti-inflammatory activity and QSAR studies of compounds isolated from Hyacinthaceae species and Tachiadenus longiflorus Griseb. (Gentianaceae)', 'year': 2005, 'start_page': 2561, 'volume': 13, 'issue': 7, 'doi': '10.1016/j.bmc.2005.01.036', 'isbn': '', 'despositor': {'code': 'rah', 'first_name': 'Rowan', 'last_name': 'Hatherley', 'id': 20}, 'refauthors_set': [{'author': {'first_name': 'Karen', 'initials': 'K', 'last_name': 'Du Toit', 'id': 713}, 'first_author': True, 'id': 1075}, {'author': {'first_name': 'Esameldin', 'initials': 'EE', 'last_name': 'Elgorashi', 'id': 594}, 'first_author': None, 'id': 1076}, {'author': {'first_name': 'Sarel', 'initials': 'SF', 'last_name': 'Malan', 'id': 759}, 'first_author': None, 'id': 1077}, {'author': {'first_name': 'Siegfried', 'initials': 'SE', 'last_name': 'Drewes', 'id': 613}, 'first_author': None, 'id': 1078}, {'author': {'first_name': 'Johannes', 'initials': 'J', 'last_name': 'Van Staden', 'id': 489}, 'first_author': None, 'id': 1079}, {'author': {'first_name': 'Neil', 'initials': 'NR', 'last_name': 'Crouch', 'id': 524}, 'first_author': None, 'id': 1080}, {'author': {'first_name': 'Dulcie', 'initials': 'DA', 'last_name': 'Mulholland', 'id': 525}, 'first_author': None, 'id': 1081}], 'id': 362}]

>  <classifications>  (470) 
[{'classification': 'Flavonoids', 'id': 776}, {'classification': 'Homoisoflavonoid', 'id': 783}, {'classification': 'Homoisoflavonoids (Classyfire)', 'id': 964}]

>  <molecular_mass>  (470) 
346.33

$$$$
SANC00575_minRM1.pdb
     RDKit          3D

 46 48  0  0  1  0  0  0  0  0999 V2000
    6.1090    1.4040   -0.5860 C   0  0  0  0  0  0  0  0  0  0  0  0
    5.7730    0.1890    0.0330 O   0  0  0  0  0  0  0  0  0  0  0  0
    4.4570   -0.0090    0.3460 C   0  0  0  0  0  0  0  0  0  0  0  0
    3.4470    0.9400    0.2490 C   0  0  0  0  0  0  0  0  0  0  0  0
    2.1500    0.5920    0.6240 C   0  0  0  0  0  0  0  0  0  0  0  0
    1.0660    1.6150    0.5160 C   0  0  0  0  0  0  0  0  0  0  0  0
    0.5580    1.6780   -0.9250 C   0  0  2  0  0  0  0  0  0  0  0  0
    1.4220    1.8440   -1.6190 H   0  0  0  0  0  0  0  0  0  0  0  0
   -0.4550    2.8080   -1.1150 C   0  0  0  0  0  0  0  0  0  0  0  0
   -1.5810    2.6730   -0.2760 O   0  0  0  0  0  0  0  0  0  0  0  0
   -2.1450    1.4360   -0.2220 C   0  0  0  0  0  0  0  0  0  0  0  0
   -3.4250    1.4050    0.3410 C   0  0  0  0  0  0  0  0  0  0  0  0
   -4.0440    0.1700    0.4800 C   0  0  0  0  0  0  0  0  0  0  0  0
   -5.2860   -0.0350    0.9940 O   0  0  0  0  0  0  0  0  0  0  0  0
   -6.0000    1.0930    1.4410 C   0  0  0  0  0  0  0  0  0  0  0  0
   -3.4100   -1.0160    0.0570 C   0  0  0  0  0  0  0  0  0  0  0  0
   -3.9340   -2.2530    0.2570 O   0  0  0  0  0  0  0  0  0  0  0  0
   -2.1300   -0.9470   -0.4950 C   0  0  0  0  0  0  0  0  0  0  0  0
   -1.4320   -2.0870   -0.7610 O   0  0  0  0  0  0  0  0  0  0  0  0
   -1.8510   -2.7400   -1.9390 C   0  0  0  0  0  0  0  0  0  0  0  0
   -1.4880    0.2850   -0.6590 C   0  0  0  0  0  0  0  0  0  0  0  0
   -0.1580    0.3870   -1.2640 C   0  0  0  0  0  0  0  0  0  0  0  0
    0.3160   -0.4530   -2.0000 O   0  0  0  0  0  0  0  0  0  0  0  0
    1.8640   -0.6860    1.0850 C   0  0  0  0  0  0  0  0  0  0  0  0
    2.8690   -1.6410    1.1810 C   0  0  0  0  0  0  0  0  0  0  0  0
    4.1680   -1.3070    0.8080 C   0  0  0  0  0  0  0  0  0  0  0  0
    5.1060   -2.2710    0.9810 O   0  0  0  0  0  0  0  0  0  0  0  0
    5.9750    2.2760    0.0790 H   0  0  0  0  0  0  0  0  0  0  0  0
    7.1820    1.2950   -0.8060 H   0  0  0  0  0  0  0  0  0  0  0  0
    5.5690    1.5810   -1.5310 H   0  0  0  0  0  0  0  0  0  0  0  0
    3.6430    1.9530   -0.1100 H   0  0  0  0  0  0  0  0  0  0  0  0
    0.2350    1.4000    1.2230 H   0  0  0  0  0  0  0  0  0  0  0  0
    1.4360    2.6140    0.8350 H   0  0  0  0  0  0  0  0  0  0  0  0
   -0.0480    3.8010   -0.8300 H   0  0  0  0  0  0  0  0  0  0  0  0
   -0.7820    2.8790   -2.1780 H   0  0  0  0  0  0  0  0  0  0  0  0
   -3.8870    2.3410    0.6640 H   0  0  0  0  0  0  0  0  0  0  0  0
   -5.5030    1.6190    2.2730 H   0  0  0  0  0  0  0  0  0  0  0  0
   -6.2230    1.8110    0.6350 H   0  0  0  0  0  0  0  0  0  0  0  0
   -6.9430    0.6600    1.8110 H   0  0  0  0  0  0  0  0  0  0  0  0
   -4.8730   -2.2060    0.0500 H   0  0  0  0  0  0  0  0  0  0  0  0
   -2.9000   -3.0760   -1.9100 H   0  0  0  0  0  0  0  0  0  0  0  0
   -1.6990   -2.1240   -2.8410 H   0  0  0  0  0  0  0  0  0  0  0  0
   -1.1950   -3.6220   -1.9910 H   0  0  0  0  0  0  0  0  0  0  0  0
    0.8410   -0.9620    1.3640 H   0  0  0  0  0  0  0  0  0  0  0  0
    2.6470   -2.6500    1.5430 H   0  0  0  0  0  0  0  0  0  0  0  0
    5.8250   -2.1250    0.3570 H   0  0  0  0  0  0  0  0  0  0  0  0
  1 30  1  0
  1 29  1  0
  1  2  1  0
  1 28  1  0
  2  3  1  0
  3  4  2  0
  3 26  1  0
  4 31  1  0
  4  5  1  0
  5  6  1  0
  5 24  2  0
  6  7  1  0
  6 33  1  0
  6 32  1  0
  7  8  1  6
  7 22  1  0
  7  9  1  0
  9 35  1  0
  9 34  1  0
  9 10  1  0
 10 11  1  0
 11 21  2  0
 11 12  1  0
 12 13  2  0
 12 36  1  0
 13 16  1  0
 13 14  1  0
 14 15  1  0
 15 38  1  0
 15 39  1  0
 15 37  1  0
 16 18  2  0
 16 17  1  0
 17 40  1  0
 18 19  1  0
 18 21  1  0
 19 20  1  0
 20 42  1  0
 20 43  1  0
 20 41  1  0
 21 22  1  0
 22 23  2  0
 24 25  1  0
 24 44  1  0
 25 26  2  0
 25 45  1  0
 26 27  1  0
 27 46  1  0
M  END
>  <id>  (471) 
575

>  <scaffolds>  (471) 
['c1ccccc1', 'O=C1c2ccccc2OCC1Cc1ccccc1', 'O=C(CCc1ccccc1)c1ccccc1']

>  <name>  (471) 
Zebrinin B

>  <formula>  (471) 
C19H20O7

>  <SMILES>  (471) 
COc3cc(C[C@@H]2COc1cc(OC)c(O)c(OC)c1C2=O)ccc3O

>  <ChEMBL_id>  (471) 


>  <ZINC_id>  (471) 


>  <PubChem_id>  (471) 


>  <DrugBank_id>  (471) 


>  <CAS_no>  (471) 
849727-92-0

>  <references>  (471) 
[{'journal': {'name': 'Bioorganic & Medicinal Chemistry', 'id': 34}, 'title': 'Anti-inflammatory activity and QSAR studies of compounds isolated from Hyacinthaceae species and Tachiadenus longiflorus Griseb. (Gentianaceae)', 'year': 2005, 'start_page': 2561, 'volume': 13, 'issue': 7, 'doi': '10.1016/j.bmc.2005.01.036', 'isbn': '', 'despositor': {'code': 'rah', 'first_name': 'Rowan', 'last_name': 'Hatherley', 'id': 20}, 'refauthors_set': [{'author': {'first_name': 'Karen', 'initials': 'K', 'last_name': 'Du Toit', 'id': 713}, 'first_author': True, 'id': 1075}, {'author': {'first_name': 'Esameldin', 'initials': 'EE', 'last_name': 'Elgorashi', 'id': 594}, 'first_author': None, 'id': 1076}, {'author': {'first_name': 'Sarel', 'initials': 'SF', 'last_name': 'Malan', 'id': 759}, 'first_author': None, 'id': 1077}, {'author': {'first_name': 'Siegfried', 'initials': 'SE', 'last_name': 'Drewes', 'id': 613}, 'first_author': None, 'id': 1078}, {'author': {'first_name': 'Johannes', 'initials': 'J', 'last_name': 'Van Staden', 'id': 489}, 'first_author': None, 'id': 1079}, {'author': {'first_name': 'Neil', 'initials': 'NR', 'last_name': 'Crouch', 'id': 524}, 'first_author': None, 'id': 1080}, {'author': {'first_name': 'Dulcie', 'initials': 'DA', 'last_name': 'Mulholland', 'id': 525}, 'first_author': None, 'id': 1081}], 'id': 362}]

>  <classifications>  (471) 
[{'classification': 'Flavonoids', 'id': 776}, {'classification': 'Homoisoflavonoid', 'id': 783}, {'classification': 'Homoisoflavonoids (Classyfire)', 'id': 964}]

>  <molecular_mass>  (471) 
360.36

$$$$
SANC00576_minRM1.pdb
     RDKit          3D

 43 44  0  0  1  0  0  0  0  0999 V2000
    0.9770   -2.0540    2.6580 C   0  0  0  0  0  0  0  0  0  0  0  0
    0.4510   -2.2960    1.4650 C   0  0  0  0  0  0  0  0  0  0  0  0
    0.4570   -1.2760    0.3630 C   0  0  1  0  0  0  0  0  0  0  0  0
    0.9250   -1.9230   -0.9050 C   0  0  0  0  0  0  0  0  0  0  0  0
    2.0980   -1.6710   -1.4820 C   0  0  0  0  0  0  0  0  0  0  0  0
    3.0900   -0.7380   -0.9570 C   0  0  0  0  0  0  0  0  0  0  0  0
    3.6580   -0.9470    0.2960 C   0  0  0  0  0  0  0  0  0  0  0  0
    4.6210   -0.0710    0.7830 C   0  0  0  0  0  0  0  0  0  0  0  0
    4.9930    1.0220   -0.0040 C   0  0  0  0  0  0  0  0  0  0  0  0
    5.8800    1.9620    0.4020 O   0  0  0  0  0  0  0  0  0  0  0  0
    4.4480    1.2310   -1.2710 C   0  0  0  0  0  0  0  0  0  0  0  0
    3.5000    0.3390   -1.7410 C   0  0  0  0  0  0  0  0  0  0  0  0
   -0.9380   -0.7460    0.1660 C   0  0  0  0  0  0  0  0  0  0  0  0
   -1.9850   -1.6220   -0.0820 C   0  0  0  0  0  0  0  0  0  0  0  0
   -3.2760   -1.1080   -0.2480 C   0  0  0  0  0  0  0  0  0  0  0  0
   -4.2430   -2.0210   -0.4920 O   0  0  0  0  0  0  0  0  0  0  0  0
   -3.5120    0.2650   -0.1660 C   0  0  0  0  0  0  0  0  0  0  0  0
   -4.7640    0.7460   -0.4420 O   0  0  0  0  0  0  0  0  0  0  0  0
   -5.4620    1.1250    0.7220 C   0  0  0  0  0  0  0  0  0  0  0  0
   -2.4370    1.1340    0.0680 C   0  0  0  0  0  0  0  0  0  0  0  0
   -2.7920    2.4460    0.1260 O   0  0  0  0  0  0  0  0  0  0  0  0
   -1.7530    3.3910    0.2360 C   0  0  0  0  0  0  0  0  0  0  0  0
   -1.1510    0.6320    0.2390 C   0  0  0  0  0  0  0  0  0  0  0  0
    1.4450   -1.1140    2.9430 H   0  0  0  0  0  0  0  0  0  0  0  0
    0.9760   -2.7790    3.4670 H   0  0  0  0  0  0  0  0  0  0  0  0
   -0.0180   -3.2560    1.2390 H   0  0  0  0  0  0  0  0  0  0  0  0
    1.1390   -0.4280    0.6360 H   0  0  0  0  0  0  0  0  0  0  0  0
    0.2470   -2.6610   -1.3420 H   0  0  0  0  0  0  0  0  0  0  0  0
    2.3930   -2.1800   -2.4090 H   0  0  0  0  0  0  0  0  0  0  0  0
    3.3400   -1.7970    0.9060 H   0  0  0  0  0  0  0  0  0  0  0  0
    5.0710   -0.2480    1.7660 H   0  0  0  0  0  0  0  0  0  0  0  0
    6.3090    1.6760    1.2230 H   0  0  0  0  0  0  0  0  0  0  0  0
    4.7690    2.0840   -1.8740 H   0  0  0  0  0  0  0  0  0  0  0  0
    3.0610    0.4840   -2.7310 H   0  0  0  0  0  0  0  0  0  0  0  0
   -1.8320   -2.7020   -0.1500 H   0  0  0  0  0  0  0  0  0  0  0  0
   -5.0680   -1.5690   -0.7010 H   0  0  0  0  0  0  0  0  0  0  0  0
   -6.4280    1.4990    0.3560 H   0  0  0  0  0  0  0  0  0  0  0  0
   -5.6340    0.2800    1.4130 H   0  0  0  0  0  0  0  0  0  0  0  0
   -4.9690    1.9280    1.2930 H   0  0  0  0  0  0  0  0  0  0  0  0
   -1.2160    3.3240    1.1970 H   0  0  0  0  0  0  0  0  0  0  0  0
   -1.0280    3.3490   -0.5920 H   0  0  0  0  0  0  0  0  0  0  0  0
   -2.2850    4.3540    0.1970 H   0  0  0  0  0  0  0  0  0  0  0  0
   -0.3020    1.2930    0.4260 H   0  0  0  0  0  0  0  0  0  0  0  0
  1  2  2  0
  1 24  1  0
  1 25  1  0
  2  3  1  0
  2 26  1  0
  3  4  1  0
  3 13  1  0
  3 27  1  1
  4  5  2  0
  4 28  1  0
  5 29  1  0
  5  6  1  0
  6 12  2  0
  6  7  1  0
  7  8  2  0
  7 30  1  0
  8  9  1  0
  8 31  1  0
  9 11  2  0
  9 10  1  0
 10 32  1  0
 11 33  1  0
 11 12  1  0
 12 34  1  0
 13 14  2  0
 13 23  1  0
 14 15  1  0
 14 35  1  0
 15 16  1  0
 15 17  2  0
 16 36  1  0
 17 18  1  0
 17 20  1  0
 18 19  1  0
 19 37  1  0
 19 39  1  0
 19 38  1  0
 20 21  1  0
 20 23  2  0
 21 22  1  0
 22 41  1  0
 22 42  1  0
 22 40  1  0
 23 43  1  0
M  END
>  <id>  (472) 
576

>  <scaffolds>  (472) 
['c1ccccc1', 'C(=Cc1ccccc1)Cc1ccccc1']

>  <name>  (472) 
Phenol, 5-[(2Z)-1-ethenyl-3-(4-hydroxyphenyl)-2-propenyl]-2,3-dimethoxy- (9CI)

>  <formula>  (472) 
C19H20O4

>  <SMILES>  (472) 
C=CC(/C=C\c1ccc(O)cc1)c2cc(O)c(OC)c(OC)c2

>  <ChEMBL_id>  (472) 


>  <ZINC_id>  (472) 


>  <PubChem_id>  (472) 


>  <DrugBank_id>  (472) 


>  <CAS_no>  (472) 
849727-94-2

>  <references>  (472) 
[{'journal': {'name': 'Bioorganic & Medicinal Chemistry', 'id': 34}, 'title': 'Anti-inflammatory activity and QSAR studies of compounds isolated from Hyacinthaceae species and Tachiadenus longiflorus Griseb. (Gentianaceae)', 'year': 2005, 'start_page': 2561, 'volume': 13, 'issue': 7, 'doi': '10.1016/j.bmc.2005.01.036', 'isbn': '', 'despositor': {'code': 'rah', 'first_name': 'Rowan', 'last_name': 'Hatherley', 'id': 20}, 'refauthors_set': [{'author': {'first_name': 'Karen', 'initials': 'K', 'last_name': 'Du Toit', 'id': 713}, 'first_author': True, 'id': 1075}, {'author': {'first_name': 'Esameldin', 'initials': 'EE', 'last_name': 'Elgorashi', 'id': 594}, 'first_author': None, 'id': 1076}, {'author': {'first_name': 'Sarel', 'initials': 'SF', 'last_name': 'Malan', 'id': 759}, 'first_author': None, 'id': 1077}, {'author': {'first_name': 'Siegfried', 'initials': 'SE', 'last_name': 'Drewes', 'id': 613}, 'first_author': None, 'id': 1078}, {'author': {'first_name': 'Johannes', 'initials': 'J', 'last_name': 'Van Staden', 'id': 489}, 'first_author': None, 'id': 1079}, {'author': {'first_name': 'Neil', 'initials': 'NR', 'last_name': 'Crouch', 'id': 524}, 'first_author': None, 'id': 1080}, {'author': {'first_name': 'Dulcie', 'initials': 'DA', 'last_name': 'Mulholland', 'id': 525}, 'first_author': None, 'id': 1081}], 'id': 362}]

>  <classifications>  (472) 
[{'classification': 'Norlignan', 'id': 799}]

>  <molecular_mass>  (472) 
312.36

$$$$
SANC00577_minRM1.pdb
     RDKit          3D

 56 56  0  0  1  0  0  0  0  0999 V2000
   -1.5700   -3.8220   -0.2230 C   0  0  0  0  0  0  0  0  0  0  0  0
   -1.8490   -2.4880    0.3660 C   0  0  0  0  0  0  0  0  0  0  0  0
   -0.8880   -1.6530    0.7490 C   0  0  0  0  0  0  0  0  0  0  0  0
    0.5550   -1.7920    0.7190 C   0  0  0  0  0  0  0  0  0  0  0  0
    1.3880   -1.3900   -0.2430 C   0  0  0  0  0  0  0  0  0  0  0  0
    1.1510   -1.1760   -1.7020 C   0  0  1  0  0  0  0  0  0  0  0  0
    1.5830   -2.4490   -2.4300 C   0  0  0  0  0  0  0  0  0  0  0  0
   -0.2830   -0.8310   -2.0630 C   0  0  0  0  0  0  0  0  0  0  0  0
    2.7950   -1.1590    0.1600 C   0  0  0  0  0  0  0  0  0  0  0  0
    3.5690   -2.0740    0.3720 O   0  0  0  0  0  0  0  0  0  0  0  0
    3.3080    0.2820    0.3490 C   0  0  1  0  0  0  0  0  0  0  0  0
    3.5600    0.4100    1.4390 H   0  0  0  0  0  0  0  0  0  0  0  0
    4.4360    0.4010   -0.4700 O   0  0  0  0  0  0  0  0  0  0  0  0
    2.3450    1.4140   -0.0840 C   0  0  2  0  0  0  0  0  0  0  0  0
    1.9340    1.1530   -1.0960 H   0  0  0  0  0  0  0  0  0  0  0  0
    3.0990    2.7380   -0.1900 C   0  0  0  0  0  0  0  0  0  0  0  0
    1.2070    1.5750    0.9350 C   0  0  0  0  0  0  0  0  0  0  0  0
    0.0780    2.4530    0.3880 C   0  0  0  0  0  0  0  0  0  0  0  0
   -1.2390    2.0790    1.0310 C   0  0  0  0  0  0  0  0  0  0  0  0
   -1.4420    2.2860    2.2120 O   0  0  0  0  0  0  0  0  0  0  0  0
   -2.3060    1.4550    0.1450 C   0  0  2  0  0  0  0  0  0  0  0  0
   -1.7920    0.9410   -0.7150 H   0  0  0  0  0  0  0  0  0  0  0  0
   -3.1960    2.5860   -0.3960 C   0  0  0  0  0  0  0  0  0  0  0  0
   -2.3660    3.3700   -1.2060 O   0  0  0  0  0  0  0  0  0  0  0  0
   -3.1670    0.4310    0.9000 C   0  0  0  0  0  0  0  0  0  0  0  0
   -3.6220   -0.7220   -0.0080 C   0  0  0  0  0  0  0  0  0  0  0  0
   -3.2900   -2.1130    0.5470 C   0  0  0  0  0  0  0  0  0  0  0  0
   -1.8770   -3.8680   -1.2810 H   0  0  0  0  0  0  0  0  0  0  0  0
   -0.5050   -4.0940   -0.1870 H   0  0  0  0  0  0  0  0  0  0  0  0
   -2.1180   -4.6220    0.3000 H   0  0  0  0  0  0  0  0  0  0  0  0
   -1.1450   -0.7090    1.2540 H   0  0  0  0  0  0  0  0  0  0  0  0
    0.9650   -2.0990    1.6960 H   0  0  0  0  0  0  0  0  0  0  0  0
    1.8010   -0.3200   -2.0450 H   0  0  0  0  0  0  0  0  0  0  0  0
    1.5110   -2.3360   -3.5210 H   0  0  0  0  0  0  0  0  0  0  0  0
    2.6240   -2.7230   -2.2070 H   0  0  0  0  0  0  0  0  0  0  0  0
    0.9620   -3.3150   -2.1560 H   0  0  0  0  0  0  0  0  0  0  0  0
   -0.6680    0.0100   -1.4640 H   0  0  0  0  0  0  0  0  0  0  0  0
   -0.3690   -0.5320   -3.1190 H   0  0  0  0  0  0  0  0  0  0  0  0
   -0.9740   -1.6740   -1.9280 H   0  0  0  0  0  0  0  0  0  0  0  0
    5.1320   -0.1540   -0.1000 H   0  0  0  0  0  0  0  0  0  0  0  0
    3.8520    2.7340   -0.9930 H   0  0  0  0  0  0  0  0  0  0  0  0
    2.4270    3.5780   -0.4170 H   0  0  0  0  0  0  0  0  0  0  0  0
    3.6300    2.9950    0.7370 H   0  0  0  0  0  0  0  0  0  0  0  0
    0.8140    0.5860    1.2390 H   0  0  0  0  0  0  0  0  0  0  0  0
    1.5930    2.0030    1.8850 H   0  0  0  0  0  0  0  0  0  0  0  0
    0.2790    3.5270    0.5950 H   0  0  0  0  0  0  0  0  0  0  0  0
    0.0120    2.4060   -0.7180 H   0  0  0  0  0  0  0  0  0  0  0  0
   -4.0510    2.1590   -0.9730 H   0  0  0  0  0  0  0  0  0  0  0  0
   -3.6480    3.1740    0.4370 H   0  0  0  0  0  0  0  0  0  0  0  0
   -2.8950    4.1000   -1.5390 H   0  0  0  0  0  0  0  0  0  0  0  0
   -2.6030    0.0390    1.7770 H   0  0  0  0  0  0  0  0  0  0  0  0
   -4.0420    0.9230    1.3730 H   0  0  0  0  0  0  0  0  0  0  0  0
   -4.7200   -0.6500   -0.1670 H   0  0  0  0  0  0  0  0  0  0  0  0
   -3.2030   -0.6310   -1.0320 H   0  0  0  0  0  0  0  0  0  0  0  0
   -3.9480   -2.8630    0.0560 H   0  0  0  0  0  0  0  0  0  0  0  0
   -3.5570   -2.1850    1.6240 H   0  0  0  0  0  0  0  0  0  0  0  0
  1 28  1  0
  1 29  1  0
  1 30  1  0
  1  2  1  0
  2 27  1  0
  2  3  2  0
  3  4  1  0
  3 31  1  0
  4  5  1  0
  4 32  1  0
  5  6  1  0
  5  9  1  0
  6  7  1  0
  6  8  1  0
  6 33  1  6
  7 34  1  0
  7 35  1  0
  7 36  1  0
  8 38  1  0
  8 39  1  0
  8 37  1  0
  9 11  1  0
  9 10  2  0
 11 13  1  0
 11 14  1  0
 11 12  1  1
 13 40  1  0
 14 15  1  6
 14 16  1  0
 14 17  1  0
 16 41  1  0
 16 42  1  0
 16 43  1  0
 17 18  1  0
 17 44  1  0
 17 45  1  0
 18 47  1  0
 18 46  1  0
 18 19  1  0
 19 21  1  0
 19 20  2  0
 21 22  1  6
 21 23  1  0
 21 25  1  0
 23 24  1  0
 23 48  1  0
 23 49  1  0
 24 50  1  0
 25 26  1  0
 25 52  1  0
 25 51  1  0
 26 54  1  0
 26 53  1  0
 26 27  1  0
 27 55  1  0
 27 56  1  0
M  END
>  <id>  (473) 
577

>  <scaffolds>  (473) 
[]

>  <name>  (473) 
7,8-Dihydroflabellatene A

>  <formula>  (473) 
C20H32O4

>  <SMILES>  (473) 
CC1=CC=C(C(C)C)C(=O)[C@@H](O)[C@H](C)CCC(=O)[C@H](CO)CCC1

>  <ChEMBL_id>  (473) 


>  <ZINC_id>  (473) 


>  <PubChem_id>  (473) 


>  <DrugBank_id>  (473) 


>  <CAS_no>  (473) 
745819-66-3

>  <references>  (473) 
[{'journal': {'name': 'Journal of Natural Products', 'id': 5}, 'title': 'New Cytotoxic Cembranes from the Sea Pen Gyrophyllum sibogae', 'year': 2004, 'start_page': 1190, 'volume': 67, 'issue': 7, 'doi': '10.1021/np049903m', 'isbn': '', 'despositor': {'code': 'NFA', 'first_name': 'Ngonidzashe', 'last_name': 'Faya', 'id': 21}, 'refauthors_set': [{'author': {'first_name': 'Fernando', 'initials': 'F', 'last_name': 'Reyes', 'id': 760}, 'first_author': True, 'id': 1082}, {'author': {'first_name': 'Ana', 'initials': 'A', 'last_name': 'Arda', 'id': 761}, 'first_author': False, 'id': 1083}, {'author': {'first_name': 'Rocio', 'initials': 'R', 'last_name': 'Martin', 'id': 762}, 'first_author': False, 'id': 1084}, {'author': {'first_name': 'Rogelio', 'initials': 'R', 'last_name': 'Fernandez', 'id': 763}, 'first_author': False, 'id': 1085}, {'author': {'first_name': 'Ana', 'initials': 'A', 'last_name': 'Rueda', 'id': 764}, 'first_author': False, 'id': 1086}, {'author': {'first_name': 'David', 'initials': 'D', 'last_name': 'Montalvo', 'id': 765}, 'first_author': False, 'id': 1087}, {'author': {'first_name': 'Christina', 'initials': 'C', 'last_name': 'Gomez', 'id': 766}, 'first_author': False, 'id': 1088}, {'author': {'first_name': 'Carlos', 'initials': 'C', 'last_name': 'Jimenez', 'id': 767}, 'first_author': False, 'id': 1089}, {'author': {'first_name': 'Jaime', 'initials': 'J', 'last_name': 'Rodriguez', 'id': 768}, 'first_author': False, 'id': 1090}, {'author': {'first_name': 'Jose', 'initials': 'JM', 'last_name': 'Sanchez-Puelles', 'id': 769}, 'first_author': False, 'id': 1091}], 'id': 363}]

>  <classifications>  (473) 
[{'classification': 'Cembrane', 'id': 757}, {'classification': 'Diterpene', 'id': 771}, {'classification': 'Terpenoid', 'id': 839}, {'classification': 'Phenol lipids (Classyfire)', 'id': 951}]

>  <molecular_mass>  (473) 
336.46

$$$$
SANC00578_minRM1.pdb
     RDKit          3D

 57 58  0  0  1  0  0  0  0  0999 V2000
   -0.7090   -1.1240    2.4120 C   0  0  0  0  0  0  0  0  0  0  0  0
    0.0300   -2.2920    1.7640 C   0  0  1  0  0  0  0  0  0  0  0  0
   -0.6400   -3.6200    2.1010 C   0  0  0  0  0  0  0  0  0  0  0  0
    0.1200   -2.1280    0.2790 C   0  0  0  0  0  0  0  0  0  0  0  0
   -0.9230   -1.8930   -0.5250 C   0  0  0  0  0  0  0  0  0  0  0  0
   -2.3210   -1.8280   -0.0630 C   0  0  2  0  0  0  0  0  0  0  0  0
   -2.5670   -2.5590    0.7410 H   0  0  0  0  0  0  0  0  0  0  0  0
   -3.2860   -1.7480   -1.1030 O   0  0  0  0  0  0  0  0  0  0  0  0
   -3.1990   -0.6090   -0.2610 C   0  0  1  0  0  0  0  0  0  0  0  0
   -4.3710   -0.4440    0.6700 C   0  0  0  0  0  0  0  0  0  0  0  0
   -2.7290    0.6310   -0.9900 C   0  0  0  0  0  0  0  0  0  0  0  0
   -2.6440    1.8940   -0.1360 C   0  0  0  0  0  0  0  0  0  0  0  0
   -1.2610    2.1430    0.4620 C   0  0  0  0  0  0  0  0  0  0  0  0
   -0.2670    2.6670   -0.5780 C   0  0  1  0  0  0  0  0  0  0  0  0
   -0.1760    1.9420   -1.4240 H   0  0  0  0  0  0  0  0  0  0  0  0
   -0.7360    4.0240   -1.1310 C   0  0  0  0  0  0  0  0  0  0  0  0
    0.1420    4.3190   -2.1790 O   0  0  0  0  0  0  0  0  0  0  0  0
    1.0800    2.8630    0.0930 C   0  0  0  0  0  0  0  0  0  0  0  0
    1.2320    3.7040    0.9580 O   0  0  0  0  0  0  0  0  0  0  0  0
    2.2080    1.9580   -0.3360 C   0  0  0  0  0  0  0  0  0  0  0  0
    1.9370    0.5620    0.2140 C   0  0  0  0  0  0  0  0  0  0  0  0
    3.0900   -0.3950   -0.0920 C   0  0  1  0  0  0  0  0  0  0  0  0
    3.2820   -0.4190   -1.1950 H   0  0  0  0  0  0  0  0  0  0  0  0
    4.3520    0.0610    0.6310 C   0  0  0  0  0  0  0  0  0  0  0  0
    2.7120   -1.8210    0.3780 C   0  0  2  0  0  0  0  0  0  0  0  0
    2.5490   -1.8430    1.4930 H   0  0  0  0  0  0  0  0  0  0  0  0
    3.8020   -2.6250    0.0350 O   0  0  0  0  0  0  0  0  0  0  0  0
    1.4540   -2.2960   -0.3510 C   0  0  0  0  0  0  0  0  0  0  0  0
    1.5680   -2.8310   -1.4400 O   0  0  0  0  0  0  0  0  0  0  0  0
   -0.4020   -0.9840    3.4580 H   0  0  0  0  0  0  0  0  0  0  0  0
   -0.5210   -0.1690    1.8910 H   0  0  0  0  0  0  0  0  0  0  0  0
   -1.8000   -1.2480    2.4390 H   0  0  0  0  0  0  0  0  0  0  0  0
    1.0700   -2.3120    2.1990 H   0  0  0  0  0  0  0  0  0  0  0  0
   -1.6690   -3.6870    1.7100 H   0  0  0  0  0  0  0  0  0  0  0  0
   -0.0890   -4.4760    1.6840 H   0  0  0  0  0  0  0  0  0  0  0  0
   -0.7040   -3.7770    3.1880 H   0  0  0  0  0  0  0  0  0  0  0  0
   -0.7820   -1.7940   -1.6120 H   0  0  0  0  0  0  0  0  0  0  0  0
   -4.9270   -1.3830    0.8180 H   0  0  0  0  0  0  0  0  0  0  0  0
   -4.0490   -0.1100    1.6660 H   0  0  0  0  0  0  0  0  0  0  0  0
   -5.1040    0.2810    0.2880 H   0  0  0  0  0  0  0  0  0  0  0  0
   -1.7660    0.4370   -1.5050 H   0  0  0  0  0  0  0  0  0  0  0  0
   -3.4440    0.8010   -1.8270 H   0  0  0  0  0  0  0  0  0  0  0  0
   -2.9390    2.7720   -0.7590 H   0  0  0  0  0  0  0  0  0  0  0  0
   -3.3980    1.8950    0.6770 H   0  0  0  0  0  0  0  0  0  0  0  0
   -1.3390    2.8700    1.3010 H   0  0  0  0  0  0  0  0  0  0  0  0
   -0.8740    1.2130    0.9400 H   0  0  0  0  0  0  0  0  0  0  0  0
   -1.7940    3.9510   -1.4880 H   0  0  0  0  0  0  0  0  0  0  0  0
   -0.7390    4.8070   -0.3370 H   0  0  0  0  0  0  0  0  0  0  0  0
   -0.0420    5.2170   -2.4680 H   0  0  0  0  0  0  0  0  0  0  0  0
    2.2970    1.9520   -1.4430 H   0  0  0  0  0  0  0  0  0  0  0  0
    3.1870    2.3490    0.0190 H   0  0  0  0  0  0  0  0  0  0  0  0
    1.7640    0.6130    1.3110 H   0  0  0  0  0  0  0  0  0  0  0  0
    0.9880    0.1790   -0.2150 H   0  0  0  0  0  0  0  0  0  0  0  0
    4.2290    0.0720    1.7240 H   0  0  0  0  0  0  0  0  0  0  0  0
    5.2150   -0.5830    0.4150 H   0  0  0  0  0  0  0  0  0  0  0  0
    4.6440    1.0810    0.3360 H   0  0  0  0  0  0  0  0  0  0  0  0
    3.5280   -3.5460    0.0770 H   0  0  0  0  0  0  0  0  0  0  0  0
  1  2  1  0
  1 31  1  0
  1 32  1  0
  1 30  1  0
  2  4  1  0
  2  3  1  0
  2 33  1  1
  3 35  1  0
  3 34  1  0
  3 36  1  0
  4  5  2  0
  4 28  1  0
  5 37  1  0
  5  6  1  0
  6  8  1  0
  6  9  1  0
  6  7  1  1
  8  9  1  0
  9 11  1  0
  9 10  1  1
 10 40  1  0
 10 38  1  0
 10 39  1  0
 11 42  1  0
 11 41  1  0
 11 12  1  0
 12 43  1  0
 12 13  1  0
 12 44  1  0
 13 14  1  0
 13 46  1  0
 13 45  1  0
 14 15  1  6
 14 16  1  0
 14 18  1  0
 16 17  1  0
 16 47  1  0
 16 48  1  0
 17 49  1  0
 18 20  1  0
 18 19  2  0
 20 50  1  0
 20 51  1  0
 20 21  1  0
 21 53  1  0
 21 22  1  0
 21 52  1  0
 22 23  1  6
 22 25  1  0
 22 24  1  0
 24 56  1  0
 24 55  1  0
 24 54  1  0
 25 28  1  0
 25 27  1  0
 25 26  1  1
 27 57  1  0
 28 29  2  0
M  END
>  <id>  (474) 
578

>  <scaffolds>  (474) 
[]

>  <name>  (474) 
7,8-Dihydroflabellatene B

>  <formula>  (474) 
C20H32O5

>  <SMILES>  (474) 
CC(C)C2=C[C@@H]1O[C@]1(C)CCC[C@@H](CO)C(=O)CC[C@@H](C)[C@H](O)C2=O

>  <ChEMBL_id>  (474) 


>  <ZINC_id>  (474) 


>  <PubChem_id>  (474) 


>  <DrugBank_id>  (474) 


>  <CAS_no>  (474) 
745819-67-4

>  <references>  (474) 
[{'journal': {'name': 'Journal of Natural Products', 'id': 5}, 'title': 'New Cytotoxic Cembranes from the Sea Pen Gyrophyllum sibogae', 'year': 2004, 'start_page': 1190, 'volume': 67, 'issue': 7, 'doi': '10.1021/np049903m', 'isbn': '', 'despositor': {'code': 'NFA', 'first_name': 'Ngonidzashe', 'last_name': 'Faya', 'id': 21}, 'refauthors_set': [{'author': {'first_name': 'Fernando', 'initials': 'F', 'last_name': 'Reyes', 'id': 760}, 'first_author': True, 'id': 1082}, {'author': {'first_name': 'Ana', 'initials': 'A', 'last_name': 'Arda', 'id': 761}, 'first_author': False, 'id': 1083}, {'author': {'first_name': 'Rocio', 'initials': 'R', 'last_name': 'Martin', 'id': 762}, 'first_author': False, 'id': 1084}, {'author': {'first_name': 'Rogelio', 'initials': 'R', 'last_name': 'Fernandez', 'id': 763}, 'first_author': False, 'id': 1085}, {'author': {'first_name': 'Ana', 'initials': 'A', 'last_name': 'Rueda', 'id': 764}, 'first_author': False, 'id': 1086}, {'author': {'first_name': 'David', 'initials': 'D', 'last_name': 'Montalvo', 'id': 765}, 'first_author': False, 'id': 1087}, {'author': {'first_name': 'Christina', 'initials': 'C', 'last_name': 'Gomez', 'id': 766}, 'first_author': False, 'id': 1088}, {'author': {'first_name': 'Carlos', 'initials': 'C', 'last_name': 'Jimenez', 'id': 767}, 'first_author': False, 'id': 1089}, {'author': {'first_name': 'Jaime', 'initials': 'J', 'last_name': 'Rodriguez', 'id': 768}, 'first_author': False, 'id': 1090}, {'author': {'first_name': 'Jose', 'initials': 'JM', 'last_name': 'Sanchez-Puelles', 'id': 769}, 'first_author': False, 'id': 1091}], 'id': 363}]

>  <classifications>  (474) 
[{'classification': 'Cembrane', 'id': 757}, {'classification': 'Diterpene', 'id': 771}, {'classification': 'Terpenoid', 'id': 839}, {'classification': 'Phenol lipids (Classyfire)', 'id': 951}]

>  <molecular_mass>  (474) 
352.46

$$$$
SANC00579_minRM1.pdb
     RDKit          3D

 41 42  0  0  1  0  0  0  0  0999 V2000
    0.6440   -1.3270    2.1940 C   0  0  0  0  0  0  0  0  0  0  0  0
    0.0500   -1.0050    1.0500 C   0  0  0  0  0  0  0  0  0  0  0  0
   -0.6800   -2.0510    0.2650 C   0  0  0  0  0  0  0  0  0  0  0  0
   -2.1660   -1.7010    0.2240 C   0  0  0  0  0  0  0  0  0  0  0  0
   -2.3210   -0.3070   -0.3310 C   0  0  1  0  0  0  0  0  0  0  0  0
   -4.3240    0.0890   -0.3200 Br  0  0  0  0  0  0  0  0  0  0  0  0
   -1.5730    0.7550    0.4650 C   0  0  1  0  0  0  0  0  0  0  0  0
   -1.7960    2.1180   -0.1940 C   0  0  0  0  0  0  0  0  0  0  0  0
   -2.1000    0.8240    1.8980 C   0  0  0  0  0  0  0  0  0  0  0  0
   -0.0480    0.3800    0.4680 C   0  0  1  0  0  0  0  0  0  0  0  0
    0.7110    1.4300    1.2890 C   0  0  0  0  0  0  0  0  0  0  0  0
    2.2270    1.3290    1.1620 C   0  0  0  0  0  0  0  0  0  0  0  0
    2.6310    1.4360   -0.2870 C   0  0  1  0  0  0  0  0  0  0  0  0
    2.4740    2.8140   -0.8880 C   0  0  0  0  0  0  0  0  0  0  0  0
    4.4700    1.1410   -0.3410 Cl  0  0  0  0  0  0  0  0  0  0  0  0
    1.9820    0.3660   -1.1190 C   0  0  1  0  0  0  0  0  0  0  0  0
    2.6580   -1.4510   -0.5460 Br  0  0  0  0  0  0  0  0  0  0  0  0
    0.4770    0.3770   -0.9820 C   0  0  0  0  0  0  0  0  0  0  0  0
    1.1670   -0.6480    2.8570 H   0  0  0  0  0  0  0  0  0  0  0  0
    0.6680   -2.3420    2.5820 H   0  0  0  0  0  0  0  0  0  0  0  0
   -0.2600   -2.1260   -0.7650 H   0  0  0  0  0  0  0  0  0  0  0  0
   -0.5380   -3.0690    0.6840 H   0  0  0  0  0  0  0  0  0  0  0  0
   -2.7250   -2.4370   -0.3940 H   0  0  0  0  0  0  0  0  0  0  0  0
   -2.6230   -1.7940    1.2320 H   0  0  0  0  0  0  0  0  0  0  0  0
   -2.1250   -0.2560   -1.4210 H   0  0  0  0  0  0  0  0  0  0  0  0
   -2.8490    2.4330   -0.1470 H   0  0  0  0  0  0  0  0  0  0  0  0
   -1.2070    2.9130    0.2910 H   0  0  0  0  0  0  0  0  0  0  0  0
   -1.5070    2.1270   -1.2570 H   0  0  0  0  0  0  0  0  0  0  0  0
   -1.7470   -0.0010    2.5330 H   0  0  0  0  0  0  0  0  0  0  0  0
   -1.8120    1.7540    2.4090 H   0  0  0  0  0  0  0  0  0  0  0  0
   -3.2000    0.7990    1.9390 H   0  0  0  0  0  0  0  0  0  0  0  0
    0.3770    2.4530    1.0020 H   0  0  0  0  0  0  0  0  0  0  0  0
    0.4420    1.3650    2.3650 H   0  0  0  0  0  0  0  0  0  0  0  0
    2.7220    2.1200    1.7660 H   0  0  0  0  0  0  0  0  0  0  0  0
    2.6180    0.3800    1.5890 H   0  0  0  0  0  0  0  0  0  0  0  0
    3.0060    3.5750   -0.2970 H   0  0  0  0  0  0  0  0  0  0  0  0
    2.8900    2.8690   -1.9060 H   0  0  0  0  0  0  0  0  0  0  0  0
    1.4250    3.1370   -0.9530 H   0  0  0  0  0  0  0  0  0  0  0  0
    2.3130    0.3980   -2.1800 H   0  0  0  0  0  0  0  0  0  0  0  0
    0.0760   -0.4950   -1.5480 H   0  0  0  0  0  0  0  0  0  0  0  0
    0.0820    1.2610   -1.5360 H   0  0  0  0  0  0  0  0  0  0  0  0
  1  2  2  0
  1 20  1  0
  1 19  1  0
  2  3  1  0
  3 21  1  0
  3  4  1  0
  3 22  1  0
  4 23  1  0
  4  5  1  0
  4 24  1  0
  5 25  1  6
  5  6  1  0
  5  7  1  0
  7  8  1  6
  7 10  1  0
  7  9  1  0
  8 28  1  0
  8 26  1  0
  8 27  1  0
  9 31  1  0
  9 30  1  0
  9 29  1  0
 10  2  1  1
 10 18  1  0
 10 11  1  0
 11 32  1  0
 11 12  1  0
 11 33  1  0
 12 13  1  0
 12 35  1  0
 12 34  1  0
 13 16  1  0
 13 14  1  0
 13 15  1  1
 14 37  1  0
 14 38  1  0
 14 36  1  0
 16 39  1  6
 16 18  1  0
 16 17  1  0
 18 40  1  0
 18 41  1  0
M  END
>  <id>  (475) 
579

>  <scaffolds>  (475) 
['C1CCCCC1', 'C=C1CCCCC12CCCCC2']

>  <name>  (475) 
Nidificene

>  <formula>  (475) 
C15H23Br2Cl

>  <SMILES>  (475) 
C=C1CCC(Br)C(C)(C)C12CCC(C)(Cl)C(Br)C2

>  <ChEMBL_id>  (475) 


>  <ZINC_id>  (475) 


>  <PubChem_id>  (475) 


>  <DrugBank_id>  (475) 


>  <CAS_no>  (475) 
54928-01-7

>  <references>  (475) 
[{'journal': {'name': 'Journal of Natural Products', 'id': 5}, 'title': 'New Halogenated Sesquiterpenes from South African Specimens of the Circumtropical Sea Hare Aplysia dactylomela', 'year': 1999, 'start_page': 1618, 'volume': 62, 'issue': None, 'doi': '10.1021/np990229w', 'isbn': '', 'despositor': {'code': 'NFA', 'first_name': 'Ngonidzashe', 'last_name': 'Faya', 'id': 21}, 'refauthors_set': [{'author': {'first_name': 'Kerry', 'initials': 'KL', 'last_name': 'McPhail', 'id': 483}, 'first_author': True, 'id': 1092}, {'author': {'first_name': 'Michael', 'initials': 'MT', 'last_name': 'Davies-Coleman', 'id': 449}, 'first_author': False, 'id': 1093}, {'author': {'first_name': '', 'initials': 'RCB', 'last_name': 'Copley', 'id': 485}, 'first_author': False, 'id': 1094}, {'author': {'first_name': 'Drake', 'initials': 'DS', 'last_name': 'Eggleston', 'id': 458}, 'first_author': False, 'id': 1095}], 'id': 364}]

>  <classifications>  (475) 
[{'classification': 'Sesquiterpene', 'id': 828}, {'classification': 'Terpenoid', 'id': 839}, {'classification': 'Phenol lipids (Classyfire)', 'id': 951}]

>  <molecular_mass>  (475) 
398.6

$$$$
SANC00580_minRM1.pdb
     RDKit          3D

 42 45  0  0  1  0  0  0  0  0999 V2000
   -2.3950   -1.8450   -0.9600 C   0  0  0  0  0  0  0  0  0  0  0  0
   -1.6470   -0.5690   -0.5550 C   0  0  1  0  0  0  0  0  0  0  0  0
   -1.5430    0.3360   -1.7890 C   0  0  0  0  0  0  0  0  0  0  0  0
   -2.5370    0.1810    0.4140 C   0  0  2  0  0  0  0  0  0  0  0  0
   -4.3280    0.6710   -0.3450 Br  0  0  0  0  0  0  0  0  0  0  0  0
   -2.0070    1.1750    1.2400 O   0  0  0  0  0  0  0  0  0  0  0  0
   -2.5450    0.0250    1.8920 C   0  0  2  0  0  0  0  0  0  0  0  0
   -3.4490    0.1710    2.5130 H   0  0  0  0  0  0  0  0  0  0  0  0
   -1.5040   -0.8870    2.4430 C   0  0  1  0  0  0  0  0  0  0  0  0
   -1.3880   -0.8320    3.5430 H   0  0  0  0  0  0  0  0  0  0  0  0
   -1.5070   -2.1770    1.8560 O   0  0  0  0  0  0  0  0  0  0  0  0
   -0.3850   -1.3660    1.5470 C   0  0  2  0  0  0  0  0  0  0  0  0
    0.8420   -1.8130    2.3040 C   0  0  0  0  0  0  0  0  0  0  0  0
   -0.2370   -0.8860    0.0930 C   0  0  2  0  0  0  0  0  0  0  0  0
    0.6150    0.3960    0.1180 C   0  0  0  0  0  0  0  0  0  0  0  0
    2.1040    0.1880    0.2820 C   0  0  2  0  0  0  0  0  0  0  0  0
    2.4130   -0.0530    1.3250 H   0  0  0  0  0  0  0  0  0  0  0  0
    2.9640    2.0020    0.0220 Br  0  0  0  0  0  0  0  0  0  0  0  0
    2.6730   -0.7880   -0.7050 C   0  0  1  0  0  0  0  0  0  0  0  0
    2.8040   -0.3070   -2.1230 C   0  0  0  0  0  0  0  0  0  0  0  0
    4.4380   -1.1030   -0.1320 Cl  0  0  0  0  0  0  0  0  0  0  0  0
    1.9970   -2.1270   -0.5240 C   0  0  0  0  0  0  0  0  0  0  0  0
    0.4690   -2.0210   -0.7110 C   0  0  2  0  0  0  0  0  0  0  0  0
    0.0130   -3.0020   -0.3950 H   0  0  0  0  0  0  0  0  0  0  0  0
    0.2690   -1.7770   -2.0730 O   0  0  0  0  0  0  0  0  0  0  0  0
   -2.3190   -2.6710   -0.2430 H   0  0  0  0  0  0  0  0  0  0  0  0
   -3.4760   -1.6700   -1.0880 H   0  0  0  0  0  0  0  0  0  0  0  0
   -2.0700   -2.2430   -1.9310 H   0  0  0  0  0  0  0  0  0  0  0  0
   -2.5200    0.4880   -2.2720 H   0  0  0  0  0  0  0  0  0  0  0  0
   -1.1540    1.3370   -1.5410 H   0  0  0  0  0  0  0  0  0  0  0  0
   -0.8940   -0.0580   -2.5830 H   0  0  0  0  0  0  0  0  0  0  0  0
    1.3430   -2.6760    1.8400 H   0  0  0  0  0  0  0  0  0  0  0  0
    1.5760   -1.0020    2.4180 H   0  0  0  0  0  0  0  0  0  0  0  0
    0.6090   -2.1490    3.3290 H   0  0  0  0  0  0  0  0  0  0  0  0
    0.4500    1.0010   -0.8030 H   0  0  0  0  0  0  0  0  0  0  0  0
    0.2790    1.0720    0.9350 H   0  0  0  0  0  0  0  0  0  0  0  0
    3.5610    0.4880   -2.2190 H   0  0  0  0  0  0  0  0  0  0  0  0
    3.1120   -1.1120   -2.8060 H   0  0  0  0  0  0  0  0  0  0  0  0
    1.8600    0.1020   -2.5140 H   0  0  0  0  0  0  0  0  0  0  0  0
    2.4220   -2.8700   -1.2370 H   0  0  0  0  0  0  0  0  0  0  0  0
    2.2630   -2.5690    0.4620 H   0  0  0  0  0  0  0  0  0  0  0  0
    0.3870   -2.6100   -2.5400 H   0  0  0  0  0  0  0  0  0  0  0  0
  1 28  1  0
  1 27  1  0
  2  1  1  6
  1 26  1  0
  2  3  1  0
  2  4  1  0
  3 31  1  0
  3 29  1  0
  3 30  1  0
  4  5  1  6
  4  6  1  0
  4  7  1  0
  6  7  1  0
  7  9  1  0
  7  8  1  1
  9 12  1  0
  9 11  1  0
  9 10  1  1
 11 12  1  0
 12 14  1  0
 12 13  1  1
 13 32  1  0
 13 33  1  0
 13 34  1  0
 14  2  1  0
 14 23  1  0
 14 15  1  1
 15 35  1  0
 15 16  1  0
 15 36  1  0
 16 19  1  0
 16 18  1  0
 16 17  1  1
 19 20  1  0
 19 22  1  0
 19 21  1  1
 20 38  1  0
 20 39  1  0
 20 37  1  0
 22 40  1  0
 22 23  1  0
 22 41  1  0
 23 25  1  0
 23 24  1  1
 25 42  1  0
M  END
>  <id>  (476) 
580

>  <scaffolds>  (476) 
['C1CCCCC1', 'C1CCC2(CC1)CC1OC1C1OC12']

>  <name>  (476) 
Prepacifenol epoxide

>  <formula>  (476) 
C15H21Br2ClO3

>  <SMILES>  (476) 
CC3(C)[C@]1(Br)O[C@@H]1[C@H]2O[C@@]2(C)[C@]34C[C@H](Br)[C@@](C)(Cl)C[C@@H]4O

>  <ChEMBL_id>  (476) 


>  <ZINC_id>  (476) 


>  <PubChem_id>  (476) 


>  <DrugBank_id>  (476) 


>  <CAS_no>  (476) 
55304-01-3

>  <references>  (476) 
[{'journal': {'name': 'Journal of Natural Products', 'id': 5}, 'title': 'New Halogenated Sesquiterpenes from South African Specimens of the Circumtropical Sea Hare Aplysia dactylomela', 'year': 1999, 'start_page': 1618, 'volume': 62, 'issue': None, 'doi': '10.1021/np990229w', 'isbn': '', 'despositor': {'code': 'NFA', 'first_name': 'Ngonidzashe', 'last_name': 'Faya', 'id': 21}, 'refauthors_set': [{'author': {'first_name': 'Kerry', 'initials': 'KL', 'last_name': 'McPhail', 'id': 483}, 'first_author': True, 'id': 1092}, {'author': {'first_name': 'Michael', 'initials': 'MT', 'last_name': 'Davies-Coleman', 'id': 449}, 'first_author': False, 'id': 1093}, {'author': {'first_name': '', 'initials': 'RCB', 'last_name': 'Copley', 'id': 485}, 'first_author': False, 'id': 1094}, {'author': {'first_name': 'Drake', 'initials': 'DS', 'last_name': 'Eggleston', 'id': 458}, 'first_author': False, 'id': 1095}], 'id': 364}]

>  <classifications>  (476) 
[{'classification': 'Sesquiterpene', 'id': 828}, {'classification': 'Terpenoid', 'id': 839}, {'classification': 'Phenol lipids (Classyfire)', 'id': 951}]

>  <molecular_mass>  (476) 
444.59

$$$$
SANC00581_minRM1.pdb
     RDKit          3D

 97101  0  0  1  0  0  0  0  0999 V2000
    3.5680   -5.2450    1.4410 C   0  0  0  0  0  0  0  0  0  0  0  0
    3.7900   -4.0500    0.5740 C   0  0  0  0  0  0  0  0  0  0  0  0
    4.8470   -3.5980    0.1740 O   0  0  0  0  0  0  0  0  0  0  0  0
    2.6120   -3.4490    0.2580 O   0  0  0  0  0  0  0  0  0  0  0  0
    2.6430   -2.2980   -0.5540 C   0  0  1  0  0  0  0  0  0  0  0  0
    2.8530   -2.7240   -2.0250 C   0  0  1  0  0  0  0  0  0  0  0  0
    2.1470   -3.8720   -2.3450 O   0  0  0  0  0  0  0  0  0  0  0  0
    2.4910   -1.5440   -2.9520 C   0  0  0  0  0  0  0  0  0  0  0  0
    1.1980   -1.0740   -2.6910 O   0  0  0  0  0  0  0  0  0  0  0  0
    1.0650   -0.5400   -1.3960 C   0  0  1  0  0  0  0  0  0  0  0  0
   -0.2760   -0.1560   -1.3340 O   0  0  0  0  0  0  0  0  0  0  0  0
   -0.5400    1.1140   -1.9040 C   0  0  0  0  0  0  0  0  0  0  0  0
   -1.8950    1.5700   -1.4860 C   0  0  1  0  0  0  0  0  0  0  0  0
   -3.0580    0.9040   -1.3780 C   0  0  0  0  0  0  0  0  0  0  0  0
   -3.2700   -0.4360   -0.7870 C   0  0  1  0  0  0  0  0  0  0  0  0
   -3.2220   -0.1290    0.7500 C   0  0  2  0  0  0  0  0  0  0  0  0
   -1.7680    0.1350    1.1680 C   0  0  0  0  0  0  0  0  0  0  0  0
   -1.3100    1.4930    1.7620 C   0  0  1  0  0  0  0  0  0  0  0  0
    0.0550    1.4800    1.3550 O   0  0  0  0  0  0  0  0  0  0  0  0
    1.0230    2.0800    2.0960 C   0  0  0  0  0  0  0  0  0  0  0  0
    0.8600    2.3380    3.2750 O   0  0  0  0  0  0  0  0  0  0  0  0
    2.2070    2.3230    1.2590 C   0  0  0  0  0  0  0  0  0  0  0  0
    3.4320    2.3820    1.7840 C   0  0  0  0  0  0  0  0  0  0  0  0
    4.5890    2.6170    0.9510 C   0  0  0  0  0  0  0  0  0  0  0  0
    5.8960    2.8680    1.3730 C   0  0  0  0  0  0  0  0  0  0  0  0
    6.6440    3.0360    0.2080 N   0  0  0  0  0  0  0  0  0  0  0  0
    8.0760    3.2950    0.1410 C   0  0  0  0  0  0  0  0  0  0  0  0
    5.7750    2.8720   -0.8810 C   0  0  0  0  0  0  0  0  0  0  0  0
    4.5210    2.6210   -0.4530 N   0  0  0  0  0  0  0  0  0  0  0  0
   -1.8790    2.8910    1.3170 C   0  0  1  0  0  0  0  0  0  0  0  0
   -2.6310    3.5550    2.4690 C   0  0  0  0  0  0  0  0  0  0  0  0
   -0.7580    3.7740    0.7740 C   0  0  0  0  0  0  0  0  0  0  0  0
   -0.8120    3.7690   -0.5580 C   0  0  0  0  0  0  0  0  0  0  0  0
   -2.0470    2.9920   -0.9880 C   0  0  1  0  0  0  0  0  0  0  0  0
   -2.8590    3.7100   -1.8430 O   0  0  0  0  0  0  0  0  0  0  0  0
   -2.7800    2.8340    0.2380 O   0  0  0  0  0  0  0  0  0  0  0  0
   -3.7650   -1.2950    1.5250 C   0  0  0  0  0  0  0  0  0  0  0  0
   -3.7110   -1.1850    3.0100 C   0  0  0  0  0  0  0  0  0  0  0  0
   -4.2860   -2.3840    0.9540 C   0  0  0  0  0  0  0  0  0  0  0  0
   -4.4380   -2.5410   -0.5170 C   0  0  0  0  0  0  0  0  0  0  0  0
   -4.5710   -1.1590   -1.1820 C   0  0  1  0  0  0  0  0  0  0  0  0
   -5.9170   -0.5420   -0.7520 C   0  0  1  0  0  0  0  0  0  0  0  0
   -6.2540    0.7790   -1.4350 C   0  0  0  0  0  0  0  0  0  0  0  0
   -7.0590   -1.5060   -1.1010 C   0  0  0  0  0  0  0  0  0  0  0  0
    1.2700   -1.6300   -0.3080 C   0  0  1  0  0  0  0  0  0  0  0  0
    0.2540   -2.5800   -0.4930 O   0  0  0  0  0  0  0  0  0  0  0  0
   -0.1410   -3.3400    0.5650 C   0  0  0  0  0  0  0  0  0  0  0  0
   -1.1110   -4.3980    0.1510 C   0  0  0  0  0  0  0  0  0  0  0  0
    0.2670   -3.1200    1.6880 O   0  0  0  0  0  0  0  0  0  0  0  0
    4.5210   -5.6600    1.8010 H   0  0  0  0  0  0  0  0  0  0  0  0
    2.9540   -4.9960    2.3220 H   0  0  0  0  0  0  0  0  0  0  0  0
    3.0400   -6.0430    0.8940 H   0  0  0  0  0  0  0  0  0  0  0  0
    3.4540   -1.5810   -0.2520 H   0  0  0  0  0  0  0  0  0  0  0  0
    3.9200   -3.0310   -2.1870 H   0  0  0  0  0  0  0  0  0  0  0  0
    1.2010   -3.6720   -2.3440 H   0  0  0  0  0  0  0  0  0  0  0  0
    3.2580   -0.7390   -2.8810 H   0  0  0  0  0  0  0  0  0  0  0  0
    2.4510   -1.8590   -4.0170 H   0  0  0  0  0  0  0  0  0  0  0  0
    1.8000    0.3010   -1.2120 H   0  0  0  0  0  0  0  0  0  0  0  0
    0.2500    1.8530   -1.6190 H   0  0  0  0  0  0  0  0  0  0  0  0
   -0.5150    1.0430   -3.0170 H   0  0  0  0  0  0  0  0  0  0  0  0
   -3.9850    1.4940   -1.4730 H   0  0  0  0  0  0  0  0  0  0  0  0
   -2.4320   -1.1280   -1.0650 H   0  0  0  0  0  0  0  0  0  0  0  0
   -3.8680    0.7530    0.9880 H   0  0  0  0  0  0  0  0  0  0  0  0
   -1.4400   -0.6300    1.9130 H   0  0  0  0  0  0  0  0  0  0  0  0
   -1.1040   -0.1260    0.3030 H   0  0  0  0  0  0  0  0  0  0  0  0
   -1.4140    1.4260    2.8800 H   0  0  0  0  0  0  0  0  0  0  0  0
    2.0150    2.4630    0.1870 H   0  0  0  0  0  0  0  0  0  0  0  0
    3.6200    2.2560    2.8570 H   0  0  0  0  0  0  0  0  0  0  0  0
    6.3090    2.9340    2.3730 H   0  0  0  0  0  0  0  0  0  0  0  0
    8.6500    2.3510    0.0970 H   0  0  0  0  0  0  0  0  0  0  0  0
    8.3270    3.8910   -0.7540 H   0  0  0  0  0  0  0  0  0  0  0  0
    8.4250    3.8660    1.0210 H   0  0  0  0  0  0  0  0  0  0  0  0
    6.0880    2.9430   -1.9270 H   0  0  0  0  0  0  0  0  0  0  0  0
   -1.9740    3.7450    3.3290 H   0  0  0  0  0  0  0  0  0  0  0  0
   -3.0620    4.5230    2.1760 H   0  0  0  0  0  0  0  0  0  0  0  0
   -3.4670    2.9300    2.8210 H   0  0  0  0  0  0  0  0  0  0  0  0
   -0.0660    4.2990    1.4260 H   0  0  0  0  0  0  0  0  0  0  0  0
   -0.1680    4.2650   -1.2750 H   0  0  0  0  0  0  0  0  0  0  0  0
   -3.1200    4.5310   -1.4130 H   0  0  0  0  0  0  0  0  0  0  0  0
   -3.6070   -0.1460    3.3610 H   0  0  0  0  0  0  0  0  0  0  0  0
   -4.6210   -1.5810    3.4940 H   0  0  0  0  0  0  0  0  0  0  0  0
   -2.8620   -1.7500    3.4290 H   0  0  0  0  0  0  0  0  0  0  0  0
   -4.6510   -3.2180    1.5620 H   0  0  0  0  0  0  0  0  0  0  0  0
   -3.5790   -3.1120   -0.9350 H   0  0  0  0  0  0  0  0  0  0  0  0
   -5.3140   -3.1890   -0.7490 H   0  0  0  0  0  0  0  0  0  0  0  0
   -4.5800   -1.2660   -2.2960 H   0  0  0  0  0  0  0  0  0  0  0  0
   -5.9160   -0.3800    0.3550 H   0  0  0  0  0  0  0  0  0  0  0  0
   -5.5590    1.5910   -1.1730 H   0  0  0  0  0  0  0  0  0  0  0  0
   -6.2680    0.7010   -2.5310 H   0  0  0  0  0  0  0  0  0  0  0  0
   -7.2460    1.1470   -1.1350 H   0  0  0  0  0  0  0  0  0  0  0  0
   -6.9480   -2.4920   -0.6220 H   0  0  0  0  0  0  0  0  0  0  0  0
   -8.0370   -1.1200   -0.7800 H   0  0  0  0  0  0  0  0  0  0  0  0
   -7.1300   -1.6910   -2.1820 H   0  0  0  0  0  0  0  0  0  0  0  0
    1.2380   -1.1460    0.7060 H   0  0  0  0  0  0  0  0  0  0  0  0
   -0.7140   -5.3940    0.4010 H   0  0  0  0  0  0  0  0  0  0  0  0
   -2.0620   -4.2730    0.6930 H   0  0  0  0  0  0  0  0  0  0  0  0
   -1.3430   -4.3960   -0.9240 H   0  0  0  0  0  0  0  0  0  0  0  0
  1  2  1  0
  1 52  1  0
  1 50  1  0
  1 51  1  0
  2  3  2  0
  2  4  1  0
  4  5  1  0
  5  6  1  0
  5 45  1  0
  5 53  1  1
  6  8  1  0
  6  7  1  0
  6 54  1  1
  7 55  1  0
  8 57  1  0
  8 56  1  0
  8  9  1  0
  9 10  1  0
 10 11  1  0
 10 58  1  1
 10 45  1  0
 11 12  1  0
 12 60  1  0
 12 59  1  0
 13 12  1  1
 13 14  1  0
 13 34  1  0
 14 61  1  0
 14 15  1  0
 15 41  1  0
 15 62  1  1
 15 16  1  0
 16 63  1  6
 16 17  1  0
 16 37  1  0
 17 65  1  0
 17 18  1  0
 17 64  1  0
 18 30  1  0
 18 19  1  0
 18 66  1  1
 19 20  1  0
 20 22  1  0
 20 21  2  0
 22 67  1  0
 22 23  2  0
 23 24  1  0
 23 68  1  0
 24 29  1  0
 24 25  2  0
 25 26  1  0
 25 69  1  0
 26 28  1  0
 26 27  1  0
 27 71  1  0
 27 70  1  0
 27 72  1  0
 28 73  1  0
 28 29  2  0
 30 36  1  0
 30 32  1  0
 30 31  1  1
 31 75  1  0
 31 76  1  0
 31 74  1  0
 32 33  2  0
 32 77  1  0
 33 78  1  0
 33 34  1  0
 34 35  1  6
 34 36  1  0
 35 79  1  0
 37 39  2  0
 37 38  1  0
 38 80  1  0
 38 82  1  0
 38 81  1  0
 39 40  1  0
 39 83  1  0
 40 41  1  0
 40 84  1  0
 40 85  1  0
 41 86  1  6
 41 42  1  0
 42 43  1  0
 42 44  1  0
 42 87  1  1
 43 89  1  0
 43 88  1  0
 43 90  1  0
 44 93  1  0
 44 92  1  0
 44 91  1  0
 45 46  1  0
 45 94  1  1
 46 47  1  0
 47 48  1  0
 47 49  2  0
 48 97  1  0
 48 95  1  0
 48 96  1  0
M  END
>  <id>  (477) 
581

>  <scaffolds>  (477) 
['C1=CCCCC1', 'C1CCOCC1', 'O=C(C=Cc1c[nH]cn1)OC1CC2C=CCCC2C=C(COC2CCCCO2)C2C=CC1O2', 'O=C(C=Cc1c[nH]cn1)OC1CC2C=CCCC2C=CC2C=CC1O2']

>  <name>  (477) 
Eleuthoside A

>  <formula>  (477) 
C36H48N2O11

>  <SMILES>  (477) 
CC1=CC[C@@H]([C@@H]/2[C@H]1C[C@@H]([C@@]3(C=C[C@@](O3)(/C(=C2)/CO[C@H]4[C@H]([C@@H]([C@@H](CO4)O)OC(=O)C)OC(=O)C)O)C)OC(=O)/C=C/C5=CN(C=N5)C)C(C)C

>  <ChEMBL_id>  (477) 


>  <ZINC_id>  (477) 


>  <PubChem_id>  (477) 
 11104406

>  <DrugBank_id>  (477) 


>  <CAS_no>  (477) 
180692-76-6

>  <references>  (477) 
[{'journal': {'name': 'Journal of Natural Products', 'id': 5}, 'title': 'Sarcodictyin A and Two Novel Diterpenoid Glycosides, Eleuthosides A and B, from the Soft Coral Eleutherobia aurea', 'year': 1996, 'start_page': 873, 'volume': 59, 'issue': None, 'doi': '10.1021/np960361l', 'isbn': '', 'despositor': {'code': 'NFA', 'first_name': 'Ngonidzashe', 'last_name': 'Faya', 'id': 21}, 'refauthors_set': [{'author': {'first_name': 'Sharon', 'initials': 'S', 'last_name': 'Ketzinel', 'id': 770}, 'first_author': True, 'id': 1096}, {'author': {'first_name': 'Michael', 'initials': 'M', 'last_name': 'Schleyer', 'id': 452}, 'first_author': False, 'id': 1098}, {'author': {'first_name': 'Yehuda', 'initials': 'Y', 'last_name': 'Benayahu', 'id': 535}, 'first_author': False, 'id': 1099}, {'author': {'first_name': 'Yoel', 'initials': 'Y', 'last_name': 'Kashman', 'id': 536}, 'first_author': False, 'id': 1100}], 'id': 365}]

>  <classifications>  (477) 
[{'classification': 'Diterpene', 'id': 771}, {'classification': 'Glycoside', 'id': 781}, {'classification': 'Terpenoid', 'id': 839}, {'classification': 'Phenol lipids (Classyfire)', 'id': 951}]

>  <molecular_mass>  (477) 
684.77

$$$$
SANC00582_minRM1.pdb
     RDKit          3D

 97101  0  0  1  0  0  0  0  0999 V2000
    5.0740   -3.9940   -3.5980 C   0  0  0  0  0  0  0  0  0  0  0  0
    4.8520   -3.1610   -2.3770 C   0  0  0  0  0  0  0  0  0  0  0  0
    5.5710   -2.2880   -1.9290 O   0  0  0  0  0  0  0  0  0  0  0  0
    3.6930   -3.5010   -1.7560 O   0  0  0  0  0  0  0  0  0  0  0  0
    3.3150   -2.7840   -0.6010 C   0  0  1  0  0  0  0  0  0  0  0  0
    2.8210   -1.3800   -0.9920 C   0  0  0  0  0  0  0  0  0  0  0  0
    2.3330   -0.7340    0.1500 O   0  0  0  0  0  0  0  0  0  0  0  0
    1.2390   -1.3330    0.7840 C   0  0  1  0  0  0  0  0  0  0  0  0
    0.1470   -1.3570   -0.0880 O   0  0  0  0  0  0  0  0  0  0  0  0
   -0.3140   -0.0520   -0.4030 C   0  0  0  0  0  0  0  0  0  0  0  0
   -1.5240   -0.1860   -1.2600 C   0  0  1  0  0  0  0  0  0  0  0  0
   -2.7480   -0.6100   -0.9100 C   0  0  0  0  0  0  0  0  0  0  0  0
   -3.3880   -0.4270    0.4200 C   0  0  1  0  0  0  0  0  0  0  0  0
   -3.8680    1.0660    0.2830 C   0  0  2  0  0  0  0  0  0  0  0  0
   -2.6790    2.0070    0.5260 C   0  0  0  0  0  0  0  0  0  0  0  0
   -2.1500    2.9480   -0.5870 C   0  0  1  0  0  0  0  0  0  0  0  0
   -0.7450    3.0180   -0.3910 O   0  0  0  0  0  0  0  0  0  0  0  0
   -0.2000    3.6420    0.6840 C   0  0  0  0  0  0  0  0  0  0  0  0
   -0.8810    4.3430    1.4120 O   0  0  0  0  0  0  0  0  0  0  0  0
    1.2320    3.3260    0.7600 C   0  0  0  0  0  0  0  0  0  0  0  0
    2.1240    4.1850    1.2600 C   0  0  0  0  0  0  0  0  0  0  0  0
    3.5320    3.8520    1.2500 C   0  0  0  0  0  0  0  0  0  0  0  0
    4.5630    4.4650    1.9600 C   0  0  0  0  0  0  0  0  0  0  0  0
    5.7270    3.7790    1.6040 N   0  0  0  0  0  0  0  0  0  0  0  0
    7.0590    4.0400    2.1310 C   0  0  0  0  0  0  0  0  0  0  0  0
    5.3650    2.7720    0.6940 C   0  0  0  0  0  0  0  0  0  0  0  0
    4.0400    2.8040    0.4600 N   0  0  0  0  0  0  0  0  0  0  0  0
   -2.2170    2.6630   -2.1370 C   0  0  1  0  0  0  0  0  0  0  0  0
   -3.1590    3.6570   -2.8130 C   0  0  0  0  0  0  0  0  0  0  0  0
   -0.8080    2.7030   -2.7280 C   0  0  0  0  0  0  0  0  0  0  0  0
   -0.4010    1.4520   -2.9480 C   0  0  0  0  0  0  0  0  0  0  0  0
   -1.5360    0.5040   -2.6040 C   0  0  1  0  0  0  0  0  0  0  0  0
   -1.8360   -0.3920   -3.6080 O   0  0  0  0  0  0  0  0  0  0  0  0
   -2.6730    1.3830   -2.4900 O   0  0  0  0  0  0  0  0  0  0  0  0
   -4.9880    1.3900    1.2200 C   0  0  0  0  0  0  0  0  0  0  0  0
   -5.4470    2.8090    1.2450 C   0  0  0  0  0  0  0  0  0  0  0  0
   -5.6010    0.4790    1.9740 C   0  0  0  0  0  0  0  0  0  0  0  0
   -5.2560   -0.9630    1.9570 C   0  0  0  0  0  0  0  0  0  0  0  0
   -4.5760   -1.3730    0.6450 C   0  0  2  0  0  0  0  0  0  0  0  0
   -5.3090   -1.2530   -0.1950 H   0  0  0  0  0  0  0  0  0  0  0  0
   -4.1480   -2.8520    0.7340 C   0  0  1  0  0  0  0  0  0  0  0  0
   -5.3620   -3.7390    1.0200 C   0  0  0  0  0  0  0  0  0  0  0  0
   -3.4880   -3.3610   -0.5430 C   0  0  0  0  0  0  0  0  0  0  0  0
    1.6010   -2.7830    1.1880 C   0  0  1  0  0  0  0  0  0  0  0  0
    0.4860   -3.5020    1.6530 O   0  0  0  0  0  0  0  0  0  0  0  0
   -0.0010   -3.1890    2.8810 C   0  0  0  0  0  0  0  0  0  0  0  0
   -1.0860   -4.1200    3.3040 C   0  0  0  0  0  0  0  0  0  0  0  0
    0.4510   -2.2490    3.5140 O   0  0  0  0  0  0  0  0  0  0  0  0
    2.1310   -3.5990   -0.0130 C   0  0  1  0  0  0  0  0  0  0  0  0
    1.0830   -3.6960   -0.9170 O   0  0  0  0  0  0  0  0  0  0  0  0
    5.1990   -5.0590   -3.3370 H   0  0  0  0  0  0  0  0  0  0  0  0
    4.2230   -3.9290   -4.2930 H   0  0  0  0  0  0  0  0  0  0  0  0
    5.9760   -3.6710   -4.1430 H   0  0  0  0  0  0  0  0  0  0  0  0
    4.1550   -2.7240    0.1400 H   0  0  0  0  0  0  0  0  0  0  0  0
    3.6430   -0.7150   -1.3310 H   0  0  0  0  0  0  0  0  0  0  0  0
    2.0710   -1.4300   -1.8140 H   0  0  0  0  0  0  0  0  0  0  0  0
    1.0900   -0.6780    1.6880 H   0  0  0  0  0  0  0  0  0  0  0  0
   -0.5440    0.5230    0.5310 H   0  0  0  0  0  0  0  0  0  0  0  0
    0.4830    0.5340   -0.9170 H   0  0  0  0  0  0  0  0  0  0  0  0
   -3.4680   -0.8530   -1.7110 H   0  0  0  0  0  0  0  0  0  0  0  0
   -2.6740   -0.5440    1.2710 H   0  0  0  0  0  0  0  0  0  0  0  0
   -4.3010    1.2340   -0.7380 H   0  0  0  0  0  0  0  0  0  0  0  0
   -2.8960    2.6750    1.3930 H   0  0  0  0  0  0  0  0  0  0  0  0
   -1.8340    1.4100    0.9440 H   0  0  0  0  0  0  0  0  0  0  0  0
   -2.6260    3.9530   -0.4190 H   0  0  0  0  0  0  0  0  0  0  0  0
    1.5290    2.3460    0.3580 H   0  0  0  0  0  0  0  0  0  0  0  0
    1.8480    5.1540    1.6890 H   0  0  0  0  0  0  0  0  0  0  0  0
    4.5430    5.2970    2.6580 H   0  0  0  0  0  0  0  0  0  0  0  0
    7.1630    3.6760    3.1710 H   0  0  0  0  0  0  0  0  0  0  0  0
    7.8310    3.5360    1.5250 H   0  0  0  0  0  0  0  0  0  0  0  0
    7.2830    5.1220    2.1350 H   0  0  0  0  0  0  0  0  0  0  0  0
    6.0720    2.0690    0.2400 H   0  0  0  0  0  0  0  0  0  0  0  0
   -2.8120    4.6940   -2.6970 H   0  0  0  0  0  0  0  0  0  0  0  0
   -3.2410    3.4690   -3.8930 H   0  0  0  0  0  0  0  0  0  0  0  0
   -4.1780    3.5960   -2.4040 H   0  0  0  0  0  0  0  0  0  0  0  0
   -0.2810    3.6350   -2.8920 H   0  0  0  0  0  0  0  0  0  0  0  0
    0.5450    1.0960   -3.3380 H   0  0  0  0  0  0  0  0  0  0  0  0
   -1.9860    0.1020   -4.4250 H   0  0  0  0  0  0  0  0  0  0  0  0
   -5.1350    3.3810    0.3590 H   0  0  0  0  0  0  0  0  0  0  0  0
   -6.5410    2.8910    1.3000 H   0  0  0  0  0  0  0  0  0  0  0  0
   -5.0560    3.3450    2.1240 H   0  0  0  0  0  0  0  0  0  0  0  0
   -6.4080    0.7610    2.6560 H   0  0  0  0  0  0  0  0  0  0  0  0
   -4.6120   -1.1960    2.8350 H   0  0  0  0  0  0  0  0  0  0  0  0
   -6.1820   -1.5580    2.1220 H   0  0  0  0  0  0  0  0  0  0  0  0
   -3.4170   -2.9600    1.5770 H   0  0  0  0  0  0  0  0  0  0  0  0
   -6.1760   -3.5750    0.2990 H   0  0  0  0  0  0  0  0  0  0  0  0
   -5.1150   -4.8110    0.9730 H   0  0  0  0  0  0  0  0  0  0  0  0
   -5.7850   -3.5800    2.0230 H   0  0  0  0  0  0  0  0  0  0  0  0
   -4.0940   -3.1650   -1.4390 H   0  0  0  0  0  0  0  0  0  0  0  0
   -2.4870   -2.9360   -0.7090 H   0  0  0  0  0  0  0  0  0  0  0  0
   -3.3260   -4.4510   -0.5170 H   0  0  0  0  0  0  0  0  0  0  0  0
    2.4060   -2.7290    1.9740 H   0  0  0  0  0  0  0  0  0  0  0  0
   -0.6830   -5.1140    3.5390 H   0  0  0  0  0  0  0  0  0  0  0  0
   -1.5960   -3.7450    4.2020 H   0  0  0  0  0  0  0  0  0  0  0  0
   -1.8450   -4.2530    2.5180 H   0  0  0  0  0  0  0  0  0  0  0  0
    2.4880   -4.6070    0.3320 H   0  0  0  0  0  0  0  0  0  0  0  0
    1.3520   -4.3020   -1.6130 H   0  0  0  0  0  0  0  0  0  0  0  0
  1 52  1  0
  1 53  1  0
  1 51  1  0
  1  2  1  0
  2  3  2  0
  2  4  1  0
  4  5  1  0
  5  6  1  0
  5 49  1  0
  5 54  1  1
  6 56  1  0
  6 55  1  0
  6  7  1  0
  7  8  1  0
  8  9  1  0
  8 44  1  0
  8 57  1  1
  9 10  1  0
 10 59  1  0
 10 58  1  0
 11 10  1  1
 11 32  1  0
 11 12  1  0
 12 60  1  0
 12 13  1  0
 13 14  1  0
 13 39  1  0
 13 61  1  1
 14 62  1  6
 14 15  1  0
 14 35  1  0
 15 16  1  0
 15 64  1  0
 15 63  1  0
 16 28  1  0
 16 65  1  6
 16 17  1  0
 17 18  1  0
 18 20  1  0
 18 19  2  0
 20 66  1  0
 20 21  2  0
 21 22  1  0
 21 67  1  0
 22 27  1  0
 22 23  2  0
 23 24  1  0
 23 68  1  0
 24 26  1  0
 24 25  1  0
 25 70  1  0
 25 71  1  0
 25 69  1  0
 26 72  1  0
 26 27  2  0
 28 29  1  6
 28 30  1  0
 28 34  1  0
 29 74  1  0
 29 73  1  0
 29 75  1  0
 30 31  2  0
 30 76  1  0
 31 77  1  0
 31 32  1  0
 32 33  1  6
 32 34  1  0
 33 78  1  0
 35 36  1  0
 35 37  2  0
 36 79  1  0
 36 80  1  0
 36 81  1  0
 37 38  1  0
 37 82  1  0
 38 39  1  0
 38 84  1  0
 38 83  1  0
 39 40  1  6
 39 41  1  0
 41 43  1  0
 41 42  1  0
 41 85  1  1
 42 86  1  0
 42 87  1  0
 42 88  1  0
 43 89  1  0
 43 90  1  0
 43 91  1  0
 44 49  1  0
 44 45  1  0
 44 92  1  1
 45 46  1  0
 46 47  1  0
 46 48  2  0
 47 95  1  0
 47 93  1  0
 47 94  1  0
 49 50  1  0
 49 96  1  1
 50 97  1  0
M  END
>  <id>  (478) 
582

>  <scaffolds>  (478) 
['C1=CCCCC1', 'C1CCOCC1', 'O=C(C=Cc1c[nH]cn1)OC1CC2C=CCCC2C=C(COC2CCCCO2)C2C=CC1O2', 'O=C(C=Cc1c[nH]cn1)OC1CC2C=CCCC2C=CC2C=CC1O2']

>  <name>  (478) 
Eleuthoside B

>  <formula>  (478) 
C36H48N2O11

>  <SMILES>  (478) 
CC(=O)OC5COC(OCC2=CC4C(CC(OC(=O)/C=C/c1cn(C)cn1)C3(C)C=CC2(O)O3)C(C)=CC[C@@H]4C(C)C)C(OC(C)=O)C5O

>  <ChEMBL_id>  (478) 


>  <ZINC_id>  (478) 


>  <PubChem_id>  (478) 


>  <DrugBank_id>  (478) 


>  <CAS_no>  (478) 
180692-77-7

>  <references>  (478) 
[{'journal': {'name': 'Journal of Natural Products', 'id': 5}, 'title': 'Sarcodictyin A and Two Novel Diterpenoid Glycosides, Eleuthosides A and B, from the Soft Coral Eleutherobia aurea', 'year': 1996, 'start_page': 873, 'volume': 59, 'issue': None, 'doi': '10.1021/np960361l', 'isbn': '', 'despositor': {'code': 'NFA', 'first_name': 'Ngonidzashe', 'last_name': 'Faya', 'id': 21}, 'refauthors_set': [{'author': {'first_name': 'Sharon', 'initials': 'S', 'last_name': 'Ketzinel', 'id': 770}, 'first_author': True, 'id': 1096}, {'author': {'first_name': 'Michael', 'initials': 'M', 'last_name': 'Schleyer', 'id': 452}, 'first_author': False, 'id': 1098}, {'author': {'first_name': 'Yehuda', 'initials': 'Y', 'last_name': 'Benayahu', 'id': 535}, 'first_author': False, 'id': 1099}, {'author': {'first_name': 'Yoel', 'initials': 'Y', 'last_name': 'Kashman', 'id': 536}, 'first_author': False, 'id': 1100}], 'id': 365}]

>  <classifications>  (478) 
[{'classification': 'Diterpene', 'id': 771}, {'classification': 'Glycoside', 'id': 781}, {'classification': 'Terpenoid', 'id': 839}, {'classification': 'Phenol lipids (Classyfire)', 'id': 951}]

>  <molecular_mass>  (478) 
684.77

$$$$
SANC00583_minRM1.pdb
     RDKit          3D

 72 75  0  0  1  0  0  0  0  0999 V2000
   -4.2820    1.2070    0.1130 H   0  0  0  0  0  0  0  0  0  0  0  0
   -3.2210    0.9320   -0.1400 C   0  0  1  0  0  0  0  0  0  0  0  0
   -3.2140   -0.4890   -0.5680 C   0  0  0  0  0  0  0  0  0  0  0  0
   -2.2520   -1.2690   -1.0980 C   0  0  1  0  0  0  0  0  0  0  0  0
   -1.3100   -0.9290   -2.1600 C   0  0  0  0  0  0  0  0  0  0  0  0
   -0.8750    0.1660   -2.4860 O   0  0  0  0  0  0  0  0  0  0  0  0
   -0.9340   -2.0190   -2.8940 O   0  0  0  0  0  0  0  0  0  0  0  0
    0.0350   -1.8100   -3.8990 C   0  0  0  0  0  0  0  0  0  0  0  0
   -2.0810   -2.5680   -0.3340 C   0  0  1  0  0  0  0  0  0  0  0  0
   -3.1270   -3.4060   -0.6340 O   0  0  0  0  0  0  0  0  0  0  0  0
   -0.7030   -3.1920   -0.3960 C   0  0  0  0  0  0  0  0  0  0  0  0
   -0.0700   -2.9520    0.7520 C   0  0  0  0  0  0  0  0  0  0  0  0
   -0.9880   -2.1860    1.6910 C   0  0  2  0  0  0  0  0  0  0  0  0
   -1.1430   -2.9390    3.0130 C   0  0  0  0  0  0  0  0  0  0  0  0
   -2.2440   -2.2080    1.0500 O   0  0  0  0  0  0  0  0  0  0  0  0
   -0.5030   -0.7180    1.9850 C   0  0  1  0  0  0  0  0  0  0  0  0
   -0.7660   -0.4340    3.0430 H   0  0  0  0  0  0  0  0  0  0  0  0
    0.8960   -0.8750    1.8190 O   0  0  0  0  0  0  0  0  0  0  0  0
    1.7710    0.1030    2.1680 C   0  0  0  0  0  0  0  0  0  0  0  0
    1.4540    0.9640    2.9830 O   0  0  0  0  0  0  0  0  0  0  0  0
    3.0350   -0.0700    1.4410 C   0  0  0  0  0  0  0  0  0  0  0  0
    4.0390    0.8040    1.5890 C   0  0  0  0  0  0  0  0  0  0  0  0
    5.2570    0.6720    0.8220 C   0  0  0  0  0  0  0  0  0  0  0  0
    6.3980    1.4750    0.9110 C   0  0  0  0  0  0  0  0  0  0  0  0
    7.2820    0.9880   -0.0510 N   0  0  0  0  0  0  0  0  0  0  0  0
    8.6170    1.5040   -0.3200 C   0  0  0  0  0  0  0  0  0  0  0  0
    6.6550   -0.0970   -0.6870 C   0  0  0  0  0  0  0  0  0  0  0  0
    5.4260   -0.3050   -0.1740 N   0  0  0  0  0  0  0  0  0  0  0  0
   -0.9610    0.4080    1.0430 C   0  0  0  0  0  0  0  0  0  0  0  0
   -2.4260    0.8480    1.2060 C   0  0  1  0  0  0  0  0  0  0  0  0
   -2.9600    0.1180    1.8710 H   0  0  0  0  0  0  0  0  0  0  0  0
   -2.4630    2.2000    1.8550 C   0  0  0  0  0  0  0  0  0  0  0  0
   -2.2300    2.2130    3.3230 C   0  0  0  0  0  0  0  0  0  0  0  0
   -2.6710    3.3210    1.1660 C   0  0  0  0  0  0  0  0  0  0  0  0
   -2.9190    3.3770   -0.3000 C   0  0  0  0  0  0  0  0  0  0  0  0
   -2.6710    2.0450   -1.0210 C   0  0  2  0  0  0  0  0  0  0  0  0
   -1.5650    1.9320   -1.1460 H   0  0  0  0  0  0  0  0  0  0  0  0
   -3.3430    2.0310   -2.4050 C   0  0  1  0  0  0  0  0  0  0  0  0
   -4.8470    2.2700   -2.3280 C   0  0  0  0  0  0  0  0  0  0  0  0
   -2.7040    3.0820   -3.3100 C   0  0  0  0  0  0  0  0  0  0  0  0
   -4.0680   -1.0300   -0.1100 H   0  0  0  0  0  0  0  0  0  0  0  0
    0.9740   -1.3680   -3.5160 H   0  0  0  0  0  0  0  0  0  0  0  0
    0.2310   -2.8200   -4.2970 H   0  0  0  0  0  0  0  0  0  0  0  0
   -0.3430   -1.1700   -4.7160 H   0  0  0  0  0  0  0  0  0  0  0  0
   -3.0460   -4.2060   -0.1090 H   0  0  0  0  0  0  0  0  0  0  0  0
   -0.3570   -3.7490   -1.2590 H   0  0  0  0  0  0  0  0  0  0  0  0
    0.9250   -3.2610    1.0550 H   0  0  0  0  0  0  0  0  0  0  0  0
   -0.2090   -2.9240    3.5920 H   0  0  0  0  0  0  0  0  0  0  0  0
   -1.9370   -2.5110    3.6430 H   0  0  0  0  0  0  0  0  0  0  0  0
   -1.4110   -3.9920    2.8530 H   0  0  0  0  0  0  0  0  0  0  0  0
    3.0940   -0.9210    0.7490 H   0  0  0  0  0  0  0  0  0  0  0  0
    3.9870    1.6550    2.2810 H   0  0  0  0  0  0  0  0  0  0  0  0
    6.6180    2.3130    1.5640 H   0  0  0  0  0  0  0  0  0  0  0  0
    9.3710    1.0180    0.3270 H   0  0  0  0  0  0  0  0  0  0  0  0
    8.9150    1.2920   -1.3640 H   0  0  0  0  0  0  0  0  0  0  0  0
    8.6770    2.5890   -0.1470 H   0  0  0  0  0  0  0  0  0  0  0  0
    7.1150   -0.6770   -1.4890 H   0  0  0  0  0  0  0  0  0  0  0  0
   -0.3100    1.3000    1.1990 H   0  0  0  0  0  0  0  0  0  0  0  0
   -0.7020    0.1170    0.0080 H   0  0  0  0  0  0  0  0  0  0  0  0
   -1.1750    1.9750    3.5540 H   0  0  0  0  0  0  0  0  0  0  0  0
   -2.4480    3.1860    3.7910 H   0  0  0  0  0  0  0  0  0  0  0  0
   -2.8470    1.4710    3.8540 H   0  0  0  0  0  0  0  0  0  0  0  0
   -2.6800    4.2960    1.6700 H   0  0  0  0  0  0  0  0  0  0  0  0
   -3.9640    3.7340   -0.4670 H   0  0  0  0  0  0  0  0  0  0  0  0
   -2.2760    4.1700   -0.7430 H   0  0  0  0  0  0  0  0  0  0  0  0
   -3.1800    1.0240   -2.8700 H   0  0  0  0  0  0  0  0  0  0  0  0
   -5.1080    3.1260   -1.6750 H   0  0  0  0  0  0  0  0  0  0  0  0
   -5.2850    2.4940   -3.3210 H   0  0  0  0  0  0  0  0  0  0  0  0
   -5.3910    1.3920   -1.9370 H   0  0  0  0  0  0  0  0  0  0  0  0
   -1.6070    3.0060   -3.3260 H   0  0  0  0  0  0  0  0  0  0  0  0
   -3.0320    2.9720   -4.3550 H   0  0  0  0  0  0  0  0  0  0  0  0
   -2.9570    4.1100   -3.0160 H   0  0  0  0  0  0  0  0  0  0  0  0
  2  1  1  1
  2 36  1  0
  2  3  1  0
  2 30  1  0
  3  4  1  0
  3 41  1  0
  4  5  1  1
  4  9  1  0
  5  7  1  0
  5  6  2  0
  7  8  1  0
  8 44  1  0
  8 43  1  0
  8 42  1  0
  9 10  1  6
  9 11  1  0
  9 15  1  0
 10 45  1  0
 11 46  1  0
 11 12  2  0
 12 47  1  0
 12 13  1  0
 13 15  1  0
 13 16  1  0
 13 14  1  1
 14 50  1  0
 14 48  1  0
 14 49  1  0
 16 29  1  0
 16 18  1  0
 16 17  1  1
 18 19  1  0
 19 21  1  0
 19 20  2  0
 21 51  1  0
 21 22  2  0
 22 23  1  0
 22 52  1  0
 23 28  1  0
 23 24  2  0
 24 25  1  0
 24 53  1  0
 25 27  1  0
 25 26  1  0
 26 55  1  0
 26 56  1  0
 26 54  1  0
 27 57  1  0
 27 28  2  0
 29 59  1  0
 29 58  1  0
 29 30  1  0
 30 32  1  0
 30 31  1  1
 32 34  2  0
 32 33  1  0
 33 60  1  0
 33 61  1  0
 33 62  1  0
 34 35  1  0
 34 63  1  0
 35 36  1  0
 35 65  1  0
 35 64  1  0
 36 38  1  0
 36 37  1  6
 38 40  1  0
 38 66  1  6
 38 39  1  0
 39 68  1  0
 39 69  1  0
 39 67  1  0
 40 71  1  0
 40 70  1  0
 40 72  1  0
M  END
>  <id>  (479) 
583

>  <scaffolds>  (479) 
['C1=CCCCC1', 'O=C(C=Cc1c[nH]cn1)OC1CC2C=CCCC2C=CC2C=CC1O2']

>  <name>  (479) 
Sarcodictyin A

>  <formula>  (479) 
C28H36N2O6

>  <SMILES>  (479) 
[H][C@]34C=C(C(=O)OC)[C@@]1(O)C=C[C@](C)(O1)[C@@H](OC(=O)/C=C/c2cn(C)cn2)C[C@@]3([H])C(C)=CC[C@@H]4C(C)C

>  <ChEMBL_id>  (479) 


>  <ZINC_id>  (479) 


>  <PubChem_id>  (479) 


>  <DrugBank_id>  (479) 


>  <CAS_no>  (479) 
113540-81-1

>  <references>  (479) 
[{'journal': {'name': 'Journal of Natural Products', 'id': 5}, 'title': 'Sarcodictyin A and Two Novel Diterpenoid Glycosides, Eleuthosides A and B, from the Soft Coral Eleutherobia aurea', 'year': 1996, 'start_page': 873, 'volume': 59, 'issue': None, 'doi': '10.1021/np960361l', 'isbn': '', 'despositor': {'code': 'NFA', 'first_name': 'Ngonidzashe', 'last_name': 'Faya', 'id': 21}, 'refauthors_set': [{'author': {'first_name': 'Sharon', 'initials': 'S', 'last_name': 'Ketzinel', 'id': 770}, 'first_author': True, 'id': 1096}, {'author': {'first_name': 'Michael', 'initials': 'M', 'last_name': 'Schleyer', 'id': 452}, 'first_author': False, 'id': 1098}, {'author': {'first_name': 'Yehuda', 'initials': 'Y', 'last_name': 'Benayahu', 'id': 535}, 'first_author': False, 'id': 1099}, {'author': {'first_name': 'Yoel', 'initials': 'Y', 'last_name': 'Kashman', 'id': 536}, 'first_author': False, 'id': 1100}], 'id': 365}]

>  <classifications>  (479) 
[{'classification': 'Diterpene', 'id': 771}, {'classification': 'Glycoside', 'id': 781}, {'classification': 'Terpenoid', 'id': 839}, {'classification': 'Phenol lipids (Classyfire)', 'id': 951}]

>  <molecular_mass>  (479) 
496.59

$$$$
SANC00584_minRM1.pdb
     RDKit          3D

 68 74  0  0  1  0  0  0  0  0999 V2000
    3.5940   -4.9100   -0.5970 C   0  0  0  0  0  0  0  0  0  0  0  0
    2.8270   -3.6490   -0.4340 C   0  0  0  0  0  0  0  0  0  0  0  0
    1.4690   -3.6530   -0.2880 C   0  0  0  0  0  0  0  0  0  0  0  0
    0.7350   -2.4510   -0.1030 C   0  0  0  0  0  0  0  0  0  0  0  0
   -0.6860   -2.4590    0.0500 C   0  0  0  0  0  0  0  0  0  0  0  0
   -1.4160   -3.6700    0.1760 C   0  0  0  0  0  0  0  0  0  0  0  0
   -2.7630   -3.6730    0.4090 C   0  0  0  0  0  0  0  0  0  0  0  0
   -3.5250   -4.9400    0.5550 C   0  0  0  0  0  0  0  0  0  0  0  0
   -3.4420   -2.4220    0.5240 C   0  0  0  0  0  0  0  0  0  0  0  0
   -4.7420   -2.4860    0.8230 O   0  0  0  0  0  0  0  0  0  0  0  0
   -2.7620   -1.2300    0.3170 C   0  0  0  0  0  0  0  0  0  0  0  0
   -3.4830    0.0340    0.3480 C   0  0  0  0  0  0  0  0  0  0  0  0
   -4.6580    0.0610    0.7290 O   0  0  0  0  0  0  0  0  0  0  0  0
   -2.7820    1.2000   -0.1860 C   0  0  0  0  0  0  0  0  0  0  0  0
   -1.4580    1.1580   -0.4210 C   0  0  0  0  0  0  0  0  0  0  0  0
   -0.8650    2.2520   -1.2380 C   0  0  0  0  0  0  0  0  0  0  0  0
   -1.9540    2.7580   -2.2050 C   0  0  2  0  0  0  0  0  0  0  0  0
   -2.2970    1.9200   -2.8720 H   0  0  0  0  0  0  0  0  0  0  0  0
   -1.4410    3.9280   -3.0430 C   0  0  0  0  0  0  0  0  0  0  0  0
   -3.0310    3.2750   -1.4670 O   0  0  0  0  0  0  0  0  0  0  0  0
   -3.6090    2.4050   -0.5190 C   0  0  2  0  0  0  0  0  0  0  0  0
   -4.6020    2.0920   -0.9420 H   0  0  0  0  0  0  0  0  0  0  0  0
   -3.7960    3.2350    0.7560 C   0  0  0  0  0  0  0  0  0  0  0  0
   -0.6640   -0.0050   -0.0580 C   0  0  0  0  0  0  0  0  0  0  0  0
    0.6990   -0.0030    0.1090 C   0  0  0  0  0  0  0  0  0  0  0  0
    1.4750    1.1650    0.4850 C   0  0  0  0  0  0  0  0  0  0  0  0
    0.8560    2.2530    1.2920 C   0  0  0  0  0  0  0  0  0  0  0  0
    1.9140    2.7460    2.2970 C   0  0  2  0  0  0  0  0  0  0  0  0
    2.2400    1.8990    2.9590 H   0  0  0  0  0  0  0  0  0  0  0  0
    1.3730    3.9010    3.1380 C   0  0  0  0  0  0  0  0  0  0  0  0
    3.0170    3.2750    1.6090 O   0  0  0  0  0  0  0  0  0  0  0  0
    3.5940    2.4510    0.6210 C   0  0  2  0  0  0  0  0  0  0  0  0
    4.6150    2.1840    1.0040 H   0  0  0  0  0  0  0  0  0  0  0  0
    3.6950    3.3100   -0.6460 C   0  0  0  0  0  0  0  0  0  0  0  0
    2.8040    1.2210    0.2820 C   0  0  0  0  0  0  0  0  0  0  0  0
    3.5380    0.0550   -0.1990 C   0  0  0  0  0  0  0  0  0  0  0  0
    4.7330    0.0850   -0.5070 O   0  0  0  0  0  0  0  0  0  0  0  0
    2.8180   -1.2110   -0.2180 C   0  0  0  0  0  0  0  0  0  0  0  0
    3.5140   -2.3970   -0.4200 C   0  0  0  0  0  0  0  0  0  0  0  0
    4.8360   -2.4480   -0.6020 O   0  0  0  0  0  0  0  0  0  0  0  0
    1.4150   -1.2350   -0.0510 C   0  0  0  0  0  0  0  0  0  0  0  0
   -1.3690   -1.2440    0.0780 C   0  0  0  0  0  0  0  0  0  0  0  0
    4.0900   -5.1880    0.3450 H   0  0  0  0  0  0  0  0  0  0  0  0
    2.9650   -5.7620   -0.8900 H   0  0  0  0  0  0  0  0  0  0  0  0
    4.3850   -4.8280   -1.3540 H   0  0  0  0  0  0  0  0  0  0  0  0
    0.9160   -4.6030   -0.3110 H   0  0  0  0  0  0  0  0  0  0  0  0
   -0.8690   -4.6200    0.0870 H   0  0  0  0  0  0  0  0  0  0  0  0
   -3.7730   -5.1290    1.6120 H   0  0  0  0  0  0  0  0  0  0  0  0
   -4.4800   -4.9140    0.0060 H   0  0  0  0  0  0  0  0  0  0  0  0
   -2.9750   -5.8200    0.1900 H   0  0  0  0  0  0  0  0  0  0  0  0
   -5.1250   -1.5780    0.9310 H   0  0  0  0  0  0  0  0  0  0  0  0
   -0.5210    3.1000   -0.6060 H   0  0  0  0  0  0  0  0  0  0  0  0
    0.0300    1.9110   -1.7960 H   0  0  0  0  0  0  0  0  0  0  0  0
   -0.5700    3.6350   -3.6440 H   0  0  0  0  0  0  0  0  0  0  0  0
   -2.2120    4.2950   -3.7370 H   0  0  0  0  0  0  0  0  0  0  0  0
   -1.1440    4.7870   -2.4240 H   0  0  0  0  0  0  0  0  0  0  0  0
   -4.3870    4.1420    0.5640 H   0  0  0  0  0  0  0  0  0  0  0  0
   -4.3240    2.6600    1.5290 H   0  0  0  0  0  0  0  0  0  0  0  0
   -2.8350    3.5620    1.1780 H   0  0  0  0  0  0  0  0  0  0  0  0
    0.5320    3.1040    0.6510 H   0  0  0  0  0  0  0  0  0  0  0  0
   -0.0570    1.9120    1.8190 H   0  0  0  0  0  0  0  0  0  0  0  0
    0.4980    3.5890    3.7240 H   0  0  0  0  0  0  0  0  0  0  0  0
    2.1260    4.2730    3.8470 H   0  0  0  0  0  0  0  0  0  0  0  0
    1.0690    4.7610    2.5240 H   0  0  0  0  0  0  0  0  0  0  0  0
    4.2490    4.2400   -0.4600 H   0  0  0  0  0  0  0  0  0  0  0  0
    4.2220    2.7740   -1.4480 H   0  0  0  0  0  0  0  0  0  0  0  0
    2.7060    3.5970   -1.0300 H   0  0  0  0  0  0  0  0  0  0  0  0
    5.2070   -1.5300   -0.6690 H   0  0  0  0  0  0  0  0  0  0  0  0
  1 45  1  0
  1 44  1  0
  1  2  1  0
  1 43  1  0
  2 39  2  0
  2  3  1  0
  3 46  1  0
  3  4  2  0
  4 41  1  0
  4  5  1  0
  5 42  2  0
  5  6  1  0
  6 47  1  0
  6  7  2  0
  7  9  1  0
  7  8  1  0
  8 49  1  0
  8 50  1  0
  8 48  1  0
  9 11  2  0
  9 10  1  0
 10 51  1  0
 11 42  1  0
 11 12  1  0
 12 14  1  0
 12 13  2  0
 14 21  1  0
 14 15  2  0
 15 16  1  0
 15 24  1  0
 16 17  1  0
 16 53  1  0
 16 52  1  0
 17 19  1  0
 17 18  1  6
 17 20  1  0
 19 55  1  0
 19 54  1  0
 19 56  1  0
 20 21  1  0
 21 22  1  6
 21 23  1  0
 23 57  1  0
 23 59  1  0
 23 58  1  0
 24 42  1  0
 24 25  2  0
 25 41  1  0
 25 26  1  0
 26 35  2  0
 26 27  1  0
 27 60  1  0
 27 61  1  0
 27 28  1  0
 28 31  1  0
 28 29  1  1
 28 30  1  0
 30 64  1  0
 30 62  1  0
 30 63  1  0
 31 32  1  0
 32 34  1  0
 32 35  1  0
 32 33  1  1
 34 66  1  0
 34 67  1  0
 34 65  1  0
 35 36  1  0
 36 37  2  0
 36 38  1  0
 38 39  1  0
 38 41  2  0
 39 40  1  0
 40 68  1  0
M  END
>  <id>  (480) 
584

>  <scaffolds>  (480) 
['c1ccccc1', 'c1ccc2ccccc2c1']

>  <name>  (480) 
Scutiaquinone A

>  <formula>  (480) 
C32H30O6

>  <SMILES>  (480) 
Cc3cc4c6cc(C)c(O)c7c(=O)c1c(C[C@H](C)O[C@@H]1C)c(c5c2C[C@H](C)O[C@H](C)c2c(=O)c(c3O)c45)c67

>  <ChEMBL_id>  (480) 


>  <ZINC_id>  (480) 


>  <PubChem_id>  (480) 


>  <DrugBank_id>  (480) 


>  <CAS_no>  (480) 
925462-24-4

>  <references>  (480) 
[{'journal': {'name': 'Journal of Natural Products', 'id': 5}, 'title': 'Scutiaquinones A and B, Perylenequinones from the Roots of Scutia myrtina with Anthelmintic Activity', 'year': 2007, 'start_page': 425, 'volume': 70, 'issue': None, 'doi': '10.1021/np0604937', 'isbn': '', 'despositor': {'code': 'NFA', 'first_name': 'Ngonidzashe', 'last_name': 'Faya', 'id': 21}, 'refauthors_set': [{'author': {'first_name': 'Sloan', 'initials': 'S', 'last_name': 'Ayers', 'id': 771}, 'first_author': True, 'id': 1101}, {'author': {'first_name': 'Deborah', 'initials': 'DL', 'last_name': 'Zink', 'id': 772}, 'first_author': False, 'id': 1102}, {'author': {'first_name': 'Kenneth', 'initials': 'K', 'last_name': 'Mohn', 'id': 773}, 'first_author': False, 'id': 1103}, {'author': {'first_name': 'Joanne', 'initials': 'JS', 'last_name': 'Powell', 'id': 774}, 'first_author': False, 'id': 1104}, {'author': {'first_name': 'Christine', 'initials': 'CM', 'last_name': 'Brown', 'id': 775}, 'first_author': False, 'id': 1105}, {'author': {'first_name': 'Terry', 'initials': 'T', 'last_name': 'Murphy', 'id': 776}, 'first_author': False, 'id': 1106}, {'author': {'first_name': 'Robert', 'initials': 'R', 'last_name': 'Brand', 'id': 777}, 'first_author': False, 'id': 1107}, {'author': {'first_name': 'Seef', 'initials': 'S', 'last_name': 'Pretorius', 'id': 778}, 'first_author': False, 'id': 1108}, {'author': {'first_name': 'Dennis', 'initials': 'D', 'last_name': 'Stevenson', 'id': 779}, 'first_author': False, 'id': 1109}, {'author': {'first_name': 'Donald', 'initials': 'D', 'last_name': 'Thompson', 'id': 780}, 'first_author': False, 'id': 1110}, {'author': {'first_name': 'Sheo', 'initials': 'SB', 'last_name': 'Singh', 'id': 781}, 'first_author': False, 'id': 1111}], 'id': 366}]

>  <classifications>  (480) 
[{'classification': 'Perylenequinone', 'id': 803}, {'classification': 'Perylenequinones (Classyfire)', 'id': 989}]

>  <molecular_mass>  (480) 
510.58

$$$$
SANC00585_minRM1.pdb
     RDKit          3D

 68 74  0  0  1  0  0  0  0  0999 V2000
    0.3910    5.1220   -0.9400 C   0  0  0  0  0  0  0  0  0  0  0  0
   -0.0260    3.7330   -0.6110 C   0  0  0  0  0  0  0  0  0  0  0  0
    0.8570    2.6900   -0.6510 C   0  0  0  0  0  0  0  0  0  0  0  0
    0.4790    1.3690   -0.2990 C   0  0  0  0  0  0  0  0  0  0  0  0
    1.4320    0.3110   -0.1450 C   0  0  0  0  0  0  0  0  0  0  0  0
    2.8130    0.5230    0.1530 C   0  0  0  0  0  0  0  0  0  0  0  0
    3.3200    1.8620    0.5700 C   0  0  0  0  0  0  0  0  0  0  0  0
    4.6710    1.7420    1.2920 C   0  0  2  0  0  0  0  0  0  0  0  0
    4.5350    1.2320    2.2840 H   0  0  0  0  0  0  0  0  0  0  0  0
    5.3130    3.1150    1.4810 C   0  0  0  0  0  0  0  0  0  0  0  0
    5.5560    1.0310    0.4650 O   0  0  0  0  0  0  0  0  0  0  0  0
    5.1900   -0.3170    0.2760 C   0  0  2  0  0  0  0  0  0  0  0  0
    5.5830   -0.9190    1.1410 H   0  0  0  0  0  0  0  0  0  0  0  0
    5.8810   -0.7150   -1.0320 C   0  0  0  0  0  0  0  0  0  0  0  0
    3.7050   -0.5210    0.1470 C   0  0  0  0  0  0  0  0  0  0  0  0
    3.2140   -1.8520    0.0480 C   0  0  0  0  0  0  0  0  0  0  0  0
    4.1120   -2.8280    0.2240 O   0  0  0  0  0  0  0  0  0  0  0  0
    1.8590   -2.0880   -0.1520 C   0  0  0  0  0  0  0  0  0  0  0  0
    1.3860   -3.4580   -0.2500 C   0  0  0  0  0  0  0  0  0  0  0  0
    2.1520   -4.3970   -0.0160 O   0  0  0  0  0  0  0  0  0  0  0  0
    0.0020   -3.6560   -0.6890 C   0  0  0  0  0  0  0  0  0  0  0  0
   -0.4010   -5.0330   -1.0690 C   0  0  0  0  0  0  0  0  0  0  0  0
   -0.8320   -2.6090   -0.7580 C   0  0  0  0  0  0  0  0  0  0  0  0
   -0.4430   -1.2710   -0.3580 C   0  0  0  0  0  0  0  0  0  0  0  0
   -1.3500   -0.2680   -0.1050 C   0  0  0  0  0  0  0  0  0  0  0  0
   -2.7610   -0.5010    0.1780 C   0  0  0  0  0  0  0  0  0  0  0  0
   -3.2270   -1.8620    0.5730 C   0  0  0  0  0  0  0  0  0  0  0  0
   -4.5630   -1.7790    1.3290 C   0  0  2  0  0  0  0  0  0  0  0  0
   -4.4160   -1.2780    2.3240 H   0  0  0  0  0  0  0  0  0  0  0  0
   -5.1710   -3.1670    1.5140 C   0  0  0  0  0  0  0  0  0  0  0  0
   -5.4810   -1.0730    0.5360 O   0  0  0  0  0  0  0  0  0  0  0  0
   -5.1380    0.2780    0.3310 C   0  0  2  0  0  0  0  0  0  0  0  0
   -5.5160    0.8810    1.2020 H   0  0  0  0  0  0  0  0  0  0  0  0
   -5.8620    0.6680   -0.9610 C   0  0  0  0  0  0  0  0  0  0  0  0
   -3.6600    0.5020    0.1770 C   0  0  0  0  0  0  0  0  0  0  0  0
   -3.2310    1.8920    0.0670 C   0  0  0  0  0  0  0  0  0  0  0  0
   -4.0170    2.8450    0.1520 O   0  0  0  0  0  0  0  0  0  0  0  0
   -1.8120    2.1510   -0.1080 C   0  0  0  0  0  0  0  0  0  0  0  0
   -1.3850    3.4620   -0.2820 C   0  0  0  0  0  0  0  0  0  0  0  0
   -2.1890    4.5280   -0.1950 O   0  0  0  0  0  0  0  0  0  0  0  0
   -0.8830    1.0870   -0.1430 C   0  0  0  0  0  0  0  0  0  0  0  0
    0.9620   -1.0000   -0.2460 C   0  0  0  0  0  0  0  0  0  0  0  0
    0.4790    5.7230   -0.0180 H   0  0  0  0  0  0  0  0  0  0  0  0
    1.3610    5.1750   -1.4550 H   0  0  0  0  0  0  0  0  0  0  0  0
   -0.3360    5.6400   -1.5860 H   0  0  0  0  0  0  0  0  0  0  0  0
    1.8730    2.8720   -1.0260 H   0  0  0  0  0  0  0  0  0  0  0  0
    3.4210    2.5150   -0.3290 H   0  0  0  0  0  0  0  0  0  0  0  0
    2.5940    2.3710    1.2410 H   0  0  0  0  0  0  0  0  0  0  0  0
    4.6660    3.7790    2.0700 H   0  0  0  0  0  0  0  0  0  0  0  0
    6.2740    3.0430    2.0120 H   0  0  0  0  0  0  0  0  0  0  0  0
    5.5200    3.6220    0.5270 H   0  0  0  0  0  0  0  0  0  0  0  0
    6.9610   -0.5070   -0.9950 H   0  0  0  0  0  0  0  0  0  0  0  0
    5.7740   -1.7860   -1.2500 H   0  0  0  0  0  0  0  0  0  0  0  0
    5.4830   -0.1620   -1.8940 H   0  0  0  0  0  0  0  0  0  0  0  0
    3.6640   -3.7110    0.2210 H   0  0  0  0  0  0  0  0  0  0  0  0
   -0.6500   -5.6170   -0.1650 H   0  0  0  0  0  0  0  0  0  0  0  0
   -1.2810   -5.0650   -1.7280 H   0  0  0  0  0  0  0  0  0  0  0  0
    0.4040   -5.5850   -1.5770 H   0  0  0  0  0  0  0  0  0  0  0  0
   -1.8320   -2.7310   -1.2020 H   0  0  0  0  0  0  0  0  0  0  0  0
   -3.3400   -2.4960   -0.3370 H   0  0  0  0  0  0  0  0  0  0  0  0
   -2.4760   -2.3720    1.2140 H   0  0  0  0  0  0  0  0  0  0  0  0
   -4.4960   -3.8250    2.0780 H   0  0  0  0  0  0  0  0  0  0  0  0
   -6.1210   -3.1210    2.0680 H   0  0  0  0  0  0  0  0  0  0  0  0
   -5.3930   -3.6630    0.5580 H   0  0  0  0  0  0  0  0  0  0  0  0
   -6.9370    0.4350   -0.9050 H   0  0  0  0  0  0  0  0  0  0  0  0
   -5.7810    1.7420   -1.1760 H   0  0  0  0  0  0  0  0  0  0  0  0
   -5.4670    0.1270   -1.8330 H   0  0  0  0  0  0  0  0  0  0  0  0
   -3.1250    4.2490   -0.0450 H   0  0  0  0  0  0  0  0  0  0  0  0
  1 45  1  0
  1 44  1  0
  1  2  1  0
  1 43  1  0
  2  3  2  0
  2 39  1  0
  3 46  1  0
  3  4  1  0
  4  5  2  0
  4 41  1  0
  5 42  1  0
  5  6  1  0
  6 15  2  0
  6  7  1  0
  7 47  1  0
  7 48  1  0
  7  8  1  0
  8 11  1  0
  8 10  1  0
  8  9  1  1
 10 51  1  0
 10 50  1  0
 10 49  1  0
 11 12  1  0
 12 14  1  0
 12 15  1  0
 12 13  1  1
 14 54  1  0
 14 53  1  0
 14 52  1  0
 15 16  1  0
 16 18  2  0
 16 17  1  0
 17 55  1  0
 18 19  1  0
 18 42  1  0
 19 21  1  0
 19 20  2  0
 21 22  1  0
 21 23  2  0
 22 57  1  0
 22 58  1  0
 22 56  1  0
 23 59  1  0
 23 24  1  0
 24 42  2  0
 24 25  1  0
 25 41  2  0
 25 26  1  0
 26 35  2  0
 26 27  1  0
 27 60  1  0
 27 61  1  0
 27 28  1  0
 28 31  1  0
 28 30  1  0
 28 29  1  1
 30 64  1  0
 30 63  1  0
 30 62  1  0
 31 32  1  0
 32 34  1  0
 32 35  1  0
 32 33  1  1
 34 67  1  0
 34 66  1  0
 34 65  1  0
 35 36  1  0
 36 38  1  0
 36 37  2  0
 38 39  2  0
 38 41  1  0
 39 40  1  0
 40 68  1  0
M  END
>  <id>  (481) 
585

>  <scaffolds>  (481) 
['c1ccccc1', 'c1ccc2ccccc2c1']

>  <name>  (481) 
Scutiaquinone B

>  <formula>  (481) 
C32H30O6

>  <SMILES>  (481) 
Cc3cc4c7c1C[C@H](C)O[C@H](C)c1c(O)c6c(=O)c(C)cc(c5c2C[C@H](C)O[C@H](C)c2c(=O)c(c3O)c45)c67

>  <ChEMBL_id>  (481) 


>  <ZINC_id>  (481) 


>  <PubChem_id>  (481) 


>  <DrugBank_id>  (481) 


>  <CAS_no>  (481) 
925462-26-6

>  <references>  (481) 
[{'journal': {'name': 'Journal of Natural Products', 'id': 5}, 'title': 'Scutiaquinones A and B, Perylenequinones from the Roots of Scutia myrtina with Anthelmintic Activity', 'year': 2007, 'start_page': 425, 'volume': 70, 'issue': None, 'doi': '10.1021/np0604937', 'isbn': '', 'despositor': {'code': 'NFA', 'first_name': 'Ngonidzashe', 'last_name': 'Faya', 'id': 21}, 'refauthors_set': [{'author': {'first_name': 'Sloan', 'initials': 'S', 'last_name': 'Ayers', 'id': 771}, 'first_author': True, 'id': 1101}, {'author': {'first_name': 'Deborah', 'initials': 'DL', 'last_name': 'Zink', 'id': 772}, 'first_author': False, 'id': 1102}, {'author': {'first_name': 'Kenneth', 'initials': 'K', 'last_name': 'Mohn', 'id': 773}, 'first_author': False, 'id': 1103}, {'author': {'first_name': 'Joanne', 'initials': 'JS', 'last_name': 'Powell', 'id': 774}, 'first_author': False, 'id': 1104}, {'author': {'first_name': 'Christine', 'initials': 'CM', 'last_name': 'Brown', 'id': 775}, 'first_author': False, 'id': 1105}, {'author': {'first_name': 'Terry', 'initials': 'T', 'last_name': 'Murphy', 'id': 776}, 'first_author': False, 'id': 1106}, {'author': {'first_name': 'Robert', 'initials': 'R', 'last_name': 'Brand', 'id': 777}, 'first_author': False, 'id': 1107}, {'author': {'first_name': 'Seef', 'initials': 'S', 'last_name': 'Pretorius', 'id': 778}, 'first_author': False, 'id': 1108}, {'author': {'first_name': 'Dennis', 'initials': 'D', 'last_name': 'Stevenson', 'id': 779}, 'first_author': False, 'id': 1109}, {'author': {'first_name': 'Donald', 'initials': 'D', 'last_name': 'Thompson', 'id': 780}, 'first_author': False, 'id': 1110}, {'author': {'first_name': 'Sheo', 'initials': 'SB', 'last_name': 'Singh', 'id': 781}, 'first_author': False, 'id': 1111}], 'id': 366}]

>  <classifications>  (481) 
[{'classification': 'Perylenequinone', 'id': 803}, {'classification': 'Perylenequinones (Classyfire)', 'id': 989}]

>  <molecular_mass>  (481) 
510.58

$$$$
SANC00586_minRM1.pdb
     RDKit          3D

 85 88  0  0  1  0  0  0  0  0999 V2000
   -3.7930   -0.7840    1.5290 H   0  0  0  0  0  0  0  0  0  0  0  0
   -4.0060   -1.0270    0.4470 C   0  0  1  0  0  0  0  0  0  0  0  0
   -4.3080   -2.5310    0.3300 C   0  0  0  0  0  0  0  0  0  0  0  0
   -3.0940   -3.3420    0.7580 C   0  0  0  0  0  0  0  0  0  0  0  0
   -1.8930   -2.9030   -0.0150 C   0  0  0  0  0  0  0  0  0  0  0  0
   -1.2030   -3.7560   -0.7660 C   0  0  0  0  0  0  0  0  0  0  0  0
   -1.5790   -1.4450    0.1440 C   0  0  1  0  0  0  0  0  0  0  0  0
   -1.5020   -1.2380    1.2470 H   0  0  0  0  0  0  0  0  0  0  0  0
   -0.2420   -1.0420   -0.4950 C   0  0  0  0  0  0  0  0  0  0  0  0
    0.9060   -1.4330    0.4370 C   0  0  0  0  0  0  0  0  0  0  0  0
    2.3560   -1.2550   -0.0970 C   0  0  2  0  0  0  0  0  0  0  0  0
    2.4160   -1.3990   -1.4820 O   0  0  0  0  0  0  0  0  0  0  0  0
    3.2340   -2.3380    0.5970 C   0  0  1  0  0  0  0  0  0  0  0  0
    3.1640   -2.1640    1.7040 H   0  0  0  0  0  0  0  0  0  0  0  0
    2.7630   -3.7630    0.3110 C   0  0  0  0  0  0  0  0  0  0  0  0
    4.6940   -2.2310    0.1700 C   0  0  0  0  0  0  0  0  0  0  0  0
    5.2490   -0.8690    0.5380 C   0  0  0  0  0  0  0  0  0  0  0  0
    4.4350    0.2110   -0.1920 C   0  0  2  0  0  0  0  0  0  0  0  0
    4.5560    0.0490   -1.2980 H   0  0  0  0  0  0  0  0  0  0  0  0
    5.0530    1.3940    0.2520 O   0  0  0  0  0  0  0  0  0  0  0  0
    4.8520    2.5960   -0.4380 C   0  0  1  0  0  0  0  0  0  0  0  0
    6.0760    3.4350   -0.0180 C   0  0  0  0  0  0  0  0  0  0  0  0
    4.8330    2.5000   -1.9600 C   0  0  0  0  0  0  0  0  0  0  0  0
    3.5650    3.2300    0.0970 C   0  0  0  0  0  0  0  0  0  0  0  0
    3.6160    4.2360    0.7850 O   0  0  0  0  0  0  0  0  0  0  0  0
    2.2240    2.6390   -0.2350 C   0  0  0  0  0  0  0  0  0  0  0  0
    2.2180    1.1980   -0.7220 C   0  0  0  0  0  0  0  0  0  0  0  0
    2.9340    0.1820    0.1810 C   0  0  1  0  0  0  0  0  0  0  0  0
    2.7440    0.5160    1.6560 C   0  0  0  0  0  0  0  0  0  0  0  0
   -2.7760   -0.6320   -0.4040 C   0  0  1  0  0  0  0  0  0  0  0  0
   -2.9820   -0.9290   -1.8830 C   0  0  0  0  0  0  0  0  0  0  0  0
   -2.5180    0.8690   -0.2140 C   0  0  0  0  0  0  0  0  0  0  0  0
   -3.6660    1.7450   -0.7010 C   0  0  0  0  0  0  0  0  0  0  0  0
   -4.7150    1.9840    0.3970 C   0  0  1  0  0  0  0  0  0  0  0  0
   -4.1800    2.2770    1.3500 H   0  0  0  0  0  0  0  0  0  0  0  0
   -5.5760    3.0210    0.0140 O   0  0  0  0  0  0  0  0  0  0  0  0
   -5.6280    0.7410    0.6660 C   0  0  1  0  0  0  0  0  0  0  0  0
   -5.7110    0.4960    2.1790 C   0  0  0  0  0  0  0  0  0  0  0  0
   -7.0560    0.9040    0.1200 C   0  0  0  0  0  0  0  0  0  0  0  0
   -5.1590   -0.3870   -0.0310 O   0  0  0  0  0  0  0  0  0  0  0  0
   -5.1920   -2.7930    0.9490 H   0  0  0  0  0  0  0  0  0  0  0  0
   -4.6190   -2.7970   -0.7030 H   0  0  0  0  0  0  0  0  0  0  0  0
   -2.9050   -3.2370    1.8480 H   0  0  0  0  0  0  0  0  0  0  0  0
   -3.2980   -4.4250    0.6250 H   0  0  0  0  0  0  0  0  0  0  0  0
   -1.4530   -4.8090   -0.8610 H   0  0  0  0  0  0  0  0  0  0  0  0
   -0.3370   -3.4920   -1.3640 H   0  0  0  0  0  0  0  0  0  0  0  0
   -0.1350   -1.4780   -1.5100 H   0  0  0  0  0  0  0  0  0  0  0  0
   -0.2250    0.0570   -0.6850 H   0  0  0  0  0  0  0  0  0  0  0  0
    0.8010   -0.8710    1.3920 H   0  0  0  0  0  0  0  0  0  0  0  0
    0.7410   -2.4930    0.7430 H   0  0  0  0  0  0  0  0  0  0  0  0
    2.0670   -2.2640   -1.7140 H   0  0  0  0  0  0  0  0  0  0  0  0
    2.9580   -4.0930   -0.7210 H   0  0  0  0  0  0  0  0  0  0  0  0
    3.2700   -4.4900    0.9610 H   0  0  0  0  0  0  0  0  0  0  0  0
    1.6840   -3.9000    0.4890 H   0  0  0  0  0  0  0  0  0  0  0  0
    5.3000   -3.0320    0.6470 H   0  0  0  0  0  0  0  0  0  0  0  0
    4.8070   -2.4210   -0.9200 H   0  0  0  0  0  0  0  0  0  0  0  0
    5.2520   -0.7160    1.6390 H   0  0  0  0  0  0  0  0  0  0  0  0
    6.3230   -0.7950    0.2570 H   0  0  0  0  0  0  0  0  0  0  0  0
    7.0130    2.9970   -0.3830 H   0  0  0  0  0  0  0  0  0  0  0  0
    6.0090    4.4580   -0.4040 H   0  0  0  0  0  0  0  0  0  0  0  0
    6.1660    3.5140    1.0750 H   0  0  0  0  0  0  0  0  0  0  0  0
    3.9330    2.0180   -2.3720 H   0  0  0  0  0  0  0  0  0  0  0  0
    4.8920    3.4960   -2.4220 H   0  0  0  0  0  0  0  0  0  0  0  0
    5.6940    1.9260   -2.3350 H   0  0  0  0  0  0  0  0  0  0  0  0
    1.5450    2.7550    0.6420 H   0  0  0  0  0  0  0  0  0  0  0  0
    1.7610    3.2930   -1.0130 H   0  0  0  0  0  0  0  0  0  0  0  0
    1.1530    0.9100   -0.8720 H   0  0  0  0  0  0  0  0  0  0  0  0
    2.6240    1.1460   -1.7600 H   0  0  0  0  0  0  0  0  0  0  0  0
    1.6780    0.5620    1.9350 H   0  0  0  0  0  0  0  0  0  0  0  0
    3.2010   -0.2340    2.3230 H   0  0  0  0  0  0  0  0  0  0  0  0
    3.1840    1.4780    1.9520 H   0  0  0  0  0  0  0  0  0  0  0  0
   -3.0280   -2.0040   -2.1090 H   0  0  0  0  0  0  0  0  0  0  0  0
   -3.9160   -0.4870   -2.2620 H   0  0  0  0  0  0  0  0  0  0  0  0
   -2.1710   -0.5230   -2.5060 H   0  0  0  0  0  0  0  0  0  0  0  0
   -2.2770    1.0890    0.8500 H   0  0  0  0  0  0  0  0  0  0  0  0
   -1.5870    1.1520   -0.7560 H   0  0  0  0  0  0  0  0  0  0  0  0
   -3.2500    2.7210   -1.0440 H   0  0  0  0  0  0  0  0  0  0  0  0
   -4.1500    1.3300   -1.6120 H   0  0  0  0  0  0  0  0  0  0  0  0
   -5.0460    3.8120   -0.0930 H   0  0  0  0  0  0  0  0  0  0  0  0
   -6.1760    1.3520    2.6920 H   0  0  0  0  0  0  0  0  0  0  0  0
   -6.3210   -0.3910    2.4210 H   0  0  0  0  0  0  0  0  0  0  0  0
   -4.7230    0.3320    2.6430 H   0  0  0  0  0  0  0  0  0  0  0  0
   -7.0720    1.1250   -0.9580 H   0  0  0  0  0  0  0  0  0  0  0  0
   -7.6480   -0.0120    0.2660 H   0  0  0  0  0  0  0  0  0  0  0  0
   -7.5940    1.7160    0.6250 H   0  0  0  0  0  0  0  0  0  0  0  0
  2  1  1  1
  2 30  1  0
  2 40  1  0
  2  3  1  0
  3 42  1  0
  3  4  1  0
  3 41  1  0
  4  5  1  0
  4 44  1  0
  4 43  1  0
  5  6  2  0
  5  7  1  0
  6 46  1  0
  6 45  1  0
  7  9  1  0
  7 30  1  0
  7  8  1  1
  9 47  1  0
  9 48  1  0
  9 10  1  0
 10 11  1  0
 10 50  1  0
 10 49  1  0
 11 12  1  6
 11 28  1  0
 11 13  1  0
 12 51  1  0
 13 16  1  0
 13 15  1  0
 13 14  1  1
 15 52  1  0
 15 54  1  0
 15 53  1  0
 16 56  1  0
 16 17  1  0
 16 55  1  0
 17 18  1  0
 17 58  1  0
 17 57  1  0
 18 19  1  6
 18 28  1  0
 18 20  1  0
 20 21  1  0
 21 23  1  6
 21 22  1  0
 21 24  1  0
 22 60  1  0
 22 59  1  0
 22 61  1  0
 23 63  1  0
 23 62  1  0
 23 64  1  0
 24 26  1  0
 24 25  2  0
 26 66  1  0
 26 27  1  0
 26 65  1  0
 27 68  1  0
 27 67  1  0
 27 28  1  0
 28 29  1  1
 29 69  1  0
 29 71  1  0
 29 70  1  0
 30 31  1  6
 30 32  1  0
 31 74  1  0
 31 73  1  0
 31 72  1  0
 32 76  1  0
 32 33  1  0
 32 75  1  0
 33 78  1  0
 33 77  1  0
 33 34  1  0
 34 36  1  0
 34 37  1  0
 34 35  1  1
 36 79  1  0
 37 40  1  0
 37 39  1  6
 37 38  1  0
 38 81  1  0
 38 82  1  0
 38 80  1  0
 39 83  1  0
 39 84  1  0
 39 85  1  0
M  END
>  <id>  (482) 
586

>  <scaffolds>  (482) 
['C1CCCCC1', 'C=C1CCC2OCCCCC2C1CCC1CCCC2OCC(=O)CCC12']

>  <name>  (482) 
3-epi-Sodwanone K

>  <formula>  (482) 
C30H50O5

>  <SMILES>  (482) 
[H][C@]34CCC(=C)[C@@H](CC[C@]2(O)[C@@H](C)CC[C@]1([H])OC(C)(C)C(=O)CC[C@]12C)[C@]3(C)CC[C@@H](O)C(C)(C)O4

>  <ChEMBL_id>  (482) 
CHEMBL494455

>  <ZINC_id>  (482) 


>  <PubChem_id>  (482) 
 16099429

>  <DrugBank_id>  (482) 


>  <CAS_no>  (482) 
917964-32-0

>  <references>  (482) 
[{'journal': {'name': 'Journal of Natural Products', 'id': 5}, 'title': 'Sodwanone and Yardenone Triterpenes from a South African Species of the Marine Sponge Axinella Inhibit Hypoxia-Inducible Factor-1 (HIF-1) Activation in Both Breast and Prostate Tumor Cells', 'year': 2006, 'start_page': 1715, 'volume': 69, 'issue': None, 'doi': '10.1021/np060278q', 'isbn': '', 'despositor': {'code': 'NFA', 'first_name': 'Ngonidzashe', 'last_name': 'Faya', 'id': 21}, 'refauthors_set': [{'author': {'first_name': 'Jingqiu', 'initials': 'J', 'last_name': 'Dai', 'id': 782}, 'first_author': True, 'id': 1112}, {'author': {'first_name': 'James', 'initials': 'JA', 'last_name': 'Fishback', 'id': 783}, 'first_author': False, 'id': 1113}, {'author': {'first_name': 'Yu-Dong', 'initials': 'Y', 'last_name': 'Zhou', 'id': 784}, 'first_author': False, 'id': 1114}, {'author': {'first_name': 'Dale', 'initials': 'DG', 'last_name': 'Nagle', 'id': 785}, 'first_author': False, 'id': 1115}], 'id': 367}]

>  <classifications>  (482) 
[{'classification': 'Sodwanone', 'id': 831}, {'classification': 'Terpenoid', 'id': 839}, {'classification': 'Triterpene', 'id': 842}, {'classification': 'Phenol lipids (Classyfire)', 'id': 951}]

>  <molecular_mass>  (482) 
490.71

$$$$
SANC00587_minRM1.pdb
     RDKit          3D

 90 93  0  0  1  0  0  0  0  0999 V2000
   -2.9500    2.1360   -1.5640 H   0  0  0  0  0  0  0  0  0  0  0  0
   -3.1920    2.1820   -0.4670 C   0  0  1  0  0  0  0  0  0  0  0  0
   -3.2220    3.6680   -0.0770 C   0  0  0  0  0  0  0  0  0  0  0  0
   -1.8630    4.2920   -0.3910 C   0  0  0  0  0  0  0  0  0  0  0  0
   -0.7710    3.5060    0.2620 C   0  0  0  0  0  0  0  0  0  0  0  0
    0.0610    4.0840    1.1180 C   0  0  0  0  0  0  0  0  0  0  0  0
   -0.7420    2.0520   -0.1130 C   0  0  1  0  0  0  0  0  0  0  0  0
   -0.6680    1.9920   -1.2330 H   0  0  0  0  0  0  0  0  0  0  0  0
    0.4610    1.2980    0.4710 C   0  0  0  0  0  0  0  0  0  0  0  0
    1.7040    1.5470   -0.3810 C   0  0  0  0  0  0  0  0  0  0  0  0
    3.0640    1.0170    0.1620 C   0  0  2  0  0  0  0  0  0  0  0  0
    3.1160    1.0650    1.5540 O   0  0  0  0  0  0  0  0  0  0  0  0
    4.1700    1.9300   -0.4470 C   0  0  1  0  0  0  0  0  0  0  0  0
    4.0800    1.8580   -1.5630 H   0  0  0  0  0  0  0  0  0  0  0  0
    4.0160    3.3990   -0.0510 C   0  0  0  0  0  0  0  0  0  0  0  0
    5.5680    1.4860   -0.0370 C   0  0  0  0  0  0  0  0  0  0  0  0
    5.8160    0.0620   -0.4910 C   0  0  0  0  0  0  0  0  0  0  0  0
    4.7870   -0.8570    0.1850 C   0  0  2  0  0  0  0  0  0  0  0  0
    4.9260   -0.7740    1.2960 H   0  0  0  0  0  0  0  0  0  0  0  0
    5.1620   -2.1190   -0.3090 O   0  0  0  0  0  0  0  0  0  0  0  0
    4.6970   -3.2880    0.3090 C   0  0  1  0  0  0  0  0  0  0  0  0
    5.7260   -4.3480   -0.1290 C   0  0  0  0  0  0  0  0  0  0  0  0
    4.6450   -3.2690    1.8320 C   0  0  0  0  0  0  0  0  0  0  0  0
    3.3270   -3.5990   -0.2950 C   0  0  0  0  0  0  0  0  0  0  0  0
    3.1890   -4.5090   -1.0940 O   0  0  0  0  0  0  0  0  0  0  0  0
    2.1280   -2.7800    0.0970 C   0  0  0  0  0  0  0  0  0  0  0  0
    2.3990   -1.3880    0.6440 C   0  0  0  0  0  0  0  0  0  0  0  0
    3.3280   -0.4950   -0.1920 C   0  0  1  0  0  0  0  0  0  0  0  0
    3.0840   -0.7150   -1.6800 C   0  0  0  0  0  0  0  0  0  0  0  0
   -2.0950    1.4300    0.3200 C   0  0  1  0  0  0  0  0  0  0  0  0
   -2.2560    1.5700    1.8290 C   0  0  0  0  0  0  0  0  0  0  0  0
   -2.1760   -0.0530   -0.0700 C   0  0  0  0  0  0  0  0  0  0  0  0
   -3.4200   -0.7370    0.4880 C   0  0  0  0  0  0  0  0  0  0  0  0
   -4.5930   -0.7340   -0.4990 C   0  0  1  0  0  0  0  0  0  0  0  0
   -4.3420   -1.3670   -1.3950 H   0  0  0  0  0  0  0  0  0  0  0  0
   -5.7090   -1.2770    0.1890 O   0  0  0  0  0  0  0  0  0  0  0  0
   -5.7950   -2.6190    0.3710 C   0  0  0  0  0  0  0  0  0  0  0  0
   -7.0070   -2.9830    1.1660 C   0  0  0  0  0  0  0  0  0  0  0  0
   -4.9670   -3.3790   -0.1000 O   0  0  0  0  0  0  0  0  0  0  0  0
   -5.0400    0.6910   -0.9700 C   0  0  1  0  0  0  0  0  0  0  0  0
   -4.7420    0.8180   -2.4730 C   0  0  0  0  0  0  0  0  0  0  0  0
   -6.5550    0.9480   -0.7940 C   0  0  0  0  0  0  0  0  0  0  0  0
   -4.4690    1.6860   -0.1570 O   0  0  0  0  0  0  0  0  0  0  0  0
   -4.0280    4.1970   -0.6290 H   0  0  0  0  0  0  0  0  0  0  0  0
   -3.4950    3.8090    0.9890 H   0  0  0  0  0  0  0  0  0  0  0  0
   -1.6920    4.3380   -1.4890 H   0  0  0  0  0  0  0  0  0  0  0  0
   -1.8540    5.3580   -0.0780 H   0  0  0  0  0  0  0  0  0  0  0  0
    0.0230    5.1360    1.3830 H   0  0  0  0  0  0  0  0  0  0  0  0
    0.8520    3.5580    1.6470 H   0  0  0  0  0  0  0  0  0  0  0  0
    0.6190    1.5660    1.5350 H   0  0  0  0  0  0  0  0  0  0  0  0
    0.2420    0.2040    0.5040 H   0  0  0  0  0  0  0  0  0  0  0  0
    1.5390    1.1350   -1.4010 H   0  0  0  0  0  0  0  0  0  0  0  0
    1.7700    2.6470   -0.5550 H   0  0  0  0  0  0  0  0  0  0  0  0
    2.9360    1.9670    1.8330 H   0  0  0  0  0  0  0  0  0  0  0  0
    4.2710    3.5980    1.0010 H   0  0  0  0  0  0  0  0  0  0  0  0
    4.6790    4.0440   -0.6470 H   0  0  0  0  0  0  0  0  0  0  0  0
    2.9950    3.7820   -0.2110 H   0  0  0  0  0  0  0  0  0  0  0  0
    6.3280    2.1660   -0.4760 H   0  0  0  0  0  0  0  0  0  0  0  0
    5.7200    1.5790    1.0580 H   0  0  0  0  0  0  0  0  0  0  0  0
    5.7860   -0.0260   -1.5970 H   0  0  0  0  0  0  0  0  0  0  0  0
    6.8480   -0.2560   -0.2290 H   0  0  0  0  0  0  0  0  0  0  0  0
    6.7200   -4.1440    0.2900 H   0  0  0  0  0  0  0  0  0  0  0  0
    5.4260   -5.3500    0.1970 H   0  0  0  0  0  0  0  0  0  0  0  0
    5.8370   -4.3910   -1.2240 H   0  0  0  0  0  0  0  0  0  0  0  0
    3.8720   -2.6030    2.2560 H   0  0  0  0  0  0  0  0  0  0  0  0
    4.4250   -4.2690    2.2310 H   0  0  0  0  0  0  0  0  0  0  0  0
    5.6060   -2.9550    2.2630 H   0  0  0  0  0  0  0  0  0  0  0  0
    1.4230   -2.7290   -0.7640 H   0  0  0  0  0  0  0  0  0  0  0  0
    1.5690   -3.3720    0.8600 H   0  0  0  0  0  0  0  0  0  0  0  0
    1.4070   -0.8990    0.7750 H   0  0  0  0  0  0  0  0  0  0  0  0
    2.7750   -1.4620    1.6930 H   0  0  0  0  0  0  0  0  0  0  0  0
    2.0190   -0.5930   -1.9430 H   0  0  0  0  0  0  0  0  0  0  0  0
    3.6390   -0.0130   -2.3210 H   0  0  0  0  0  0  0  0  0  0  0  0
    3.3800   -1.7190   -2.0200 H   0  0  0  0  0  0  0  0  0  0  0  0
   -2.0190    2.5730    2.2090 H   0  0  0  0  0  0  0  0  0  0  0  0
   -3.2850    1.3430    2.1530 H   0  0  0  0  0  0  0  0  0  0  0  0
   -1.6000    0.8750    2.3760 H   0  0  0  0  0  0  0  0  0  0  0  0
   -2.1100   -0.1780   -1.1710 H   0  0  0  0  0  0  0  0  0  0  0  0
   -1.2700   -0.5850    0.3060 H   0  0  0  0  0  0  0  0  0  0  0  0
   -3.1700   -1.7880    0.7470 H   0  0  0  0  0  0  0  0  0  0  0  0
   -3.7450   -0.2860    1.4530 H   0  0  0  0  0  0  0  0  0  0  0  0
   -7.2850   -2.2190    1.9080 H   0  0  0  0  0  0  0  0  0  0  0  0
   -7.8730   -3.1180    0.5020 H   0  0  0  0  0  0  0  0  0  0  0  0
   -6.8570   -3.9270    1.7110 H   0  0  0  0  0  0  0  0  0  0  0  0
   -5.3940    0.1540   -3.0620 H   0  0  0  0  0  0  0  0  0  0  0  0
   -4.9290    1.8320   -2.8530 H   0  0  0  0  0  0  0  0  0  0  0  0
   -3.7130    0.5400   -2.7570 H   0  0  0  0  0  0  0  0  0  0  0  0
   -6.8650    0.9550    0.2640 H   0  0  0  0  0  0  0  0  0  0  0  0
   -6.8450    1.9270   -1.2030 H   0  0  0  0  0  0  0  0  0  0  0  0
   -7.1600    0.1920   -1.3120 H   0  0  0  0  0  0  0  0  0  0  0  0
  2  1  1  6
  2 43  1  0
  2  3  1  0
  2 30  1  0
  3 44  1  0
  3  4  1  0
  3 45  1  0
  4 46  1  0
  4 47  1  0
  4  5  1  0
  5  7  1  0
  5  6  2  0
  6 48  1  0
  6 49  1  0
  7  8  1  6
  7 30  1  0
  7  9  1  0
  9 10  1  0
  9 51  1  0
  9 50  1  0
 10 52  1  0
 10 53  1  0
 10 11  1  0
 11 13  1  0
 11 28  1  0
 11 12  1  1
 12 54  1  0
 13 14  1  6
 13 15  1  0
 13 16  1  0
 15 56  1  0
 15 57  1  0
 15 55  1  0
 16 17  1  0
 16 58  1  0
 16 59  1  0
 17 60  1  0
 17 61  1  0
 17 18  1  0
 18 20  1  0
 18 28  1  0
 18 19  1  1
 20 21  1  0
 21 24  1  0
 21 22  1  1
 21 23  1  0
 22 64  1  0
 22 63  1  0
 22 62  1  0
 23 66  1  0
 23 65  1  0
 23 67  1  0
 24 25  2  0
 24 26  1  0
 26 68  1  0
 26 27  1  0
 26 69  1  0
 27 28  1  0
 27 70  1  0
 27 71  1  0
 28 29  1  6
 29 73  1  0
 29 74  1  0
 29 72  1  0
 30 32  1  0
 30 31  1  1
 31 76  1  0
 31 75  1  0
 31 77  1  0
 32 78  1  0
 32 79  1  0
 32 33  1  0
 33 34  1  0
 33 80  1  0
 33 81  1  0
 34 35  1  6
 34 40  1  0
 34 36  1  0
 36 37  1  0
 37 39  2  0
 37 38  1  0
 38 83  1  0
 38 84  1  0
 38 82  1  0
 40 41  1  6
 40 42  1  0
 40 43  1  0
 41 85  1  0
 41 86  1  0
 41 87  1  0
 42 90  1  0
 42 89  1  0
 42 88  1  0
M  END
>  <id>  (483) 
587

>  <scaffolds>  (483) 
['C1CCCCC1', 'C=C1CCC2OCCCCC2C1CCC1CCCC2OCC(=O)CCC12']

>  <name>  (483) 
3-epi-Sodwanone K 3-acetate

>  <formula>  (483) 
C32H52O6

>  <SMILES>  (483) 
[H][C@]34CCC(=C)[C@@H](CC[C@]2(O)[C@@H](C)CC[C@]1([H])OC(C)(C)C(=O)CC[C@]12C)[C@]3(C)CC[C@@H](OC(C)=O)C(C)(C)O4

>  <ChEMBL_id>  (483) 
CHEMBL494658

>  <ZINC_id>  (483) 


>  <PubChem_id>  (483) 
 16099424

>  <DrugBank_id>  (483) 


>  <CAS_no>  (483) 
917910-01-1

>  <references>  (483) 
[{'journal': {'name': 'Journal of Natural Products', 'id': 5}, 'title': 'Sodwanone and Yardenone Triterpenes from a South African Species of the Marine Sponge Axinella Inhibit Hypoxia-Inducible Factor-1 (HIF-1) Activation in Both Breast and Prostate Tumor Cells', 'year': 2006, 'start_page': 1715, 'volume': 69, 'issue': None, 'doi': '10.1021/np060278q', 'isbn': '', 'despositor': {'code': 'NFA', 'first_name': 'Ngonidzashe', 'last_name': 'Faya', 'id': 21}, 'refauthors_set': [{'author': {'first_name': 'Jingqiu', 'initials': 'J', 'last_name': 'Dai', 'id': 782}, 'first_author': True, 'id': 1112}, {'author': {'first_name': 'James', 'initials': 'JA', 'last_name': 'Fishback', 'id': 783}, 'first_author': False, 'id': 1113}, {'author': {'first_name': 'Yu-Dong', 'initials': 'Y', 'last_name': 'Zhou', 'id': 784}, 'first_author': False, 'id': 1114}, {'author': {'first_name': 'Dale', 'initials': 'DG', 'last_name': 'Nagle', 'id': 785}, 'first_author': False, 'id': 1115}], 'id': 367}]

>  <classifications>  (483) 
[{'classification': 'Sodwanone', 'id': 831}, {'classification': 'Terpenoid', 'id': 839}, {'classification': 'Triterpene', 'id': 842}, {'classification': 'Phenol lipids (Classyfire)', 'id': 951}]

>  <molecular_mass>  (483) 
532.75

$$$$
SANC00588_minRM1.pdb
     RDKit          3D

 77 80  0  0  1  0  0  0  0  0999 V2000
    3.9710    0.6990    1.4210 H   0  0  0  0  0  0  0  0  0  0  0  0
    3.9590    0.8950    0.3140 C   0  0  1  0  0  0  0  0  0  0  0  0
    4.2800    2.3720    0.0650 C   0  0  0  0  0  0  0  0  0  0  0  0
    3.3170    3.2170    0.8830 C   0  0  0  0  0  0  0  0  0  0  0  0
    1.9160    2.7020    0.8810 C   0  0  0  0  0  0  0  0  0  0  0  0
    0.9460    3.6580    1.4870 C   0  0  0  0  0  0  0  0  0  0  0  0
    1.5520    1.4960    0.4240 C   0  0  0  0  0  0  0  0  0  0  0  0
    0.1220    1.0520    0.4920 C   0  0  0  0  0  0  0  0  0  0  0  0
   -0.6010    1.2790   -0.8420 C   0  0  0  0  0  0  0  0  0  0  0  0
   -2.0710    1.0840   -0.6650 C   0  0  0  0  0  0  0  0  0  0  0  0
   -2.8690    2.1050   -0.3120 C   0  0  0  0  0  0  0  0  0  0  0  0
   -2.4230    3.5090   -0.1440 C   0  0  0  0  0  0  0  0  0  0  0  0
   -4.3000    1.8500   -0.0810 C   0  0  0  0  0  0  0  0  0  0  0  0
   -5.1750    2.6900   -0.1980 O   0  0  0  0  0  0  0  0  0  0  0  0
   -4.6010    0.4680    0.3800 C   0  0  0  0  0  0  0  0  0  0  0  0
   -5.6830    0.2720    1.1690 O   0  0  0  0  0  0  0  0  0  0  0  0
   -3.7700   -0.5500    0.0790 C   0  0  0  0  0  0  0  0  0  0  0  0
   -3.9480   -1.9160    0.6680 C   0  0  1  0  0  0  0  0  0  0  0  0
   -4.2460   -1.8450    2.1730 C   0  0  0  0  0  0  0  0  0  0  0  0
   -5.0980   -2.6060   -0.0640 C   0  0  0  0  0  0  0  0  0  0  0  0
   -2.7040   -2.7790    0.5580 C   0  0  0  0  0  0  0  0  0  0  0  0
   -2.7370   -3.9760    0.7780 O   0  0  0  0  0  0  0  0  0  0  0  0
   -1.4320   -2.0850    0.1660 C   0  0  0  0  0  0  0  0  0  0  0  0
   -1.7310   -1.4020   -1.1530 C   0  0  0  0  0  0  0  0  0  0  0  0
   -2.7220   -0.2500   -0.9670 C   0  0  2  0  0  0  0  0  0  0  0  0
   -3.4420   -0.0540   -2.3190 C   0  0  0  0  0  0  0  0  0  0  0  0
    2.5480    0.5620   -0.2240 C   0  0  1  0  0  0  0  0  0  0  0  0
    2.4400    0.7780   -1.7330 C   0  0  0  0  0  0  0  0  0  0  0  0
    2.2460   -0.9060    0.1180 C   0  0  0  0  0  0  0  0  0  0  0  0
    3.1730   -1.9040   -0.5660 C   0  0  0  0  0  0  0  0  0  0  0  0
    4.4320   -2.0870    0.2360 C   0  0  0  0  0  0  0  0  0  0  0  0
    4.6550   -3.1160    0.8410 O   0  0  0  0  0  0  0  0  0  0  0  0
    5.4640   -0.9620    0.2260 C   0  0  1  0  0  0  0  0  0  0  0  0
    5.9850   -0.7100    1.6420 C   0  0  0  0  0  0  0  0  0  0  0  0
    6.6250   -1.3950   -0.6860 C   0  0  0  0  0  0  0  0  0  0  0  0
    4.9500    0.1890   -0.3910 O   0  0  0  0  0  0  0  0  0  0  0  0
    5.3330    2.5970    0.3470 H   0  0  0  0  0  0  0  0  0  0  0  0
    4.2370    2.6250   -1.0160 H   0  0  0  0  0  0  0  0  0  0  0  0
    3.6600    3.2800    1.9400 H   0  0  0  0  0  0  0  0  0  0  0  0
    3.3420    4.2650    0.5100 H   0  0  0  0  0  0  0  0  0  0  0  0
    1.3840    4.6350    1.7460 H   0  0  0  0  0  0  0  0  0  0  0  0
    0.1020    3.8770    0.8070 H   0  0  0  0  0  0  0  0  0  0  0  0
    0.5170    3.2700    2.4260 H   0  0  0  0  0  0  0  0  0  0  0  0
    0.0380   -0.0240    0.7790 H   0  0  0  0  0  0  0  0  0  0  0  0
   -0.4310    1.5510    1.3160 H   0  0  0  0  0  0  0  0  0  0  0  0
   -0.3700    2.2870   -1.2490 H   0  0  0  0  0  0  0  0  0  0  0  0
   -0.1870    0.5940   -1.6240 H   0  0  0  0  0  0  0  0  0  0  0  0
   -2.2390    3.9810   -1.1190 H   0  0  0  0  0  0  0  0  0  0  0  0
   -3.1670    4.1440    0.3640 H   0  0  0  0  0  0  0  0  0  0  0  0
   -1.4960    3.6000    0.4460 H   0  0  0  0  0  0  0  0  0  0  0  0
   -6.2500    1.0540    1.1270 H   0  0  0  0  0  0  0  0  0  0  0  0
   -5.3180   -1.7440    2.3850 H   0  0  0  0  0  0  0  0  0  0  0  0
   -3.9440   -2.7540    2.7130 H   0  0  0  0  0  0  0  0  0  0  0  0
   -3.7400   -1.0010    2.6600 H   0  0  0  0  0  0  0  0  0  0  0  0
   -4.8620   -2.7790   -1.1250 H   0  0  0  0  0  0  0  0  0  0  0  0
   -5.3330   -3.5860    0.3770 H   0  0  0  0  0  0  0  0  0  0  0  0
   -6.0200   -2.0070   -0.0320 H   0  0  0  0  0  0  0  0  0  0  0  0
   -1.1150   -1.3580    0.9470 H   0  0  0  0  0  0  0  0  0  0  0  0
   -0.5870   -2.8000    0.0770 H   0  0  0  0  0  0  0  0  0  0  0  0
   -0.8010   -1.0550   -1.6530 H   0  0  0  0  0  0  0  0  0  0  0  0
   -2.1280   -2.1540   -1.8680 H   0  0  0  0  0  0  0  0  0  0  0  0
   -3.9890   -0.9560   -2.6320 H   0  0  0  0  0  0  0  0  0  0  0  0
   -4.1840    0.7560   -2.3090 H   0  0  0  0  0  0  0  0  0  0  0  0
   -2.7320    0.1880   -3.1220 H   0  0  0  0  0  0  0  0  0  0  0  0
    2.4230    1.8440   -2.0070 H   0  0  0  0  0  0  0  0  0  0  0  0
    3.2710    0.3250   -2.2940 H   0  0  0  0  0  0  0  0  0  0  0  0
    1.5070    0.3490   -2.1390 H   0  0  0  0  0  0  0  0  0  0  0  0
    2.2590   -1.0590    1.2180 H   0  0  0  0  0  0  0  0  0  0  0  0
    1.2000   -1.1480   -0.1750 H   0  0  0  0  0  0  0  0  0  0  0  0
    2.6540   -2.8820   -0.6860 H   0  0  0  0  0  0  0  0  0  0  0  0
    3.4290   -1.6020   -1.6040 H   0  0  0  0  0  0  0  0  0  0  0  0
    6.5780   -1.5610    2.0020 H   0  0  0  0  0  0  0  0  0  0  0  0
    6.6330    0.1750    1.6900 H   0  0  0  0  0  0  0  0  0  0  0  0
    5.1820   -0.5630    2.3830 H   0  0  0  0  0  0  0  0  0  0  0  0
    6.3200   -1.5150   -1.7340 H   0  0  0  0  0  0  0  0  0  0  0  0
    7.4370   -0.6560   -0.6780 H   0  0  0  0  0  0  0  0  0  0  0  0
    7.0560   -2.3540   -0.3550 H   0  0  0  0  0  0  0  0  0  0  0  0
  2  1  1  1
  2 36  1  0
  2 27  1  0
  2  3  1  0
  3 38  1  0
  3 37  1  0
  3  4  1  0
  4 40  1  0
  4  5  1  0
  4 39  1  0
  5  7  2  0
  5  6  1  0
  6 42  1  0
  6 41  1  0
  6 43  1  0
  7 27  1  0
  7  8  1  0
  8  9  1  0
  8 44  1  0
  8 45  1  0
  9 47  1  0
  9 46  1  0
  9 10  1  0
 10 25  1  0
 10 11  2  0
 11 12  1  0
 11 13  1  0
 12 48  1  0
 12 49  1  0
 12 50  1  0
 13 14  2  0
 13 15  1  0
 15 17  2  0
 15 16  1  0
 16 51  1  0
 17 25  1  0
 17 18  1  0
 18 20  1  6
 18 21  1  0
 18 19  1  0
 19 52  1  0
 19 54  1  0
 19 53  1  0
 20 55  1  0
 20 57  1  0
 20 56  1  0
 21 23  1  0
 21 22  2  0
 23 24  1  0
 23 59  1  0
 23 58  1  0
 24 61  1  0
 24 60  1  0
 24 25  1  0
 25 26  1  6
 26 64  1  0
 26 62  1  0
 26 63  1  0
 27 28  1  6
 27 29  1  0
 28 66  1  0
 28 67  1  0
 28 65  1  0
 29 30  1  0
 29 69  1  0
 29 68  1  0
 30 71  1  0
 30 70  1  0
 30 31  1  0
 31 33  1  0
 31 32  2  0
 33 35  1  6
 33 36  1  0
 33 34  1  0
 34 73  1  0
 34 72  1  0
 34 74  1  0
 35 75  1  0
 35 76  1  0
 35 77  1  0
M  END
>  <id>  (484) 
588

>  <scaffolds>  (484) 
['C1=CCCCC1', 'C1CCCCC1']

>  <name>  (484) 
10,11-Dihydrosodwanone B

>  <formula>  (484) 
C30H42O5

>  <SMILES>  (484) 
[H][C@]34CCC(C)=C(CCC1=C(C)C(=O)C(O)=C2C(C)(C)C(=O)CC[C@]12C)[C@]3(C)CCC(=O)C(C)(C)O4

>  <ChEMBL_id>  (484) 
CHEMBL491334

>  <ZINC_id>  (484) 


>  <PubChem_id>  (484) 
 16099430

>  <DrugBank_id>  (484) 


>  <CAS_no>  (484) 
917910-02-2

>  <references>  (484) 
[{'journal': {'name': 'Journal of Natural Products', 'id': 5}, 'title': 'Sodwanone and Yardenone Triterpenes from a South African Species of the Marine Sponge Axinella Inhibit Hypoxia-Inducible Factor-1 (HIF-1) Activation in Both Breast and Prostate Tumor Cells', 'year': 2006, 'start_page': 1715, 'volume': 69, 'issue': None, 'doi': '10.1021/np060278q', 'isbn': '', 'despositor': {'code': 'NFA', 'first_name': 'Ngonidzashe', 'last_name': 'Faya', 'id': 21}, 'refauthors_set': [{'author': {'first_name': 'Jingqiu', 'initials': 'J', 'last_name': 'Dai', 'id': 782}, 'first_author': True, 'id': 1112}, {'author': {'first_name': 'James', 'initials': 'JA', 'last_name': 'Fishback', 'id': 783}, 'first_author': False, 'id': 1113}, {'author': {'first_name': 'Yu-Dong', 'initials': 'Y', 'last_name': 'Zhou', 'id': 784}, 'first_author': False, 'id': 1114}, {'author': {'first_name': 'Dale', 'initials': 'DG', 'last_name': 'Nagle', 'id': 785}, 'first_author': False, 'id': 1115}], 'id': 367}]

>  <classifications>  (484) 
[{'classification': 'Sodwanone', 'id': 831}, {'classification': 'Terpenoid', 'id': 839}, {'classification': 'Triterpene', 'id': 842}, {'classification': 'Phenol lipids (Classyfire)', 'id': 951}]

>  <molecular_mass>  (484) 
482.65

$$$$
SANC00589_minRM1.pdb
     RDKit          3D

 84 88  0  0  1  0  0  0  0  0999 V2000
    2.8160    0.8900   -1.1720 H   0  0  0  0  0  0  0  0  0  0  0  0
    3.1900    0.0720   -0.4910 C   0  0  1  0  0  0  0  0  0  0  0  0
    3.7140   -1.0660   -1.3700 C   0  0  0  0  0  0  0  0  0  0  0  0
    2.6550   -1.4430   -2.4020 C   0  0  0  0  0  0  0  0  0  0  0  0
    1.2240   -1.1590   -1.9390 C   0  0  2  0  0  0  0  0  0  0  0  0
    0.5280   -1.8820   -2.4460 H   0  0  0  0  0  0  0  0  0  0  0  0
    0.7550    0.2160   -2.4070 C   0  0  0  0  0  0  0  0  0  0  0  0
    1.1050   -1.3660   -0.4120 C   0  0  1  0  0  0  0  0  0  0  0  0
   -0.2440   -1.0930   -0.0790 O   0  0  0  0  0  0  0  0  0  0  0  0
   -0.9150   -2.2530    0.3650 C   0  0  2  0  0  0  0  0  0  0  0  0
   -1.3260   -2.8070   -0.5240 H   0  0  0  0  0  0  0  0  0  0  0  0
   -2.0750   -1.8430    1.3020 C   0  0  1  0  0  0  0  0  0  0  0  0
   -2.6080   -3.1550    1.8820 C   0  0  0  0  0  0  0  0  0  0  0  0
   -1.5960   -0.9170    2.4460 C   0  0  0  0  0  0  0  0  0  0  0  0
   -2.3220    0.4230    2.3100 C   0  0  0  0  0  0  0  0  0  0  0  0
   -2.7400    0.4450    0.8370 C   0  0  2  0  0  0  0  0  0  0  0  0
   -1.8610    0.7170    0.1940 H   0  0  0  0  0  0  0  0  0  0  0  0
   -3.8110    1.3440    0.6990 O   0  0  0  0  0  0  0  0  0  0  0  0
   -3.8540    2.0310   -0.5260 C   0  0  1  0  0  0  0  0  0  0  0  0
   -5.2430    2.6760   -0.5720 C   0  0  0  0  0  0  0  0  0  0  0  0
   -2.7720    3.1120   -0.5650 C   0  0  0  0  0  0  0  0  0  0  0  0
   -3.7380    1.0850   -1.7220 C   0  0  0  0  0  0  0  0  0  0  0  0
   -3.2370    1.4620   -2.7630 O   0  0  0  0  0  0  0  0  0  0  0  0
   -4.3090   -0.3030   -1.5860 C   0  0  0  0  0  0  0  0  0  0  0  0
   -3.2830   -1.2400   -0.9470 C   0  0  0  0  0  0  0  0  0  0  0  0
   -3.1770   -1.0160    0.5620 C   0  0  1  0  0  0  0  0  0  0  0  0
   -4.5570   -1.2790    1.1700 C   0  0  0  0  0  0  0  0  0  0  0  0
    0.1870   -3.1310    0.9770 C   0  0  0  0  0  0  0  0  0  0  0  0
    1.3370   -2.8730   -0.0190 C   0  0  1  0  0  0  0  0  0  0  0  0
    2.3500   -3.0610    0.4210 H   0  0  0  0  0  0  0  0  0  0  0  0
    1.1540   -3.6770   -1.1460 O   0  0  0  0  0  0  0  0  0  0  0  0
    2.0270   -0.4000    0.4190 C   0  0  1  0  0  0  0  0  0  0  0  0
    2.5680   -1.0860    1.6780 C   0  0  0  0  0  0  0  0  0  0  0  0
    1.2630    0.8480    0.9020 C   0  0  0  0  0  0  0  0  0  0  0  0
    2.1500    1.8470    1.6440 C   0  0  0  0  0  0  0  0  0  0  0  0
    3.0950    2.5690    0.7210 C   0  0  0  0  0  0  0  0  0  0  0  0
    2.8340    3.6690    0.2750 O   0  0  0  0  0  0  0  0  0  0  0  0
    4.4260    1.8850    0.4010 C   0  0  1  0  0  0  0  0  0  0  0  0
    5.0380    2.4330   -0.8890 C   0  0  0  0  0  0  0  0  0  0  0  0
    5.3840    2.1100    1.5740 C   0  0  0  0  0  0  0  0  0  0  0  0
    4.2710    0.4910    0.3100 O   0  0  0  0  0  0  0  0  0  0  0  0
    4.6570   -0.7610   -1.8740 H   0  0  0  0  0  0  0  0  0  0  0  0
    4.0210   -1.9380   -0.7590 H   0  0  0  0  0  0  0  0  0  0  0  0
    2.8510   -0.9110   -3.3580 H   0  0  0  0  0  0  0  0  0  0  0  0
    2.7700   -2.5130   -2.6760 H   0  0  0  0  0  0  0  0  0  0  0  0
    0.6660    0.2530   -3.5040 H   0  0  0  0  0  0  0  0  0  0  0  0
   -0.2380    0.4840   -2.0170 H   0  0  0  0  0  0  0  0  0  0  0  0
    1.4390    1.0350   -2.1370 H   0  0  0  0  0  0  0  0  0  0  0  0
   -1.8400   -3.7200    2.4310 H   0  0  0  0  0  0  0  0  0  0  0  0
   -3.4090   -3.0190    2.6230 H   0  0  0  0  0  0  0  0  0  0  0  0
   -3.0020   -3.8220    1.1030 H   0  0  0  0  0  0  0  0  0  0  0  0
   -1.7640   -1.3620    3.4460 H   0  0  0  0  0  0  0  0  0  0  0  0
   -0.4990   -0.7420    2.4070 H   0  0  0  0  0  0  0  0  0  0  0  0
   -3.1880    0.5090    2.9960 H   0  0  0  0  0  0  0  0  0  0  0  0
   -1.6860    1.2890    2.5770 H   0  0  0  0  0  0  0  0  0  0  0  0
   -5.3820    3.3980    0.2460 H   0  0  0  0  0  0  0  0  0  0  0  0
   -5.3990    3.2190   -1.5140 H   0  0  0  0  0  0  0  0  0  0  0  0
   -6.0550    1.9380   -0.4770 H   0  0  0  0  0  0  0  0  0  0  0  0
   -1.7560    2.7010   -0.6540 H   0  0  0  0  0  0  0  0  0  0  0  0
   -2.9060    3.7850   -1.4240 H   0  0  0  0  0  0  0  0  0  0  0  0
   -2.7890    3.7320    0.3430 H   0  0  0  0  0  0  0  0  0  0  0  0
   -5.2590   -0.2770   -1.0090 H   0  0  0  0  0  0  0  0  0  0  0  0
   -4.6010   -0.6890   -2.5880 H   0  0  0  0  0  0  0  0  0  0  0  0
   -3.5700   -2.2940   -1.1530 H   0  0  0  0  0  0  0  0  0  0  0  0
   -2.3140   -1.1000   -1.4710 H   0  0  0  0  0  0  0  0  0  0  0  0
   -4.9300   -2.2910    0.9520 H   0  0  0  0  0  0  0  0  0  0  0  0
   -4.5840   -1.1460    2.2590 H   0  0  0  0  0  0  0  0  0  0  0  0
   -5.3280   -0.5990    0.7670 H   0  0  0  0  0  0  0  0  0  0  0  0
    0.4690   -2.8250    2.0050 H   0  0  0  0  0  0  0  0  0  0  0  0
   -0.0920   -4.1980    1.0490 H   0  0  0  0  0  0  0  0  0  0  0  0
    1.4100   -4.5700   -0.8980 H   0  0  0  0  0  0  0  0  0  0  0  0
    3.2690   -1.9040    1.4510 H   0  0  0  0  0  0  0  0  0  0  0  0
    3.1230   -0.3940    2.3340 H   0  0  0  0  0  0  0  0  0  0  0  0
    1.7670   -1.5110    2.3040 H   0  0  0  0  0  0  0  0  0  0  0  0
    0.7310    1.3550    0.0720 H   0  0  0  0  0  0  0  0  0  0  0  0
    0.4480    0.5330    1.5980 H   0  0  0  0  0  0  0  0  0  0  0  0
    1.5110    2.5880    2.1740 H   0  0  0  0  0  0  0  0  0  0  0  0
    2.7180    1.3390    2.4550 H   0  0  0  0  0  0  0  0  0  0  0  0
    5.3270    3.4890   -0.7790 H   0  0  0  0  0  0  0  0  0  0  0  0
    5.9400    1.8750   -1.1760 H   0  0  0  0  0  0  0  0  0  0  0  0
    4.3500    2.3910   -1.7450 H   0  0  0  0  0  0  0  0  0  0  0  0
    5.0230    1.6600    2.5100 H   0  0  0  0  0  0  0  0  0  0  0  0
    6.3720    1.6670    1.3780 H   0  0  0  0  0  0  0  0  0  0  0  0
    5.5400    3.1820    1.7630 H   0  0  0  0  0  0  0  0  0  0  0  0
  2  1  1  6
  2  3  1  0
  2 41  1  0
  2 32  1  0
  3  4  1  0
  3 42  1  0
  3 43  1  0
  4 44  1  0
  4 45  1  0
  4  5  1  0
  5  6  1  6
  5  7  1  0
  5  8  1  0
  7 46  1  0
  7 48  1  0
  7 47  1  0
  8  9  1  1
  8 29  1  0
  8 32  1  0
  9 10  1  0
 10 11  1  6
 10 28  1  0
 10 12  1  0
 12 26  1  0
 12 13  1  1
 12 14  1  0
 13 51  1  0
 13 49  1  0
 13 50  1  0
 14 15  1  0
 14 53  1  0
 14 52  1  0
 15 16  1  0
 15 55  1  0
 15 54  1  0
 16 17  1  6
 16 26  1  0
 16 18  1  0
 18 19  1  0
 19 22  1  0
 19 20  1  6
 19 21  1  0
 20 57  1  0
 20 58  1  0
 20 56  1  0
 21 60  1  0
 21 59  1  0
 21 61  1  0
 22 23  2  0
 22 24  1  0
 24 63  1  0
 24 62  1  0
 24 25  1  0
 25 65  1  0
 25 64  1  0
 25 26  1  0
 26 27  1  1
 27 68  1  0
 27 66  1  0
 27 67  1  0
 28 29  1  0
 28 70  1  0
 28 69  1  0
 29 31  1  0
 29 30  1  1
 31 71  1  0
 32 34  1  0
 32 33  1  1
 33 72  1  0
 33 74  1  0
 33 73  1  0
 34 75  1  0
 34 76  1  0
 34 35  1  0
 35 36  1  0
 35 77  1  0
 35 78  1  0
 36 37  2  0
 36 38  1  0
 38 39  1  6
 38 41  1  0
 38 40  1  0
 39 81  1  0
 39 80  1  0
 39 79  1  0
 40 83  1  0
 40 84  1  0
 40 82  1  0
M  END
>  <id>  (485) 
589

>  <scaffolds>  (485) 
['C1CCCCC1', 'O=C1CCC2C(CCC2C2CCC3(CCCC4OCC(=O)CCC43)O2)OC1']

>  <name>  (485) 
12R-Hydroxyyardenone

>  <formula>  (485) 
C30H48O6

>  <SMILES>  (485) 
[H][C@]45CC[C@H](C)[C@]3(O[C@]([H])([C@@]2(C)CC[C@]1([H])OC(C)(C)C(=O)CC[C@]12C)C[C@H]3O)[C@]4(C)CCC(=O)C(C)(C)O5

>  <ChEMBL_id>  (485) 
CHEMBL494050

>  <ZINC_id>  (485) 


>  <PubChem_id>  (485) 
 16099432

>  <DrugBank_id>  (485) 


>  <CAS_no>  (485) 
917910-03-3

>  <references>  (485) 
[{'journal': {'name': 'Journal of Natural Products', 'id': 5}, 'title': 'Sodwanone and Yardenone Triterpenes from a South African Species of the Marine Sponge Axinella Inhibit Hypoxia-Inducible Factor-1 (HIF-1) Activation in Both Breast and Prostate Tumor Cells', 'year': 2006, 'start_page': 1715, 'volume': 69, 'issue': None, 'doi': '10.1021/np060278q', 'isbn': '', 'despositor': {'code': 'NFA', 'first_name': 'Ngonidzashe', 'last_name': 'Faya', 'id': 21}, 'refauthors_set': [{'author': {'first_name': 'Jingqiu', 'initials': 'J', 'last_name': 'Dai', 'id': 782}, 'first_author': True, 'id': 1112}, {'author': {'first_name': 'James', 'initials': 'JA', 'last_name': 'Fishback', 'id': 783}, 'first_author': False, 'id': 1113}, {'author': {'first_name': 'Yu-Dong', 'initials': 'Y', 'last_name': 'Zhou', 'id': 784}, 'first_author': False, 'id': 1114}, {'author': {'first_name': 'Dale', 'initials': 'DG', 'last_name': 'Nagle', 'id': 785}, 'first_author': False, 'id': 1115}], 'id': 367}]

>  <classifications>  (485) 
[{'classification': 'Terpenoid', 'id': 839}, {'classification': 'Triterpene', 'id': 842}, {'classification': 'Yardenone', 'id': 851}, {'classification': 'Phenol lipids (Classyfire)', 'id': 951}]

>  <molecular_mass>  (485) 
504.7

$$$$
SANC00590_minRM1.pdb
     RDKit          3D

 82 85  0  0  1  0  0  0  0  0999 V2000
    4.2470   -0.4850   -1.2130 H   0  0  0  0  0  0  0  0  0  0  0  0
    4.0570   -0.4470   -0.1060 C   0  0  1  0  0  0  0  0  0  0  0  0
    4.6600   -1.6870    0.5640 C   0  0  0  0  0  0  0  0  0  0  0  0
    4.0890   -2.9290   -0.0880 C   0  0  0  0  0  0  0  0  0  0  0  0
    2.6260   -2.8400   -0.3680 C   0  0  0  0  0  0  0  0  0  0  0  0
    2.0270   -4.1510   -0.7520 C   0  0  0  0  0  0  0  0  0  0  0  0
    1.9150   -1.7060   -0.3160 C   0  0  0  0  0  0  0  0  0  0  0  0
    0.4610   -1.7140   -0.6790 C   0  0  0  0  0  0  0  0  0  0  0  0
   -0.4240   -1.7860    0.5670 C   0  0  0  0  0  0  0  0  0  0  0  0
   -1.8770   -1.7770    0.2070 C   0  0  0  0  0  0  0  0  0  0  0  0
   -2.5930   -2.9080    0.2200 C   0  0  0  0  0  0  0  0  0  0  0  0
   -1.9980   -4.2400    0.5320 C   0  0  0  0  0  0  0  0  0  0  0  0
   -4.0640   -2.9700   -0.0020 C   0  0  0  0  0  0  0  0  0  0  0  0
   -4.6900   -1.6790   -0.4950 C   0  0  0  0  0  0  0  0  0  0  0  0
   -3.9850   -0.4870    0.1620 C   0  0  2  0  0  0  0  0  0  0  0  0
   -4.0610   -0.5790    1.2810 H   0  0  0  0  0  0  0  0  0  0  0  0
   -4.6540    0.6340   -0.3520 O   0  0  0  0  0  0  0  0  0  0  0  0
   -4.9400    1.6940    0.5220 C   0  0  1  0  0  0  0  0  0  0  0  0
   -5.9690    2.5050   -0.2810 C   0  0  0  0  0  0  0  0  0  0  0  0
   -5.5880    1.2200    1.8230 C   0  0  0  0  0  0  0  0  0  0  0  0
   -3.6450    2.4980    0.8520 C   0  0  2  0  0  0  0  0  0  0  0  0
   -3.3780    2.3620    1.9370 H   0  0  0  0  0  0  0  0  0  0  0  0
   -3.9530    3.8390    0.6210 O   0  0  0  0  0  0  0  0  0  0  0  0
   -2.4440    2.0850   -0.0160 C   0  0  0  0  0  0  0  0  0  0  0  0
   -1.8410    0.7550    0.4310 C   0  0  0  0  0  0  0  0  0  0  0  0
   -2.4910   -0.4690   -0.2330 C   0  0  1  0  0  0  0  0  0  0  0  0
   -2.3020   -0.3770   -1.7460 C   0  0  0  0  0  0  0  0  0  0  0  0
    2.5280   -0.4020    0.1410 C   0  0  1  0  0  0  0  0  0  0  0  0
    2.2390   -0.2440    1.6340 C   0  0  0  0  0  0  0  0  0  0  0  0
    1.9400    0.7910   -0.6280 C   0  0  0  0  0  0  0  0  0  0  0  0
    2.5240    2.1360   -0.2180 C   0  0  0  0  0  0  0  0  0  0  0  0
    3.8450    2.3750   -0.8970 C   0  0  0  0  0  0  0  0  0  0  0  0
    3.9500    3.1140   -1.8530 O   0  0  0  0  0  0  0  0  0  0  0  0
    5.0700    1.7020   -0.2880 C   0  0  1  0  0  0  0  0  0  0  0  0
    6.0510    1.2630   -1.3690 C   0  0  0  0  0  0  0  0  0  0  0  0
    5.7360    2.7120    0.6500 C   0  0  0  0  0  0  0  0  0  0  0  0
    4.6940    0.6350    0.5380 O   0  0  0  0  0  0  0  0  0  0  0  0
    5.7680   -1.6790    0.4830 H   0  0  0  0  0  0  0  0  0  0  0  0
    4.4710   -1.6790    1.6590 H   0  0  0  0  0  0  0  0  0  0  0  0
    4.6120   -3.1370   -1.0480 H   0  0  0  0  0  0  0  0  0  0  0  0
    4.3100   -3.8130    0.5470 H   0  0  0  0  0  0  0  0  0  0  0  0
    2.7680   -4.9520   -0.8860 H   0  0  0  0  0  0  0  0  0  0  0  0
    1.3330   -4.5100    0.0230 H   0  0  0  0  0  0  0  0  0  0  0  0
    1.4670   -4.1010   -1.7000 H   0  0  0  0  0  0  0  0  0  0  0  0
    0.1850   -0.8340   -1.3050 H   0  0  0  0  0  0  0  0  0  0  0  0
    0.2050   -2.5560   -1.3600 H   0  0  0  0  0  0  0  0  0  0  0  0
   -0.1380   -2.6740    1.1700 H   0  0  0  0  0  0  0  0  0  0  0  0
   -0.1890   -0.9580    1.2730 H   0  0  0  0  0  0  0  0  0  0  0  0
   -1.7750   -4.3450    1.6100 H   0  0  0  0  0  0  0  0  0  0  0  0
   -2.6560   -5.0870    0.2760 H   0  0  0  0  0  0  0  0  0  0  0  0
   -1.0620   -4.4230   -0.0210 H   0  0  0  0  0  0  0  0  0  0  0  0
   -4.3110   -3.7870   -0.7070 H   0  0  0  0  0  0  0  0  0  0  0  0
   -4.5360   -3.2840    0.9500 H   0  0  0  0  0  0  0  0  0  0  0  0
   -4.6550   -1.6060   -1.5980 H   0  0  0  0  0  0  0  0  0  0  0  0
   -5.7770   -1.6620   -0.2650 H   0  0  0  0  0  0  0  0  0  0  0  0
   -6.8380    1.8940   -0.5430 H   0  0  0  0  0  0  0  0  0  0  0  0
   -6.3620    3.3730    0.2810 H   0  0  0  0  0  0  0  0  0  0  0  0
   -5.5510    2.8960   -1.2180 H   0  0  0  0  0  0  0  0  0  0  0  0
   -4.9030    0.6450    2.4500 H   0  0  0  0  0  0  0  0  0  0  0  0
   -5.9510    2.0720    2.4150 H   0  0  0  0  0  0  0  0  0  0  0  0
   -6.4550    0.5730    1.6400 H   0  0  0  0  0  0  0  0  0  0  0  0
   -3.1980    4.3850    0.9160 H   0  0  0  0  0  0  0  0  0  0  0  0
   -2.7310    2.0690   -1.0910 H   0  0  0  0  0  0  0  0  0  0  0  0
   -1.6580    2.8710    0.0320 H   0  0  0  0  0  0  0  0  0  0  0  0
   -0.7480    0.7840    0.2110 H   0  0  0  0  0  0  0  0  0  0  0  0
   -1.8890    0.6550    1.5370 H   0  0  0  0  0  0  0  0  0  0  0  0
   -1.2410   -0.2210   -2.0120 H   0  0  0  0  0  0  0  0  0  0  0  0
   -2.6110   -1.2930   -2.2670 H   0  0  0  0  0  0  0  0  0  0  0  0
   -2.8680    0.4560   -2.1900 H   0  0  0  0  0  0  0  0  0  0  0  0
    2.5740   -1.1170    2.2140 H   0  0  0  0  0  0  0  0  0  0  0  0
    2.7350    0.6360    2.0710 H   0  0  0  0  0  0  0  0  0  0  0  0
    1.1620   -0.1230    1.8380 H   0  0  0  0  0  0  0  0  0  0  0  0
    2.0590    0.6430   -1.7230 H   0  0  0  0  0  0  0  0  0  0  0  0
    0.8360    0.8360   -0.4720 H   0  0  0  0  0  0  0  0  0  0  0  0
    1.8160    2.9520   -0.4760 H   0  0  0  0  0  0  0  0  0  0  0  0
    2.6530    2.2110    0.8840 H   0  0  0  0  0  0  0  0  0  0  0  0
    6.4710    2.1270   -1.9090 H   0  0  0  0  0  0  0  0  0  0  0  0
    6.8940    0.7000   -0.9520 H   0  0  0  0  0  0  0  0  0  0  0  0
    5.5820    0.6230   -2.1330 H   0  0  0  0  0  0  0  0  0  0  0  0
    5.0900    2.9980    1.4860 H   0  0  0  0  0  0  0  0  0  0  0  0
    6.6600    2.3080    1.0940 H   0  0  0  0  0  0  0  0  0  0  0  0
    6.0040    3.6330    0.1160 H   0  0  0  0  0  0  0  0  0  0  0  0
  2  1  1  6
  2 28  1  0
  2 37  1  0
  2  3  1  0
  3  4  1  0
  3 38  1  0
  3 39  1  0
  4 40  1  0
  4  5  1  0
  4 41  1  0
  5  6  1  0
  5  7  2  0
  6 44  1  0
  6 42  1  0
  6 43  1  0
  7  8  1  0
  7 28  1  0
  8 46  1  0
  8 45  1  0
  8  9  1  0
  9 10  1  0
  9 47  1  0
  9 48  1  0
 10 26  1  0
 10 11  2  0
 11 13  1  0
 11 12  1  0
 12 51  1  0
 12 50  1  0
 12 49  1  0
 13 52  1  0
 13 14  1  0
 13 53  1  0
 14 54  1  0
 14 55  1  0
 14 15  1  0
 15 17  1  0
 15 26  1  0
 15 16  1  1
 17 18  1  0
 18 19  1  6
 18 21  1  0
 18 20  1  0
 19 58  1  0
 19 56  1  0
 19 57  1  0
 20 61  1  0
 20 60  1  0
 20 59  1  0
 21 24  1  0
 21 23  1  0
 21 22  1  1
 23 62  1  0
 24 63  1  0
 24 64  1  0
 24 25  1  0
 25 26  1  0
 25 65  1  0
 25 66  1  0
 26 27  1  6
 27 68  1  0
 27 69  1  0
 27 67  1  0
 28 30  1  0
 28 29  1  1
 29 72  1  0
 29 71  1  0
 29 70  1  0
 30 73  1  0
 30 74  1  0
 30 31  1  0
 31 32  1  0
 31 75  1  0
 31 76  1  0
 32 33  2  0
 32 34  1  0
 34 35  1  6
 34 37  1  0
 34 36  1  0
 35 79  1  0
 35 77  1  0
 35 78  1  0
 36 82  1  0
 36 81  1  0
 36 80  1  0
M  END
>  <id>  (486) 
590

>  <scaffolds>  (486) 
['C1=CCCCC1', 'O=C1CCC2C(CCC3=CCCC4OCCCCC34)=CCCC2OC1']

>  <name>  (486) 
Sodwanone T

>  <formula>  (486) 
C30H48O4

>  <SMILES>  (486) 
[H][C@]34CCC(C)=C(CCC1=C(C)CC[C@]2([H])OC(C)(C)[C@H](O)CC[C@@]12C)[C@]3(C)CCC(=O)C(C)(C)O4

>  <ChEMBL_id>  (486) 
CHEMBL491172

>  <ZINC_id>  (486) 


>  <PubChem_id>  (486) 
 16099425

>  <DrugBank_id>  (486) 


>  <CAS_no>  (486) 
917964-33-1

>  <references>  (486) 
[{'journal': {'name': 'Journal of Natural Products', 'id': 5}, 'title': 'Sodwanone and Yardenone Triterpenes from a South African Species of the Marine Sponge Axinella Inhibit Hypoxia-Inducible Factor-1 (HIF-1) Activation in Both Breast and Prostate Tumor Cells', 'year': 2006, 'start_page': 1715, 'volume': 69, 'issue': None, 'doi': '10.1021/np060278q', 'isbn': '', 'despositor': {'code': 'NFA', 'first_name': 'Ngonidzashe', 'last_name': 'Faya', 'id': 21}, 'refauthors_set': [{'author': {'first_name': 'Jingqiu', 'initials': 'J', 'last_name': 'Dai', 'id': 782}, 'first_author': True, 'id': 1112}, {'author': {'first_name': 'James', 'initials': 'JA', 'last_name': 'Fishback', 'id': 783}, 'first_author': False, 'id': 1113}, {'author': {'first_name': 'Yu-Dong', 'initials': 'Y', 'last_name': 'Zhou', 'id': 784}, 'first_author': False, 'id': 1114}, {'author': {'first_name': 'Dale', 'initials': 'DG', 'last_name': 'Nagle', 'id': 785}, 'first_author': False, 'id': 1115}], 'id': 367}]

>  <classifications>  (486) 
[{'classification': 'Sodwanone', 'id': 831}, {'classification': 'Terpenoid', 'id': 839}, {'classification': 'Triterpene', 'id': 842}, {'classification': 'Phenol lipids (Classyfire)', 'id': 951}]

>  <molecular_mass>  (486) 
472.7

$$$$
SANC00591_minRM1.pdb
     RDKit          3D

 77 80  0  0  1  0  0  0  0  0999 V2000
   -2.8180    0.4420   -1.4310 H   0  0  0  0  0  0  0  0  0  0  0  0
   -3.3890    0.8270   -0.5430 C   0  0  1  0  0  0  0  0  0  0  0  0
   -3.7020    2.3110   -0.7600 C   0  0  0  0  0  0  0  0  0  0  0  0
   -2.4100    3.0680   -1.0140 C   0  0  0  0  0  0  0  0  0  0  0  0
   -1.2470    2.5820   -0.2190 C   0  0  0  0  0  0  0  0  0  0  0  0
   -0.0440    3.4560   -0.3270 C   0  0  0  0  0  0  0  0  0  0  0  0
   -1.2540    1.4640    0.5200 C   0  0  0  0  0  0  0  0  0  0  0  0
   -0.0150    1.0180    1.2330 C   0  0  0  0  0  0  0  0  0  0  0  0
    0.9530    0.4170    0.2150 C   0  0  0  0  0  0  0  0  0  0  0  0
    2.3140   -0.0130    0.8220 C   0  0  1  0  0  0  0  0  0  0  0  0
    2.0730   -1.0430    1.9270 C   0  0  0  0  0  0  0  0  0  0  0  0
    3.3060   -1.9150    2.1010 C   0  0  0  0  0  0  0  0  0  0  0  0
    3.3420   -2.7850    0.8790 C   0  0  0  0  0  0  0  0  0  0  0  0
    3.3460   -3.9970    0.9560 O   0  0  0  0  0  0  0  0  0  0  0  0
    3.3390   -2.0690   -0.4600 C   0  0  1  0  0  0  0  0  0  0  0  0
    4.6990   -2.3950   -1.0910 C   0  0  0  0  0  0  0  0  0  0  0  0
    2.2210   -2.6580   -1.3170 C   0  0  0  0  0  0  0  0  0  0  0  0
    3.1210   -0.5920   -0.3240 C   0  0  0  0  0  0  0  0  0  0  0  0
    3.5350    0.2940   -1.2530 C   0  0  0  0  0  0  0  0  0  0  0  0
    4.0770   -0.1210   -2.4220 O   0  0  0  0  0  0  0  0  0  0  0  0
    3.4800    1.7580   -0.9880 C   0  0  0  0  0  0  0  0  0  0  0  0
    3.4670    2.5700   -1.8970 O   0  0  0  0  0  0  0  0  0  0  0  0
    3.4950    2.1090    0.4370 C   0  0  0  0  0  0  0  0  0  0  0  0
    4.0990    3.4140    0.8010 C   0  0  0  0  0  0  0  0  0  0  0  0
    2.9810    1.2450    1.3290 C   0  0  0  0  0  0  0  0  0  0  0  0
    3.0350    1.5640    2.7770 C   0  0  0  0  0  0  0  0  0  0  0  0
   -2.5070    0.6470    0.7130 C   0  0  1  0  0  0  0  0  0  0  0  0
   -3.1840    1.1770    1.9750 C   0  0  0  0  0  0  0  0  0  0  0  0
   -2.1850   -0.8440    0.8920 C   0  0  0  0  0  0  0  0  0  0  0  0
   -3.4120   -1.7180    1.1160 C   0  0  0  0  0  0  0  0  0  0  0  0
   -4.0190   -2.1060   -0.2040 C   0  0  0  0  0  0  0  0  0  0  0  0
   -3.9140   -3.2330   -0.6520 O   0  0  0  0  0  0  0  0  0  0  0  0
   -4.8180   -1.0460   -0.9560 C   0  0  1  0  0  0  0  0  0  0  0  0
   -4.4620   -1.0750   -2.4450 C   0  0  0  0  0  0  0  0  0  0  0  0
   -6.3140   -1.3510   -0.7710 C   0  0  0  0  0  0  0  0  0  0  0  0
   -4.6460    0.2180   -0.3720 O   0  0  0  0  0  0  0  0  0  0  0  0
   -4.3990    2.4380   -1.6160 H   0  0  0  0  0  0  0  0  0  0  0  0
   -4.2670    2.7350    0.0960 H   0  0  0  0  0  0  0  0  0  0  0  0
   -2.1370    3.0060   -2.0920 H   0  0  0  0  0  0  0  0  0  0  0  0
   -2.5710    4.1520   -0.8270 H   0  0  0  0  0  0  0  0  0  0  0  0
   -0.1170    4.2030   -1.1340 H   0  0  0  0  0  0  0  0  0  0  0  0
    0.1300    4.0160    0.6030 H   0  0  0  0  0  0  0  0  0  0  0  0
    0.8780    2.8900   -0.5450 H   0  0  0  0  0  0  0  0  0  0  0  0
    0.4520    1.8660    1.7810 H   0  0  0  0  0  0  0  0  0  0  0  0
   -0.2620    0.2950    2.0420 H   0  0  0  0  0  0  0  0  0  0  0  0
    0.4830   -0.4490   -0.2960 H   0  0  0  0  0  0  0  0  0  0  0  0
    1.1120    1.1520   -0.6070 H   0  0  0  0  0  0  0  0  0  0  0  0
    1.7990   -0.5600    2.8930 H   0  0  0  0  0  0  0  0  0  0  0  0
    1.1860   -1.6800    1.6950 H   0  0  0  0  0  0  0  0  0  0  0  0
    4.2340   -1.3130    2.1800 H   0  0  0  0  0  0  0  0  0  0  0  0
    3.2680   -2.5090    3.0360 H   0  0  0  0  0  0  0  0  0  0  0  0
    5.0640   -3.4000   -0.8120 H   0  0  0  0  0  0  0  0  0  0  0  0
    4.6680   -2.3960   -2.1850 H   0  0  0  0  0  0  0  0  0  0  0  0
    5.4760   -1.6850   -0.7890 H   0  0  0  0  0  0  0  0  0  0  0  0
    1.2500   -2.6240   -0.8120 H   0  0  0  0  0  0  0  0  0  0  0  0
    2.1000   -2.1120   -2.2690 H   0  0  0  0  0  0  0  0  0  0  0  0
    2.4100   -3.7120   -1.5680 H   0  0  0  0  0  0  0  0  0  0  0  0
    4.1720    0.6330   -3.0140 H   0  0  0  0  0  0  0  0  0  0  0  0
    4.6590    3.8760   -0.0260 H   0  0  0  0  0  0  0  0  0  0  0  0
    3.3230    4.1380    1.0960 H   0  0  0  0  0  0  0  0  0  0  0  0
    4.8060    3.3300    1.6400 H   0  0  0  0  0  0  0  0  0  0  0  0
    2.7170    2.5940    2.9920 H   0  0  0  0  0  0  0  0  0  0  0  0
    2.4030    0.9220    3.4110 H   0  0  0  0  0  0  0  0  0  0  0  0
    4.0610    1.4560    3.1610 H   0  0  0  0  0  0  0  0  0  0  0  0
   -3.3040    2.2700    1.9610 H   0  0  0  0  0  0  0  0  0  0  0  0
   -4.1860    0.7500    2.1260 H   0  0  0  0  0  0  0  0  0  0  0  0
   -2.6000    0.9500    2.8790 H   0  0  0  0  0  0  0  0  0  0  0  0
   -1.5980   -1.2220    0.0290 H   0  0  0  0  0  0  0  0  0  0  0  0
   -1.5030   -0.9730    1.7630 H   0  0  0  0  0  0  0  0  0  0  0  0
   -3.1330   -2.6300    1.6900 H   0  0  0  0  0  0  0  0  0  0  0  0
   -4.1770   -1.2200    1.7500 H   0  0  0  0  0  0  0  0  0  0  0  0
   -4.8540   -1.9740   -2.9300 H   0  0  0  0  0  0  0  0  0  0  0  0
   -4.8730   -0.2110   -2.9790 H   0  0  0  0  0  0  0  0  0  0  0  0
   -3.3770   -1.0910   -2.6250 H   0  0  0  0  0  0  0  0  0  0  0  0
   -6.6250   -1.2950    0.2900 H   0  0  0  0  0  0  0  0  0  0  0  0
   -6.9430   -0.6350   -1.3240 H   0  0  0  0  0  0  0  0  0  0  0  0
   -6.5630   -2.3570   -1.1370 H   0  0  0  0  0  0  0  0  0  0  0  0
  2  1  1  6
  2  3  1  0
  2 36  1  0
  2 27  1  0
  3 37  1  0
  3  4  1  0
  3 38  1  0
  4 39  1  0
  4 40  1  0
  4  5  1  0
  5  6  1  0
  5  7  2  0
  6 41  1  0
  6 43  1  0
  6 42  1  0
  7 27  1  0
  7  8  1  0
  8  9  1  0
  8 44  1  0
  8 45  1  0
  9 47  1  0
  9 46  1  0
 10  9  1  6
 10 18  1  0
 10 25  1  0
 10 11  1  0
 11 49  1  0
 11 12  1  0
 11 48  1  0
 12 13  1  0
 12 50  1  0
 12 51  1  0
 13 15  1  0
 13 14  2  0
 15 17  1  6
 15 16  1  0
 15 18  1  0
 16 53  1  0
 16 52  1  0
 16 54  1  0
 17 56  1  0
 17 57  1  0
 17 55  1  0
 18 19  2  0
 19 20  1  0
 19 21  1  0
 20 58  1  0
 21 22  2  0
 21 23  1  0
 23 24  1  0
 23 25  2  0
 24 59  1  0
 24 60  1  0
 24 61  1  0
 25 26  1  0
 26 62  1  0
 26 64  1  0
 26 63  1  0
 27 29  1  0
 27 28  1  1
 28 65  1  0
 28 66  1  0
 28 67  1  0
 29 68  1  0
 29 30  1  0
 29 69  1  0
 30 31  1  0
 30 70  1  0
 30 71  1  0
 31 33  1  0
 31 32  2  0
 33 34  1  6
 33 35  1  0
 33 36  1  0
 34 73  1  0
 34 72  1  0
 34 74  1  0
 35 76  1  0
 35 77  1  0
 35 75  1  0
M  END
>  <id>  (487) 
591

>  <scaffolds>  (487) 
['C1=CCCCC1', 'C1CCCCC1']

>  <name>  (487) 
Sodwanone U

>  <formula>  (487) 
C30H42O5

>  <SMILES>  (487) 
[H][C@]34CCC(C)=C(CCC12CCC(=O)C(C)(C)C1=C(O)C(=O)C(C)=C2C)[C@]3(C)CCC(=O)C(C)(C)O4

>  <ChEMBL_id>  (487) 


>  <ZINC_id>  (487) 


>  <PubChem_id>  (487) 


>  <DrugBank_id>  (487) 


>  <CAS_no>  (487) 
917964-34-2

>  <references>  (487) 
[{'journal': {'name': 'Journal of Natural Products', 'id': 5}, 'title': 'Sodwanone and Yardenone Triterpenes from a South African Species of the Marine Sponge Axinella Inhibit Hypoxia-Inducible Factor-1 (HIF-1) Activation in Both Breast and Prostate Tumor Cells', 'year': 2006, 'start_page': 1715, 'volume': 69, 'issue': None, 'doi': '10.1021/np060278q', 'isbn': '', 'despositor': {'code': 'NFA', 'first_name': 'Ngonidzashe', 'last_name': 'Faya', 'id': 21}, 'refauthors_set': [{'author': {'first_name': 'Jingqiu', 'initials': 'J', 'last_name': 'Dai', 'id': 782}, 'first_author': True, 'id': 1112}, {'author': {'first_name': 'James', 'initials': 'JA', 'last_name': 'Fishback', 'id': 783}, 'first_author': False, 'id': 1113}, {'author': {'first_name': 'Yu-Dong', 'initials': 'Y', 'last_name': 'Zhou', 'id': 784}, 'first_author': False, 'id': 1114}, {'author': {'first_name': 'Dale', 'initials': 'DG', 'last_name': 'Nagle', 'id': 785}, 'first_author': False, 'id': 1115}], 'id': 367}]

>  <classifications>  (487) 
[{'classification': 'Sodwanone', 'id': 831}, {'classification': 'Terpenoid', 'id': 839}, {'classification': 'Triterpene', 'id': 842}, {'classification': 'Phenol lipids (Classyfire)', 'id': 951}]

>  <molecular_mass>  (487) 
482.65

$$$$
SANC00592_minRM1.pdb
     RDKit          3D

 85 89  0  0  1  0  0  0  0  0999 V2000
    2.5230    1.3250   -0.4580 H   0  0  0  0  0  0  0  0  0  0  0  0
    2.9760    0.3900   -0.8870 C   0  0  1  0  0  0  0  0  0  0  0  0
    2.7940    0.4380   -2.4190 C   0  0  0  0  0  0  0  0  0  0  0  0
    1.5840   -0.3430   -2.8850 C   0  0  0  0  0  0  0  0  0  0  0  0
    1.6830   -1.7630   -2.3370 C   0  0  2  0  0  0  0  0  0  0  0  0
    2.7230   -2.1530   -2.5000 H   0  0  0  0  0  0  0  0  0  0  0  0
    0.7200   -2.6710   -3.0940 C   0  0  0  0  0  0  0  0  0  0  0  0
    1.4240   -1.7360   -0.8180 C   0  0  2  0  0  0  0  0  0  0  0  0
    1.6400   -3.1550   -0.2830 C   0  0  0  0  0  0  0  0  0  0  0  0
   -0.0290   -1.2840   -0.5500 C   0  0  0  0  0  0  0  0  0  0  0  0
   -0.3880   -1.2060    0.9290 C   0  0  0  0  0  0  0  0  0  0  0  0
   -1.8980   -1.1450    1.2410 C   0  0  2  0  0  0  0  0  0  0  0  0
   -2.0480   -1.2920    2.7630 C   0  0  0  0  0  0  0  0  0  0  0  0
   -2.6580   -2.2740    0.5230 C   0  0  1  0  0  0  0  0  0  0  0  0
   -2.5090   -2.1450   -0.5840 H   0  0  0  0  0  0  0  0  0  0  0  0
   -2.1330   -3.6530    0.9150 C   0  0  0  0  0  0  0  0  0  0  0  0
   -4.1550   -2.2090    0.8310 C   0  0  0  0  0  0  0  0  0  0  0  0
   -4.7330   -0.8820    0.3710 C   0  0  0  0  0  0  0  0  0  0  0  0
   -4.0340    0.2720    1.0900 C   0  0  2  0  0  0  0  0  0  0  0  0
   -4.2780    0.2520    2.1840 H   0  0  0  0  0  0  0  0  0  0  0  0
   -4.5660    1.5130    0.7000 O   0  0  0  0  0  0  0  0  0  0  0  0
   -4.1370    2.0690   -0.5240 C   0  0  1  0  0  0  0  0  0  0  0  0
   -4.8750    1.4540   -1.7100 C   0  0  0  0  0  0  0  0  0  0  0  0
   -4.4840    3.5560   -0.4220 C   0  0  0  0  0  0  0  0  0  0  0  0
   -2.6000    1.8710   -0.6430 C   0  0  1  0  0  0  0  0  0  0  0  0
   -2.1850    2.2550   -1.8970 O   0  0  0  0  0  0  0  0  0  0  0  0
   -1.8420    2.5270    0.5370 C   0  0  0  0  0  0  0  0  0  0  0  0
   -1.8100    1.4060    1.5760 C   0  0  0  0  0  0  0  0  0  0  0  0
   -2.5000    0.2170    0.8590 C   0  0  1  0  0  0  0  0  0  0  0  0
   -2.3350    0.4830   -0.5180 O   0  0  0  0  0  0  0  0  0  0  0  0
    2.3620   -0.7700   -0.1420 C   0  0  0  0  0  0  0  0  0  0  0  0
    2.6070   -0.8850    1.1670 C   0  0  0  0  0  0  0  0  0  0  0  0
    3.3390    0.1210    1.9830 C   0  0  0  0  0  0  0  0  0  0  0  0
    4.8230    0.1800    1.5940 C   0  0  2  0  0  0  0  0  0  0  0  0
    5.2170   -0.8640    1.4560 H   0  0  0  0  0  0  0  0  0  0  0  0
    5.5430    0.8760    2.5720 O   0  0  0  0  0  0  0  0  0  0  0  0
    5.0280    0.9830    0.2830 C   0  0  1  0  0  0  0  0  0  0  0  0
    4.5940    2.4400    0.4320 C   0  0  0  0  0  0  0  0  0  0  0  0
    6.5080    0.9290   -0.1310 C   0  0  0  0  0  0  0  0  0  0  0  0
    4.3790    0.3080   -0.7610 O   0  0  0  0  0  0  0  0  0  0  0  0
    2.7300    1.4980   -2.7460 H   0  0  0  0  0  0  0  0  0  0  0  0
    3.6990    0.0600   -2.9470 H   0  0  0  0  0  0  0  0  0  0  0  0
    0.6370    0.1490   -2.5650 H   0  0  0  0  0  0  0  0  0  0  0  0
    1.5310   -0.3430   -3.9940 H   0  0  0  0  0  0  0  0  0  0  0  0
    1.0860   -2.8880   -4.1080 H   0  0  0  0  0  0  0  0  0  0  0  0
    0.5820   -3.6440   -2.5950 H   0  0  0  0  0  0  0  0  0  0  0  0
   -0.2810   -2.2320   -3.2210 H   0  0  0  0  0  0  0  0  0  0  0  0
    2.6970   -3.4530   -0.3200 H   0  0  0  0  0  0  0  0  0  0  0  0
    1.3110   -3.2700    0.7620 H   0  0  0  0  0  0  0  0  0  0  0  0
    1.0760   -3.9040   -0.8640 H   0  0  0  0  0  0  0  0  0  0  0  0
   -0.1770   -0.2960   -1.0400 H   0  0  0  0  0  0  0  0  0  0  0  0
   -0.7400   -1.9630   -1.0690 H   0  0  0  0  0  0  0  0  0  0  0  0
    0.0460   -2.0780    1.4680 H   0  0  0  0  0  0  0  0  0  0  0  0
    0.1090   -0.3180    1.3850 H   0  0  0  0  0  0  0  0  0  0  0  0
   -1.3130   -0.7000    3.3280 H   0  0  0  0  0  0  0  0  0  0  0  0
   -3.0320   -0.9790    3.1410 H   0  0  0  0  0  0  0  0  0  0  0  0
   -1.9110   -2.3360    3.0890 H   0  0  0  0  0  0  0  0  0  0  0  0
   -2.0880   -3.7910    2.0070 H   0  0  0  0  0  0  0  0  0  0  0  0
   -2.7660   -4.4620    0.5210 H   0  0  0  0  0  0  0  0  0  0  0  0
   -1.1240   -3.8510    0.5260 H   0  0  0  0  0  0  0  0  0  0  0  0
   -4.6880   -3.0400    0.3170 H   0  0  0  0  0  0  0  0  0  0  0  0
   -4.3620   -2.3900    1.9050 H   0  0  0  0  0  0  0  0  0  0  0  0
   -4.6330   -0.7930   -0.7340 H   0  0  0  0  0  0  0  0  0  0  0  0
   -5.8260   -0.8360    0.5560 H   0  0  0  0  0  0  0  0  0  0  0  0
   -5.9610    1.4360   -1.5430 H   0  0  0  0  0  0  0  0  0  0  0  0
   -4.6950    2.0210   -2.6340 H   0  0  0  0  0  0  0  0  0  0  0  0
   -4.5620    0.4180   -1.9170 H   0  0  0  0  0  0  0  0  0  0  0  0
   -4.0040    4.0390    0.4440 H   0  0  0  0  0  0  0  0  0  0  0  0
   -4.1570    4.0990   -1.3200 H   0  0  0  0  0  0  0  0  0  0  0  0
   -5.5660    3.7150   -0.3140 H   0  0  0  0  0  0  0  0  0  0  0  0
   -1.2780    1.9530   -2.0290 H   0  0  0  0  0  0  0  0  0  0  0  0
   -0.8290    2.8630    0.2440 H   0  0  0  0  0  0  0  0  0  0  0  0
   -2.3460    3.4420    0.9040 H   0  0  0  0  0  0  0  0  0  0  0  0
   -0.7680    1.1600    1.8720 H   0  0  0  0  0  0  0  0  0  0  0  0
   -2.3170    1.6790    2.5200 H   0  0  0  0  0  0  0  0  0  0  0  0
    2.2510   -1.7450    1.7460 H   0  0  0  0  0  0  0  0  0  0  0  0
    2.8650    1.1260    1.8990 H   0  0  0  0  0  0  0  0  0  0  0  0
    3.2330   -0.1190    3.0640 H   0  0  0  0  0  0  0  0  0  0  0  0
    5.6130    0.3030    3.3400 H   0  0  0  0  0  0  0  0  0  0  0  0
    5.3070    3.0060    1.0500 H   0  0  0  0  0  0  0  0  0  0  0  0
    4.5340    2.9500   -0.5400 H   0  0  0  0  0  0  0  0  0  0  0  0
    3.6170    2.5510    0.9270 H   0  0  0  0  0  0  0  0  0  0  0  0
    6.8560   -0.1000   -0.3030 H   0  0  0  0  0  0  0  0  0  0  0  0
    6.6880    1.4820   -1.0640 H   0  0  0  0  0  0  0  0  0  0  0  0
    7.1590    1.3660    0.6380 H   0  0  0  0  0  0  0  0  0  0  0  0
  2  1  1  1
  2  3  1  0
  2 40  1  0
  2 31  1  0
  3 42  1  0
  3  4  1  0
  3 41  1  0
  4 44  1  0
  4 43  1  0
  4  5  1  0
  5  7  1  0
  5  6  1  1
  5  8  1  0
  7 45  1  0
  7 47  1  0
  7 46  1  0
  8 10  1  6
  8  9  1  0
  8 31  1  0
  9 50  1  0
  9 48  1  0
  9 49  1  0
 10 52  1  0
 10 51  1  0
 10 11  1  0
 11 54  1  0
 11 53  1  0
 12 11  1  1
 12 14  1  0
 12 29  1  0
 12 13  1  0
 13 57  1  0
 13 56  1  0
 13 55  1  0
 14 15  1  6
 14 17  1  0
 14 16  1  0
 16 59  1  0
 16 60  1  0
 16 58  1  0
 17 61  1  0
 17 18  1  0
 17 62  1  0
 18 63  1  0
 18 64  1  0
 18 19  1  0
 19 21  1  0
 19 29  1  0
 19 20  1  1
 21 22  1  0
 22 23  1  6
 22 25  1  0
 22 24  1  0
 23 66  1  0
 23 67  1  0
 23 65  1  0
 24 69  1  0
 24 70  1  0
 24 68  1  0
 25 26  1  6
 25 30  1  0
 25 27  1  0
 26 71  1  0
 27 72  1  0
 27 73  1  0
 27 28  1  0
 29 28  1  1
 28 74  1  0
 28 75  1  0
 29 30  1  0
 31 32  2  0
 32 76  1  0
 32 33  1  0
 33 34  1  0
 33 77  1  0
 33 78  1  0
 34 37  1  0
 34 35  1  6
 34 36  1  0
 36 79  1  0
 37 40  1  0
 37 39  1  6
 37 38  1  0
 38 81  1  0
 38 82  1  0
 38 80  1  0
 39 84  1  0
 39 83  1  0
 39 85  1  0
M  END
>  <id>  (488) 
592

>  <scaffolds>  (488) 
['C1CCCCC1', 'C1=C2C(CCC3CCCC4OCC5CCC34O5)CCCC2OCCC1']

>  <name>  (488) 
Sodwanone V

>  <formula>  (488) 
C30H50O5

>  <SMILES>  (488) 
[H][C@]45CC[C@H](C)[C@](C)(CC[C@]2(C)[C@@H](C)CC[C@]1([H])OC(C)(C)[C@@]3(O)CC[C@]12O3)C4=CC[C@H](O)C(C)(C)O5

>  <ChEMBL_id>  (488) 
CHEMBL522637

>  <ZINC_id>  (488) 


>  <PubChem_id>  (488) 
 16099431

>  <DrugBank_id>  (488) 


>  <CAS_no>  (488) 
917964-35-3

>  <references>  (488) 
[{'journal': {'name': 'Journal of Natural Products', 'id': 5}, 'title': 'Sodwanone and Yardenone Triterpenes from a South African Species of the Marine Sponge Axinella Inhibit Hypoxia-Inducible Factor-1 (HIF-1) Activation in Both Breast and Prostate Tumor Cells', 'year': 2006, 'start_page': 1715, 'volume': 69, 'issue': None, 'doi': '10.1021/np060278q', 'isbn': '', 'despositor': {'code': 'NFA', 'first_name': 'Ngonidzashe', 'last_name': 'Faya', 'id': 21}, 'refauthors_set': [{'author': {'first_name': 'Jingqiu', 'initials': 'J', 'last_name': 'Dai', 'id': 782}, 'first_author': True, 'id': 1112}, {'author': {'first_name': 'James', 'initials': 'JA', 'last_name': 'Fishback', 'id': 783}, 'first_author': False, 'id': 1113}, {'author': {'first_name': 'Yu-Dong', 'initials': 'Y', 'last_name': 'Zhou', 'id': 784}, 'first_author': False, 'id': 1114}, {'author': {'first_name': 'Dale', 'initials': 'DG', 'last_name': 'Nagle', 'id': 785}, 'first_author': False, 'id': 1115}], 'id': 367}]

>  <classifications>  (488) 
[{'classification': 'Sodwanone', 'id': 831}, {'classification': 'Terpenoid', 'id': 839}, {'classification': 'Triterpene', 'id': 842}, {'classification': 'Oxepanes (Classyfire)', 'id': 981}]

>  <molecular_mass>  (488) 
490.71

$$$$
SANC00593_minRM1.pdb
     RDKit          3D

 84 87  0  0  1  0  0  0  0  0999 V2000
   -3.3330    0.1500   -1.3330 H   0  0  0  0  0  0  0  0  0  0  0  0
    6.1610    3.9470    0.3660 C   0  0  0  0  0  0  0  0  0  0  0  0
    6.7750    1.7830    1.4690 C   0  0  0  0  0  0  0  0  0  0  0  0
   -2.7630   -3.1310    2.5720 C   0  0  0  0  0  0  0  0  0  0  0  0
   -0.0080   -2.6990   -2.3460 C   0  0  0  0  0  0  0  0  0  0  0  0
   -4.5200    2.2480   -2.0560 C   0  0  0  0  0  0  0  0  0  0  0  0
   -5.7050    3.1240   -0.0350 C   0  0  0  0  0  0  0  0  0  0  0  0
   -1.3910   -0.4660    2.7660 C   0  0  0  0  0  0  0  0  0  0  0  0
    2.9430   -1.0110   -2.4250 C   0  0  0  0  0  0  0  0  0  0  0  0
    3.7910    2.5440    0.9700 O   0  0  0  0  0  0  0  0  0  0  0  0
   -3.2220    4.3790   -0.7590 O   0  0  0  0  0  0  0  0  0  0  0  0
   -1.6560    1.2750    0.5050 C   0  0  0  0  0  0  0  0  0  0  0  0
    4.3040    0.7840   -0.5700 C   0  0  0  0  0  0  0  0  0  0  0  0
   -1.9000    2.3970   -0.4420 C   0  0  0  0  0  0  0  0  0  0  0  0
    2.2040   -3.8100   -1.7930 C   0  0  0  0  0  0  0  0  0  0  0  0
    3.4860   -3.5580   -0.9840 C   0  0  0  0  0  0  0  0  0  0  0  0
   -3.8480   -2.3180    0.4830 C   0  0  0  0  0  0  0  0  0  0  0  0
    2.9190    0.2190   -0.2710 C   0  0  0  0  0  0  0  0  0  0  0  0
   -4.5750   -1.1240   -0.0950 C   0  0  0  0  0  0  0  0  0  0  0  0
   -0.8960   -1.8090    0.6950 C   0  0  0  0  0  0  0  0  0  0  0  0
    0.2530   -0.9920    0.1160 C   0  0  0  0  0  0  0  0  0  0  0  0
    2.1850   -2.4240    0.6570 O   0  0  0  0  0  0  0  0  0  0  0  0
   -4.5080    1.1630    0.1380 O   0  0  0  0  0  0  0  0  0  0  0  0
    4.6270    1.9780    0.2950 C   0  0  0  0  0  0  0  0  0  0  0  0
   -2.4080    0.1720    0.5810 C   0  0  0  0  0  0  0  0  0  0  0  0
    6.0750    2.4290    0.2790 C   0  0  1  0  0  0  0  0  0  0  0  0
   -3.1630   -1.8930    1.7770 C   0  0  2  0  0  0  0  0  0  0  0  0
    0.9660   -3.0760   -1.2420 C   0  0  1  0  0  0  0  0  0  0  0  0
   -3.1830    3.1570   -0.0780 C   0  0  2  0  0  0  0  0  0  0  0  0
    3.3690   -2.2900   -0.1420 C   0  0  2  0  0  0  0  0  0  0  0  0
   -4.4510    2.3910   -0.5380 C   0  0  1  0  0  0  0  0  0  0  0  0
   -3.6600    0.1060   -0.2580 C   0  0  1  0  0  0  0  0  0  0  0  0
   -1.9650   -0.9810    1.4410 C   0  0  2  0  0  0  0  0  0  0  0  0
    2.6850   -1.1290   -0.9500 C   0  0  2  0  0  0  0  0  0  0  0  0
    1.3830   -1.8600   -0.3980 C   0  0  1  0  0  0  0  0  0  0  0  0
    7.2030    4.2960    0.3400 H   0  0  0  0  0  0  0  0  0  0  0  0
    5.6370    4.4340   -0.4680 H   0  0  0  0  0  0  0  0  0  0  0  0
    5.7160    4.3390    1.2920 H   0  0  0  0  0  0  0  0  0  0  0  0
    6.7470    0.6850    1.4200 H   0  0  0  0  0  0  0  0  0  0  0  0
    7.8350    2.0700    1.5200 H   0  0  0  0  0  0  0  0  0  0  0  0
    6.3210    2.0730    2.4270 H   0  0  0  0  0  0  0  0  0  0  0  0
   -2.2650   -3.8980    1.9610 H   0  0  0  0  0  0  0  0  0  0  0  0
   -2.0810   -2.8910    3.4040 H   0  0  0  0  0  0  0  0  0  0  0  0
   -3.6390   -3.6230    3.0200 H   0  0  0  0  0  0  0  0  0  0  0  0
   -0.1610   -3.5210   -3.0610 H   0  0  0  0  0  0  0  0  0  0  0  0
   -1.0020   -2.4520   -1.9360 H   0  0  0  0  0  0  0  0  0  0  0  0
    0.3110   -1.8240   -2.9290 H   0  0  0  0  0  0  0  0  0  0  0  0
   -4.7540    3.2100   -2.5350 H   0  0  0  0  0  0  0  0  0  0  0  0
   -3.5740    1.9120   -2.5050 H   0  0  0  0  0  0  0  0  0  0  0  0
   -5.3000    1.5370   -2.3640 H   0  0  0  0  0  0  0  0  0  0  0  0
   -6.6260    2.6080   -0.3420 H   0  0  0  0  0  0  0  0  0  0  0  0
   -5.7350    3.1960    1.0610 H   0  0  0  0  0  0  0  0  0  0  0  0
   -5.7580    4.1480   -0.4280 H   0  0  0  0  0  0  0  0  0  0  0  0
   -0.4150    0.0270    2.6540 H   0  0  0  0  0  0  0  0  0  0  0  0
   -2.0600    0.2620    3.2470 H   0  0  0  0  0  0  0  0  0  0  0  0
   -1.2320   -1.2810    3.4910 H   0  0  0  0  0  0  0  0  0  0  0  0
    4.0230   -0.9810   -2.6400 H   0  0  0  0  0  0  0  0  0  0  0  0
    2.5560   -1.8350   -3.0420 H   0  0  0  0  0  0  0  0  0  0  0  0
    2.4980   -0.0980   -2.8490 H   0  0  0  0  0  0  0  0  0  0  0  0
   -2.5730    4.9570   -0.3490 H   0  0  0  0  0  0  0  0  0  0  0  0
   -0.7750    1.4200    1.1390 H   0  0  0  0  0  0  0  0  0  0  0  0
    5.0870    0.0080   -0.4400 H   0  0  0  0  0  0  0  0  0  0  0  0
    4.3920    1.1100   -1.6290 H   0  0  0  0  0  0  0  0  0  0  0  0
   -1.0280    3.0900   -0.4360 H   0  0  0  0  0  0  0  0  0  0  0  0
   -1.9300    2.0370   -1.4950 H   0  0  0  0  0  0  0  0  0  0  0  0
    2.3750   -3.5290   -2.8570 H   0  0  0  0  0  0  0  0  0  0  0  0
    1.9970   -4.9000   -1.8460 H   0  0  0  0  0  0  0  0  0  0  0  0
    3.7010   -4.4180   -0.3160 H   0  0  0  0  0  0  0  0  0  0  0  0
    4.3670   -3.4900   -1.6530 H   0  0  0  0  0  0  0  0  0  0  0  0
   -4.5600   -3.1510    0.6610 H   0  0  0  0  0  0  0  0  0  0  0  0
   -3.1140   -2.7360   -0.2440 H   0  0  0  0  0  0  0  0  0  0  0  0
    2.7960    0.1290    0.8310 H   0  0  0  0  0  0  0  0  0  0  0  0
    2.1420    0.9480   -0.5860 H   0  0  0  0  0  0  0  0  0  0  0  0
   -5.0260   -1.3770   -1.0780 H   0  0  0  0  0  0  0  0  0  0  0  0
   -5.4590   -0.8910    0.5420 H   0  0  0  0  0  0  0  0  0  0  0  0
   -1.3960   -2.3820   -0.1220 H   0  0  0  0  0  0  0  0  0  0  0  0
   -0.4730   -2.5710    1.3830 H   0  0  0  0  0  0  0  0  0  0  0  0
   -0.0890   -0.3440   -0.7180 H   0  0  0  0  0  0  0  0  0  0  0  0
    0.6380   -0.3040    0.8990 H   0  0  0  0  0  0  0  0  0  0  0  0
    6.5660    2.0940   -0.6700 H   0  0  0  0  0  0  0  0  0  0  0  0
   -3.8830   -1.3000    2.4020 H   0  0  0  0  0  0  0  0  0  0  0  0
    0.4490   -3.7970   -0.5510 H   0  0  0  0  0  0  0  0  0  0  0  0
   -3.2240    3.3040    1.0370 H   0  0  0  0  0  0  0  0  0  0  0  0
    4.2620   -2.0630    0.4700 H   0  0  0  0  0  0  0  0  0  0  0  0
  2 37  1  0
  2 26  1  0
  2 36  1  0
  2 38  1  0
  3 26  1  0
  3 39  1  0
  3 40  1  0
  3 41  1  0
  4 27  1  0
  4 42  1  0
  4 44  1  0
  4 43  1  0
  5 45  1  0
  5 47  1  0
  5 46  1  0
  5 28  1  0
  6 48  1  0
  6 49  1  0
  6 50  1  0
 31  6  1  6
  7 31  1  0
  7 53  1  0
  7 51  1  0
  7 52  1  0
  8 54  1  0
  8 55  1  0
  8 56  1  0
  9 58  1  0
  9 59  1  0
  9 57  1  0
 10 24  2  0
 11 60  1  0
 11 29  1  0
 12 14  1  0
 12 25  2  0
 12 61  1  0
 13 63  1  0
 13 62  1  0
 13 18  1  0
 13 24  1  0
 14 65  1  0
 14 64  1  0
 14 29  1  0
 15 66  1  0
 15 67  1  0
 15 28  1  0
 15 16  1  0
 16 69  1  0
 16 68  1  0
 16 30  1  0
 17 71  1  0
 17 19  1  0
 17 70  1  0
 17 27  1  0
 34 18  1  1
 18 73  1  0
 18 72  1  0
 19 74  1  0
 19 32  1  0
 19 75  1  0
 20 76  1  0
 20 21  1  0
 20 77  1  0
 33 20  1  6
 21 78  1  0
 21 79  1  0
 22 35  1  0
 22 30  1  0
 23 31  1  0
 23 32  1  0
 24 26  1  0
 25 32  1  0
 25 33  1  0
 26 80  1  6
 27 33  1  0
 27 81  1  1
 28 82  1  1
 28 35  1  0
 29 31  1  0
 29 83  1  1
 30 34  1  0
 30 84  1  1
 32  1  1  6
 33  8  1  0
 34  9  1  0
 34 35  1  0
 35 21  1  1
M  END
>  <id>  (489) 
593

>  <scaffolds>  (489) 
['C1CCOCC1', 'C1CCCCC1', 'C1=C2C(CCC34CCCC(C3)O4)CCCC2OCCC1']

>  <name>  (489) 
Sodwanone W

>  <formula>  (489) 
C30H50O4

>  <SMILES>  (489) 
[H][C@@]34CC[C@@H](C)[C@@](C)(CC[C@@]12O[C@H](CC[C@@H]1C)[C@]2(C)CCC(=O)C(C)C)C3=CC[C@@H](O)C(C)(C)O4

>  <ChEMBL_id>  (489) 


>  <ZINC_id>  (489) 


>  <PubChem_id>  (489) 


>  <DrugBank_id>  (489) 


>  <CAS_no>  (489) 
917964-36-4

>  <references>  (489) 
[{'journal': {'name': 'Journal of Natural Products', 'id': 5}, 'title': 'Sodwanone and Yardenone Triterpenes from a South African Species of the Marine Sponge Axinella Inhibit Hypoxia-Inducible Factor-1 (HIF-1) Activation in Both Breast and Prostate Tumor Cells', 'year': 2006, 'start_page': 1715, 'volume': 69, 'issue': None, 'doi': '10.1021/np060278q', 'isbn': '', 'despositor': {'code': 'NFA', 'first_name': 'Ngonidzashe', 'last_name': 'Faya', 'id': 21}, 'refauthors_set': [{'author': {'first_name': 'Jingqiu', 'initials': 'J', 'last_name': 'Dai', 'id': 782}, 'first_author': True, 'id': 1112}, {'author': {'first_name': 'James', 'initials': 'JA', 'last_name': 'Fishback', 'id': 783}, 'first_author': False, 'id': 1113}, {'author': {'first_name': 'Yu-Dong', 'initials': 'Y', 'last_name': 'Zhou', 'id': 784}, 'first_author': False, 'id': 1114}, {'author': {'first_name': 'Dale', 'initials': 'DG', 'last_name': 'Nagle', 'id': 785}, 'first_author': False, 'id': 1115}], 'id': 367}]

>  <classifications>  (489) 
[{'classification': 'Sodwanone', 'id': 831}, {'classification': 'Terpenoid', 'id': 839}, {'classification': 'Triterpene', 'id': 842}, {'classification': 'Oxanes (Classyfire)', 'id': 990}]

>  <molecular_mass>  (489) 
474.71

$$$$
SANC00594_minRM1.pdb
     RDKit          3D

 79 82  0  0  1  0  0  0  0  0999 V2000
    4.0890    0.5610    1.7350 H   0  0  0  0  0  0  0  0  0  0  0  0
    4.2520   -0.1270    0.8610 C   0  0  2  0  0  0  0  0  0  0  0  0
    4.6540   -1.5030    1.4150 C   0  0  0  0  0  0  0  0  0  0  0  0
    3.5500   -2.0190    2.3200 C   0  0  0  0  0  0  0  0  0  0  0  0
    2.2260   -2.1560    1.5720 C   0  0  2  0  0  0  0  0  0  0  0  0
    1.4290   -2.3620    2.3400 H   0  0  0  0  0  0  0  0  0  0  0  0
    2.2620   -3.3700    0.6540 C   0  0  0  0  0  0  0  0  0  0  0  0
    1.8510   -0.8310    0.8890 C   0  0  2  0  0  0  0  0  0  0  0  0
    1.6740   -0.0980    1.7250 H   0  0  0  0  0  0  0  0  0  0  0  0
    0.5390   -0.9890    0.1060 C   0  0  0  0  0  0  0  0  0  0  0  0
   -0.6830   -0.9780    1.0320 C   0  0  0  0  0  0  0  0  0  0  0  0
   -1.9500   -0.9940    0.2410 C   0  0  0  0  0  0  0  0  0  0  0  0
   -2.5400   -2.1520   -0.0960 C   0  0  0  0  0  0  0  0  0  0  0  0
   -2.0550   -3.5000    0.2840 C   0  0  0  0  0  0  0  0  0  0  0  0
   -3.8040   -2.1090   -0.8490 C   0  0  0  0  0  0  0  0  0  0  0  0
   -4.1680   -2.9590   -1.6420 O   0  0  0  0  0  0  0  0  0  0  0  0
   -4.6490   -0.9290   -0.5220 C   0  0  0  0  0  0  0  0  0  0  0  0
   -5.9950   -1.0700   -0.5840 O   0  0  0  0  0  0  0  0  0  0  0  0
   -4.0840    0.2150   -0.0900 C   0  0  0  0  0  0  0  0  0  0  0  0
   -4.9050    1.3620    0.4160 C   0  0  1  0  0  0  0  0  0  0  0  0
   -5.5420    2.0750   -0.7760 C   0  0  0  0  0  0  0  0  0  0  0  0
   -5.9910    0.8810    1.3920 C   0  0  0  0  0  0  0  0  0  0  0  0
   -4.0960    2.3600    1.2250 C   0  0  0  0  0  0  0  0  0  0  0  0
   -4.5150    3.4710    1.4830 O   0  0  0  0  0  0  0  0  0  0  0  0
   -2.7480    1.8900    1.6920 C   0  0  0  0  0  0  0  0  0  0  0  0
   -1.9930    1.5470    0.4200 C   0  0  0  0  0  0  0  0  0  0  0  0
   -2.5800    0.2970   -0.2430 C   0  0  1  0  0  0  0  0  0  0  0  0
   -2.2930    0.3960   -1.7550 C   0  0  0  0  0  0  0  0  0  0  0  0
    2.9640   -0.2000    0.0070 C   0  0  2  0  0  0  0  0  0  0  0  0
    3.1790   -0.9820   -1.2790 C   0  0  0  0  0  0  0  0  0  0  0  0
    2.5240    1.2400   -0.3210 C   0  0  0  0  0  0  0  0  0  0  0  0
    3.2010    1.8840   -1.5200 C   0  0  0  0  0  0  0  0  0  0  0  0
    4.6990    1.7660   -1.5880 C   0  0  0  0  0  0  0  0  0  0  0  0
    5.2510    1.8540   -2.6700 O   0  0  0  0  0  0  0  0  0  0  0  0
    5.5210    1.5760   -0.3130 C   0  0  1  0  0  0  0  0  0  0  0  0
    7.0260    1.6710   -0.6300 C   0  0  0  0  0  0  0  0  0  0  0  0
    5.1780    2.6440    0.7210 C   0  0  0  0  0  0  0  0  0  0  0  0
    5.3760    0.2470    0.1070 O   0  0  0  0  0  0  0  0  0  0  0  0
    4.8960   -2.2180    0.6040 H   0  0  0  0  0  0  0  0  0  0  0  0
    5.6070   -1.4210    1.9820 H   0  0  0  0  0  0  0  0  0  0  0  0
    3.8450   -2.9930    2.7670 H   0  0  0  0  0  0  0  0  0  0  0  0
    3.4270   -1.3480    3.1990 H   0  0  0  0  0  0  0  0  0  0  0  0
    2.3660   -4.3060    1.2220 H   0  0  0  0  0  0  0  0  0  0  0  0
    1.3430   -3.4640    0.0540 H   0  0  0  0  0  0  0  0  0  0  0  0
    3.0920   -3.3520   -0.0680 H   0  0  0  0  0  0  0  0  0  0  0  0
    0.4340   -0.1680   -0.6390 H   0  0  0  0  0  0  0  0  0  0  0  0
    0.5490   -1.9150   -0.5080 H   0  0  0  0  0  0  0  0  0  0  0  0
   -0.6530   -1.8330    1.7410 H   0  0  0  0  0  0  0  0  0  0  0  0
   -0.6530   -0.0920    1.7050 H   0  0  0  0  0  0  0  0  0  0  0  0
   -2.2290   -3.6970    1.3550 H   0  0  0  0  0  0  0  0  0  0  0  0
   -2.5550   -4.3130   -0.2680 H   0  0  0  0  0  0  0  0  0  0  0  0
   -0.9780   -3.6330    0.0970 H   0  0  0  0  0  0  0  0  0  0  0  0
   -6.1990   -1.8200   -1.1590 H   0  0  0  0  0  0  0  0  0  0  0  0
   -6.1370    1.3910   -1.3980 H   0  0  0  0  0  0  0  0  0  0  0  0
   -6.2180    2.8820   -0.4550 H   0  0  0  0  0  0  0  0  0  0  0  0
   -4.7870    2.5330   -1.4300 H   0  0  0  0  0  0  0  0  0  0  0  0
   -5.6300    0.0690    2.0400 H   0  0  0  0  0  0  0  0  0  0  0  0
   -6.3510    1.6870    2.0510 H   0  0  0  0  0  0  0  0  0  0  0  0
   -6.8930    0.5140    0.8840 H   0  0  0  0  0  0  0  0  0  0  0  0
   -2.2200    2.6620    2.2890 H   0  0  0  0  0  0  0  0  0  0  0  0
   -2.8520    1.0180    2.3710 H   0  0  0  0  0  0  0  0  0  0  0  0
   -2.0260    2.4170   -0.2750 H   0  0  0  0  0  0  0  0  0  0  0  0
   -0.9090    1.4340    0.6290 H   0  0  0  0  0  0  0  0  0  0  0  0
   -1.2310    0.5900   -1.9630 H   0  0  0  0  0  0  0  0  0  0  0  0
   -2.5540   -0.5150   -2.3110 H   0  0  0  0  0  0  0  0  0  0  0  0
   -2.8590    1.2130   -2.2270 H   0  0  0  0  0  0  0  0  0  0  0  0
    2.3270   -0.9000   -1.9690 H   0  0  0  0  0  0  0  0  0  0  0  0
    4.0640   -0.6540   -1.8450 H   0  0  0  0  0  0  0  0  0  0  0  0
    3.3370   -2.0580   -1.1110 H   0  0  0  0  0  0  0  0  0  0  0  0
    1.4250    1.2670   -0.5180 H   0  0  0  0  0  0  0  0  0  0  0  0
    2.6420    1.8960    0.5730 H   0  0  0  0  0  0  0  0  0  0  0  0
    2.7610    1.4920   -2.4650 H   0  0  0  0  0  0  0  0  0  0  0  0
    2.9560    2.9710   -1.5480 H   0  0  0  0  0  0  0  0  0  0  0  0
    7.2810    2.6400   -1.0800 H   0  0  0  0  0  0  0  0  0  0  0  0
    7.6400    1.5500    0.2730 H   0  0  0  0  0  0  0  0  0  0  0  0
    7.3490    0.8960   -1.3420 H   0  0  0  0  0  0  0  0  0  0  0  0
    4.1030    2.7470    0.9340 H   0  0  0  0  0  0  0  0  0  0  0  0
    5.6770    2.4510    1.6840 H   0  0  0  0  0  0  0  0  0  0  0  0
    5.5160    3.6360    0.3870 H   0  0  0  0  0  0  0  0  0  0  0  0
  2  1  1  1
  2 29  1  0
  2 38  1  0
  2  3  1  0
  3 39  1  0
  3 40  1  0
  3  4  1  0
  4  5  1  0
  4 41  1  0
  4 42  1  0
  5  7  1  0
  5  8  1  0
  5  6  1  1
  7 45  1  0
  7 44  1  0
  7 43  1  0
  8 29  1  0
  8 10  1  0
  8  9  1  1
 10 46  1  0
 10 47  1  0
 10 11  1  0
 11 12  1  0
 11 49  1  0
 11 48  1  0
 12 27  1  0
 12 13  2  0
 13 15  1  0
 13 14  1  0
 14 51  1  0
 14 52  1  0
 14 50  1  0
 15 16  2  0
 15 17  1  0
 17 18  1  0
 17 19  2  0
 18 53  1  0
 19 27  1  0
 19 20  1  0
 20 21  1  6
 20 23  1  0
 20 22  1  0
 21 56  1  0
 21 54  1  0
 21 55  1  0
 22 59  1  0
 22 57  1  0
 22 58  1  0
 23 24  2  0
 23 25  1  0
 25 26  1  0
 25 60  1  0
 25 61  1  0
 26 62  1  0
 26 27  1  0
 26 63  1  0
 27 28  1  6
 28 65  1  0
 28 66  1  0
 28 64  1  0
 29 30  1  6
 29 31  1  0
 30 67  1  0
 30 68  1  0
 30 69  1  0
 31 32  1  0
 31 70  1  0
 31 71  1  0
 32 72  1  0
 32 33  1  0
 32 73  1  0
 33 34  2  0
 33 35  1  0
 35 36  1  6
 35 38  1  0
 35 37  1  0
 36 76  1  0
 36 74  1  0
 36 75  1  0
 37 79  1  0
 37 77  1  0
 37 78  1  0
M  END
>  <id>  (490) 
594

>  <scaffolds>  (490) 
['C1CCCCC1']

>  <name>  (490) 
Sodwanone B

>  <formula>  (490) 
C30H44O5

>  <SMILES>  (490) 
[H][C@@]34CC[C@H](C)[C@H](CCC1=C(C)C(=O)C(O)=C2C(C)(C)C(=O)CC[C@@]12C)[C@@]3(C)CCC(=O)C(C)(C)O4

>  <ChEMBL_id>  (490) 


>  <ZINC_id>  (490) 


>  <PubChem_id>  (490) 


>  <DrugBank_id>  (490) 


>  <CAS_no>  (490) 
150050-13-8

>  <references>  (490) 
[{'journal': {'name': 'Journal of Natural Products', 'id': 5}, 'title': 'Sodwanone and Yardenone Triterpenes from a South African Species of the Marine Sponge Axinella Inhibit Hypoxia-Inducible Factor-1 (HIF-1) Activation in Both Breast and Prostate Tumor Cells', 'year': 2006, 'start_page': 1715, 'volume': 69, 'issue': None, 'doi': '10.1021/np060278q', 'isbn': '', 'despositor': {'code': 'NFA', 'first_name': 'Ngonidzashe', 'last_name': 'Faya', 'id': 21}, 'refauthors_set': [{'author': {'first_name': 'Jingqiu', 'initials': 'J', 'last_name': 'Dai', 'id': 782}, 'first_author': True, 'id': 1112}, {'author': {'first_name': 'James', 'initials': 'JA', 'last_name': 'Fishback', 'id': 783}, 'first_author': False, 'id': 1113}, {'author': {'first_name': 'Yu-Dong', 'initials': 'Y', 'last_name': 'Zhou', 'id': 784}, 'first_author': False, 'id': 1114}, {'author': {'first_name': 'Dale', 'initials': 'DG', 'last_name': 'Nagle', 'id': 785}, 'first_author': False, 'id': 1115}], 'id': 367}]

>  <classifications>  (490) 
[{'classification': 'Sodwanone', 'id': 831}, {'classification': 'Terpenoid', 'id': 839}, {'classification': 'Triterpene', 'id': 842}, {'classification': 'Phenol lipids (Classyfire)', 'id': 951}]

>  <molecular_mass>  (490) 
484.67

$$$$
SANC00595_minRM1.pdb
     RDKit          3D

 83 87  0  0  1  0  0  0  0  0999 V2000
    0.9600    1.1660   -0.3100 H   0  0  0  0  0  0  0  0  0  0  0  0
    1.9320    0.8730   -0.7910 C   0  0  1  0  0  0  0  0  0  0  0  0
    1.7880    1.0370   -2.3150 C   0  0  0  0  0  0  0  0  0  0  0  0
    0.7410    0.0710   -2.8410 C   0  0  0  0  0  0  0  0  0  0  0  0
    1.1510   -1.3620   -2.5150 C   0  0  2  0  0  0  0  0  0  0  0  0
    2.1810   -1.5500   -2.9290 H   0  0  0  0  0  0  0  0  0  0  0  0
    0.1970   -2.3300   -3.2010 C   0  0  0  0  0  0  0  0  0  0  0  0
    1.2310   -1.5480   -0.9810 C   0  0  2  0  0  0  0  0  0  0  0  0
    1.5150   -3.0240   -0.6160 C   0  0  0  0  0  0  0  0  0  0  0  0
    0.2350   -3.5130    0.0630 C   0  0  0  0  0  0  0  0  0  0  0  0
   -0.7850   -2.3930   -0.2190 C   0  0  1  0  0  0  0  0  0  0  0  0
   -1.3070   -2.6340   -1.1900 H   0  0  0  0  0  0  0  0  0  0  0  0
   -1.8610   -2.1740    0.8720 C   0  0  1  0  0  0  0  0  0  0  0  0
   -2.5470   -3.5320    1.0360 C   0  0  0  0  0  0  0  0  0  0  0  0
   -1.2530   -1.7090    2.2110 C   0  0  0  0  0  0  0  0  0  0  0  0
   -1.5480   -0.2170    2.3830 C   0  0  0  0  0  0  0  0  0  0  0  0
   -2.1550    0.2270    1.0470 C   0  0  2  0  0  0  0  0  0  0  0  0
   -1.3470    0.5480    0.3390 H   0  0  0  0  0  0  0  0  0  0  0  0
   -3.0690    1.2630    1.3070 O   0  0  0  0  0  0  0  0  0  0  0  0
   -3.1860    2.2260    0.2900 C   0  0  1  0  0  0  0  0  0  0  0  0
   -4.4770    2.9910    0.6100 C   0  0  0  0  0  0  0  0  0  0  0  0
   -1.9900    3.1810    0.3350 C   0  0  0  0  0  0  0  0  0  0  0  0
   -3.3430    1.5990   -1.0960 C   0  0  0  0  0  0  0  0  0  0  0  0
   -2.8880    2.1470   -2.0800 O   0  0  0  0  0  0  0  0  0  0  0  0
   -4.1160    0.3100   -1.2120 C   0  0  0  0  0  0  0  0  0  0  0  0
   -3.1890   -0.8810   -0.9630 C   0  0  0  0  0  0  0  0  0  0  0  0
   -2.8720   -1.0400    0.5220 C   0  0  1  0  0  0  0  0  0  0  0  0
   -4.1870   -1.2490    1.2760 C   0  0  0  0  0  0  0  0  0  0  0  0
   -0.0130   -1.2240   -0.3920 O   0  0  0  0  0  0  0  0  0  0  0  0
    2.3000   -0.5740   -0.3870 C   0  0  1  0  0  0  0  0  0  0  0  0
    3.6680   -0.9680   -0.9370 C   0  0  0  0  0  0  0  0  0  0  0  0
    2.2770   -0.6810    1.1430 C   0  0  0  0  0  0  0  0  0  0  0  0
    3.5480   -0.2440    1.8530 C   0  0  0  0  0  0  0  0  0  0  0  0
    4.1130    1.0920    1.4560 C   0  0  0  0  0  0  0  0  0  0  0  0
    5.2910    1.3210    1.6660 O   0  0  0  0  0  0  0  0  0  0  0  0
    3.2190    2.1620    0.8250 C   0  0  1  0  0  0  0  0  0  0  0  0
    1.9910    2.4370    1.6880 C   0  0  0  0  0  0  0  0  0  0  0  0
    4.0040    3.4780    0.6620 C   0  0  0  0  0  0  0  0  0  0  0  0
    2.9620    1.7840   -0.4980 O   0  0  0  0  0  0  0  0  0  0  0  0
    1.5020    2.0840   -2.5560 H   0  0  0  0  0  0  0  0  0  0  0  0
    2.7600    0.9000   -2.8340 H   0  0  0  0  0  0  0  0  0  0  0  0
   -0.2630    0.3090   -2.4300 H   0  0  0  0  0  0  0  0  0  0  0  0
    0.6250    0.2050   -3.9380 H   0  0  0  0  0  0  0  0  0  0  0  0
    0.1570   -2.1560   -4.2870 H   0  0  0  0  0  0  0  0  0  0  0  0
    0.4960   -3.3820   -3.0770 H   0  0  0  0  0  0  0  0  0  0  0  0
   -0.8390   -2.2500   -2.8360 H   0  0  0  0  0  0  0  0  0  0  0  0
    1.7810   -3.6350   -1.5010 H   0  0  0  0  0  0  0  0  0  0  0  0
    2.3930   -3.1490    0.0480 H   0  0  0  0  0  0  0  0  0  0  0  0
   -0.1000   -4.4910   -0.3320 H   0  0  0  0  0  0  0  0  0  0  0  0
    0.3980   -3.6880    1.1450 H   0  0  0  0  0  0  0  0  0  0  0  0
   -1.8500   -4.3410    1.2960 H   0  0  0  0  0  0  0  0  0  0  0  0
   -3.2910   -3.5610    1.8460 H   0  0  0  0  0  0  0  0  0  0  0  0
   -3.0700   -3.8430    0.1190 H   0  0  0  0  0  0  0  0  0  0  0  0
   -1.6650   -2.2840    3.0640 H   0  0  0  0  0  0  0  0  0  0  0  0
   -0.1660   -1.9100    2.2660 H   0  0  0  0  0  0  0  0  0  0  0  0
   -2.2320   -0.0280    3.2340 H   0  0  0  0  0  0  0  0  0  0  0  0
   -0.6440    0.3700    2.6350 H   0  0  0  0  0  0  0  0  0  0  0  0
   -4.4210    3.4850    1.5930 H   0  0  0  0  0  0  0  0  0  0  0  0
   -4.6720    3.7740   -0.1360 H   0  0  0  0  0  0  0  0  0  0  0  0
   -5.3580    2.3370    0.6410 H   0  0  0  0  0  0  0  0  0  0  0  0
   -1.0470    2.7070    0.0290 H   0  0  0  0  0  0  0  0  0  0  0  0
   -2.1350    4.0380   -0.3370 H   0  0  0  0  0  0  0  0  0  0  0  0
   -1.8320    3.5840    1.3480 H   0  0  0  0  0  0  0  0  0  0  0  0
   -4.9830    0.3070   -0.5190 H   0  0  0  0  0  0  0  0  0  0  0  0
   -4.5650    0.2340   -2.2250 H   0  0  0  0  0  0  0  0  0  0  0  0
   -3.6580   -1.8090   -1.3520 H   0  0  0  0  0  0  0  0  0  0  0  0
   -2.2730   -0.7450   -1.5750 H   0  0  0  0  0  0  0  0  0  0  0  0
   -4.7600   -2.1100    0.9020 H   0  0  0  0  0  0  0  0  0  0  0  0
   -4.0460   -1.3880    2.3570 H   0  0  0  0  0  0  0  0  0  0  0  0
   -4.8720   -0.3910    1.1700 H   0  0  0  0  0  0  0  0  0  0  0  0
    3.6530   -1.1480   -2.0240 H   0  0  0  0  0  0  0  0  0  0  0  0
    4.4360   -0.1990   -0.7710 H   0  0  0  0  0  0  0  0  0  0  0  0
    4.0590   -1.8920   -0.4860 H   0  0  0  0  0  0  0  0  0  0  0  0
    1.4050   -0.1180    1.5500 H   0  0  0  0  0  0  0  0  0  0  0  0
    2.0730   -1.7300    1.4590 H   0  0  0  0  0  0  0  0  0  0  0  0
    3.3640   -0.2040    2.9520 H   0  0  0  0  0  0  0  0  0  0  0  0
    4.3390   -1.0230    1.7470 H   0  0  0  0  0  0  0  0  0  0  0  0
    2.2710    2.9520    2.6190 H   0  0  0  0  0  0  0  0  0  0  0  0
    1.2720    3.0900    1.1720 H   0  0  0  0  0  0  0  0  0  0  0  0
    1.4400    1.5340    1.9920 H   0  0  0  0  0  0  0  0  0  0  0  0
    4.8780    3.3610    0.0040 H   0  0  0  0  0  0  0  0  0  0  0  0
    3.3790    4.2680    0.2200 H   0  0  0  0  0  0  0  0  0  0  0  0
    4.3770    3.8470    1.6270 H   0  0  0  0  0  0  0  0  0  0  0  0
  2  1  1  1
  2  3  1  0
  2 39  1  0
  2 30  1  0
  3  4  1  0
  3 41  1  0
  3 40  1  0
  4 43  1  0
  4  5  1  0
  4 42  1  0
  5  7  1  0
  5  6  1  6
  5  8  1  0
  7 44  1  0
  7 45  1  0
  7 46  1  0
  8  9  1  0
  8 29  1  1
  8 30  1  0
  9 47  1  0
  9 48  1  0
  9 10  1  0
 10 49  1  0
 10 11  1  0
 10 50  1  0
 11 12  1  6
 11 29  1  0
 11 13  1  0
 13 27  1  0
 13 14  1  1
 13 15  1  0
 14 53  1  0
 14 51  1  0
 14 52  1  0
 15 55  1  0
 15 16  1  0
 15 54  1  0
 16 17  1  0
 16 57  1  0
 16 56  1  0
 17 18  1  6
 17 27  1  0
 17 19  1  0
 19 20  1  0
 20 23  1  0
 20 22  1  6
 20 21  1  0
 21 59  1  0
 21 60  1  0
 21 58  1  0
 22 62  1  0
 22 61  1  0
 22 63  1  0
 23 24  2  0
 23 25  1  0
 25 65  1  0
 25 26  1  0
 25 64  1  0
 26 67  1  0
 26 66  1  0
 26 27  1  0
 27 28  1  1
 28 68  1  0
 28 70  1  0
 28 69  1  0
 30 31  1  6
 30 32  1  0
 31 71  1  0
 31 72  1  0
 31 73  1  0
 32 75  1  0
 32 74  1  0
 32 33  1  0
 33 34  1  0
 33 77  1  0
 33 76  1  0
 34 36  1  0
 34 35  2  0
 36 39  1  0
 36 38  1  6
 36 37  1  0
 37 79  1  0
 37 80  1  0
 37 78  1  0
 38 81  1  0
 38 82  1  0
 38 83  1  0
M  END
>  <id>  (491) 
595

>  <scaffolds>  (491) 
['C1CCCCC1', 'O=C1CCC2C(CCC2C2CCC3(CCCC4OCC(=O)CCC43)O2)OC1']

>  <name>  (491) 
Yardenone

>  <formula>  (491) 
C30H48O5

>  <SMILES>  (491) 
[H][C@]45CC[C@H](C)[C@@]3(CC[C@@]([H])([C@@]2(C)CC[C@]1([H])OC(C)(C)C(=O)CC[C@]12C)O3)[C@]4(C)CCC(=O)C(C)(C)O5

>  <ChEMBL_id>  (491) 


>  <ZINC_id>  (491) 


>  <PubChem_id>  (491) 


>  <DrugBank_id>  (491) 


>  <CAS_no>  (491) 
205750-25-0

>  <references>  (491) 
[{'journal': {'name': 'Journal of Natural Products', 'id': 5}, 'title': 'Sodwanone and Yardenone Triterpenes from a South African Species of the Marine Sponge Axinella Inhibit Hypoxia-Inducible Factor-1 (HIF-1) Activation in Both Breast and Prostate Tumor Cells', 'year': 2006, 'start_page': 1715, 'volume': 69, 'issue': None, 'doi': '10.1021/np060278q', 'isbn': '', 'despositor': {'code': 'NFA', 'first_name': 'Ngonidzashe', 'last_name': 'Faya', 'id': 21}, 'refauthors_set': [{'author': {'first_name': 'Jingqiu', 'initials': 'J', 'last_name': 'Dai', 'id': 782}, 'first_author': True, 'id': 1112}, {'author': {'first_name': 'James', 'initials': 'JA', 'last_name': 'Fishback', 'id': 783}, 'first_author': False, 'id': 1113}, {'author': {'first_name': 'Yu-Dong', 'initials': 'Y', 'last_name': 'Zhou', 'id': 784}, 'first_author': False, 'id': 1114}, {'author': {'first_name': 'Dale', 'initials': 'DG', 'last_name': 'Nagle', 'id': 785}, 'first_author': False, 'id': 1115}], 'id': 367}]

>  <classifications>  (491) 
[{'classification': 'Terpenoid', 'id': 839}, {'classification': 'Triterpene', 'id': 842}, {'classification': 'Yardenone', 'id': 851}, {'classification': 'Phenol lipids (Classyfire)', 'id': 951}]

>  <molecular_mass>  (491) 
488.7

$$$$
SANC00596_minRM1.pdb
     RDKit          3D

 91 97  0  0  1  0  0  0  0  0999 V2000
   -0.6490   -0.4920    0.4560 H   0  0  0  0  0  0  0  0  0  0  0  0
   -4.9900   -0.2500   -1.4380 H   0  0  0  0  0  0  0  0  0  0  0  0
    2.1320   -2.0490   -1.8790 H   0  0  0  0  0  0  0  0  0  0  0  0
    2.9960    2.3360   -3.3910 C   0  0  0  0  0  0  0  0  0  0  0  0
   -6.5320   -1.8960    0.0290 C   0  0  0  0  0  0  0  0  0  0  0  0
   -7.4840    0.7660   -0.8830 C   0  0  0  0  0  0  0  0  0  0  0  0
   -7.9240    0.4750    1.4930 C   0  0  0  0  0  0  0  0  0  0  0  0
    4.5860   -0.7600   -1.5700 C   0  0  0  0  0  0  0  0  0  0  0  0
   -3.1700   -1.3200    1.3230 C   0  0  0  0  0  0  0  0  0  0  0  0
   -2.5850   -0.1610   -2.3690 C   0  0  0  0  0  0  0  0  0  0  0  0
    1.4080    2.5090   -1.5550 O   0  0  0  0  0  0  0  0  0  0  0  0
    5.4740    1.3240    1.1130 O   0  0  0  0  0  0  0  0  0  0  0  0
   -4.6600    2.1340   -0.9120 O   0  0  0  0  0  0  0  0  0  0  0  0
   -2.0950   -3.0490   -0.7830 C   0  0  0  0  0  0  0  0  0  0  0  0
    2.2980    4.9180    2.4800 C   0  0  0  0  0  0  0  0  0  0  0  0
    3.1380    4.8680    1.3760 C   0  0  0  0  0  0  0  0  0  0  0  0
    2.1120    3.7900    3.2660 C   0  0  0  0  0  0  0  0  0  0  0  0
    3.7820    3.6840    1.0440 C   0  0  0  0  0  0  0  0  0  0  0  0
    2.7520    2.5990    2.9410 C   0  0  0  0  0  0  0  0  0  0  0  0
   -3.4650   -2.4720   -0.8430 C   0  0  0  0  0  0  0  0  0  0  0  0
    4.1800   -3.0200   -0.5140 C   0  0  0  0  0  0  0  0  0  0  0  0
    0.2910   -3.0760   -0.3540 C   0  0  0  0  0  0  0  0  0  0  0  0
   -2.6000    1.1430   -0.2510 C   0  0  0  0  0  0  0  0  0  0  0  0
    0.0800   -0.3230   -1.5980 C   0  0  0  0  0  0  0  0  0  0  0  0
    3.5170    0.1490    1.3680 N   0  0  0  0  0  0  0  0  0  0  0  0
    4.2270   -3.3990    0.8500 O   0  0  0  0  0  0  0  0  0  0  0  0
    2.2320    0.5000   -2.1300 O   0  0  0  0  0  0  0  0  0  0  0  0
    1.2310   -1.5590    1.3850 O   0  0  0  0  0  0  0  0  0  0  0  0
    2.1260    1.8450   -2.2790 C   0  0  0  0  0  0  0  0  0  0  0  0
    4.2870    1.3120    1.4180 C   0  0  0  0  0  0  0  0  0  0  0  0
   -0.9830   -2.3290   -0.5940 C   0  0  0  0  0  0  0  0  0  0  0  0
    3.5740    2.5480    1.8240 C   0  0  0  0  0  0  0  0  0  0  0  0
   -4.1310    1.1990   -0.0200 C   0  0  2  0  0  0  0  0  0  0  0  0
   -5.9170   -0.5740    0.5030 C   0  0  2  0  0  0  0  0  0  0  0  0
    1.5220   -0.1420   -1.0830 C   0  0  2  0  0  0  0  0  0  0  0  0
    4.0750   -1.0940    0.8860 C   0  0  1  0  0  0  0  0  0  0  0  0
    3.6030   -2.3870    1.6090 C   0  0  1  0  0  0  0  0  0  0  0  0
    2.1130   -2.6570    1.4610 C   0  0  2  0  0  0  0  0  0  0  0  0
   -6.8640    0.5840    0.4540 N   0  0  0  0  0  0  0  0  0  0  0  0
   -0.9430   -0.8310   -0.5690 C   0  0  2  0  0  0  0  0  0  0  0  0
    3.7350   -1.5220   -0.5720 C   0  0  1  0  0  0  0  0  0  0  0  0
   -3.4440   -1.1060   -0.1670 C   0  0  2  0  0  0  0  0  0  0  0  0
   -2.3440   -0.2500   -0.8550 C   0  0  2  0  0  0  0  0  0  0  0  0
   -4.6890   -0.2180   -0.3540 C   0  0  2  0  0  0  0  0  0  0  0  0
    2.2300   -1.5020   -0.9010 C   0  0  1  0  0  0  0  0  0  0  0  0
    1.4460   -2.2560    0.1650 C   0  0  1  0  0  0  0  0  0  0  0  0
    2.7220    3.3570   -3.6900 H   0  0  0  0  0  0  0  0  0  0  0  0
    4.0510    2.3530   -3.0750 H   0  0  0  0  0  0  0  0  0  0  0  0
    2.9330    1.6970   -4.2830 H   0  0  0  0  0  0  0  0  0  0  0  0
   -7.4220   -2.1840    0.6070 H   0  0  0  0  0  0  0  0  0  0  0  0
   -6.8350   -1.8820   -1.0300 H   0  0  0  0  0  0  0  0  0  0  0  0
   -5.8200   -2.7330    0.1330 H   0  0  0  0  0  0  0  0  0  0  0  0
   -7.9120    1.7830   -0.9390 H   0  0  0  0  0  0  0  0  0  0  0  0
   -6.7340    0.6960   -1.6940 H   0  0  0  0  0  0  0  0  0  0  0  0
   -8.2970    0.0620   -1.1460 H   0  0  0  0  0  0  0  0  0  0  0  0
   -8.6530   -0.3510    1.3610 H   0  0  0  0  0  0  0  0  0  0  0  0
   -7.4840    0.3570    2.5010 H   0  0  0  0  0  0  0  0  0  0  0  0
   -8.5100    1.4120    1.5150 H   0  0  0  0  0  0  0  0  0  0  0  0
    4.2740   -0.9300   -2.6120 H   0  0  0  0  0  0  0  0  0  0  0  0
    4.5670    0.3240   -1.3890 H   0  0  0  0  0  0  0  0  0  0  0  0
    5.6520   -1.0380   -1.5180 H   0  0  0  0  0  0  0  0  0  0  0  0
   -2.2600   -1.9030    1.5280 H   0  0  0  0  0  0  0  0  0  0  0  0
   -3.0630   -0.3910    1.8980 H   0  0  0  0  0  0  0  0  0  0  0  0
   -3.9880   -1.8840    1.8080 H   0  0  0  0  0  0  0  0  0  0  0  0
   -2.0110    0.6640   -2.8250 H   0  0  0  0  0  0  0  0  0  0  0  0
   -2.2890   -1.0770   -2.9070 H   0  0  0  0  0  0  0  0  0  0  0  0
   -3.6380    0.0370   -2.6260 H   0  0  0  0  0  0  0  0  0  0  0  0
   -5.3960    2.5670   -0.4720 H   0  0  0  0  0  0  0  0  0  0  0  0
   -2.0460   -4.1420   -0.8630 H   0  0  0  0  0  0  0  0  0  0  0  0
    1.7840    5.8490    2.7340 H   0  0  0  0  0  0  0  0  0  0  0  0
    3.2890    5.7580    0.7620 H   0  0  0  0  0  0  0  0  0  0  0  0
    1.4610    3.8380    4.1430 H   0  0  0  0  0  0  0  0  0  0  0  0
    4.4520    3.6410    0.1790 H   0  0  0  0  0  0  0  0  0  0  0  0
    2.6220    1.7210    3.5820 H   0  0  0  0  0  0  0  0  0  0  0  0
   -3.8380   -2.4380   -1.8870 H   0  0  0  0  0  0  0  0  0  0  0  0
   -4.1930   -3.1540   -0.3300 H   0  0  0  0  0  0  0  0  0  0  0  0
    5.1920   -3.2030   -0.9240 H   0  0  0  0  0  0  0  0  0  0  0  0
    3.5030   -3.7150   -1.0520 H   0  0  0  0  0  0  0  0  0  0  0  0
    0.0890   -3.9060    0.3590 H   0  0  0  0  0  0  0  0  0  0  0  0
    0.6010   -3.6010   -1.2800 H   0  0  0  0  0  0  0  0  0  0  0  0
   -2.2360    1.9740   -0.8980 H   0  0  0  0  0  0  0  0  0  0  0  0
   -2.0570    1.2990    0.7000 H   0  0  0  0  0  0  0  0  0  0  0  0
   -0.2720    0.6600   -1.9870 H   0  0  0  0  0  0  0  0  0  0  0  0
    0.0910   -0.9780   -2.4940 H   0  0  0  0  0  0  0  0  0  0  0  0
    2.5160    0.1970    1.5510 H   0  0  0  0  0  0  0  0  0  0  0  0
   -4.3590    1.4750    1.0430 H   0  0  0  0  0  0  0  0  0  0  0  0
   -5.6100   -0.6880    1.5800 H   0  0  0  0  0  0  0  0  0  0  0  0
    1.5220    0.4610   -0.1410 H   0  0  0  0  0  0  0  0  0  0  0  0
    5.1990   -1.0420    0.9920 H   0  0  0  0  0  0  0  0  0  0  0  0
    3.9520   -2.4790    2.6610 H   0  0  0  0  0  0  0  0  0  0  0  0
    1.7590   -3.5280    2.0490 H   0  0  0  0  0  0  0  0  0  0  0  0
  4 49  1  0
  4 47  1  0
  4 48  1  0
  4 29  1  0
  5 51  1  0
  5 52  1  0
  5 34  1  0
  5 50  1  0
  6 54  1  0
  6 55  1  0
  6 53  1  0
  6 39  1  0
  7 39  1  0
  7 56  1  0
  7 58  1  0
  7 57  1  0
  8 59  1  0
  8 61  1  0
  8 60  1  0
  9 62  1  0
  9 64  1  0
  9 63  1  0
 10 66  1  0
 10 65  1  0
 10 67  1  0
 11 29  2  0
 12 30  2  0
 13 68  1  0
 13 33  1  0
 14 69  1  0
 14 20  1  0
 14 31  2  0
 15 16  2  0
 15 70  1  0
 15 17  1  0
 16 71  1  0
 16 18  1  0
 17 19  2  0
 17 72  1  0
 18 73  1  0
 18 32  2  0
 19 32  1  0
 19 74  1  0
 20 75  1  0
 20 76  1  0
 20 42  1  0
 21 78  1  0
 21 77  1  0
 21 41  1  0
 21 26  1  0
 22 80  1  0
 22 31  1  0
 22 46  1  0
 22 79  1  0
 23 81  1  0
 23 43  1  0
 23 33  1  0
 23 82  1  0
 24 84  1  0
 24 83  1  0
 24 35  1  0
 24 40  1  0
 25 36  1  0
 25 30  1  0
 25 85  1  0
 26 37  1  0
 27 29  1  0
 27 35  1  0
 28 38  1  0
 30 32  1  0
 31 40  1  0
 33 44  1  0
 33 86  1  1
 34 44  1  0
 34 39  1  0
 34 87  1  1
 35 45  1  0
 35 88  1  1
 36 41  1  0
 36 89  1  6
 36 37  1  0
 37 38  1  0
 37 90  1  1
 38 46  1  0
 38 91  1  1
 40  1  1  1
 40 43  1  0
 41  8  1  6
 41 45  1  0
 42  9  1  1
 42 43  1  0
 42 44  1  0
 43 10  1  6
 44  2  1  6
 45  3  1  6
 45 46  1  0
 46 28  1  1
M  END
>  <id>  (492) 
596

>  <scaffolds>  (492) 
['c1ccccc1', 'C1=CCCCC1', 'C1CCCCC1', 'O=C(NC1C2COC1C1OC13CC1=CCC4CCCC4C1CCC23)c1ccccc1']

>  <name>  (492) 
O2-Natafuranamine

>  <formula>  (492) 
C35H48N2O6

>  <SMILES>  (492) 
[H][C@@]56C[C@H](OC(C)=O)[C@@]4([H])[C@]1(C)CO[C@H](C1NC(=O)c2ccccc2)[C@H]3O[C@]34CC5=CC[C@@]7(C)[C@@]6(C)C[C@@H](O)[C@]7([H])[C@H](C)N(C)C

>  <ChEMBL_id>  (492) 


>  <ZINC_id>  (492) 


>  <PubChem_id>  (492) 


>  <DrugBank_id>  (492) 


>  <CAS_no>  (492) 
1254950-49-6

>  <references>  (492) 
[{'journal': {'name': 'Journal of Natural Products', 'id': 5}, 'title': 'Triterpenoidal Alkaloids from Buxus natalensis and Their Acetylcholinesterase Inhibitory Activity', 'year': 2010, 'start_page': 1858, 'volume': 73, 'issue': None, 'doi': '10.1021/np100494u', 'isbn': '', 'despositor': {'code': 'NFA', 'first_name': 'Ngonidzashe', 'last_name': 'Faya', 'id': 21}, 'refauthors_set': [{'author': {'first_name': 'Wadim', 'initials': 'WL', 'last_name': 'Matochko', 'id': 786}, 'first_author': True, 'id': 1116}, {'author': {'first_name': 'Abin', 'initials': 'A', 'last_name': 'James', 'id': 787}, 'first_author': False, 'id': 1117}, {'author': {'first_name': 'Cheuk', 'initials': 'CW', 'last_name': 'Lam', 'id': 788}, 'first_author': False, 'id': 1118}, {'author': {'first_name': 'Daniel', 'initials': 'DJ', 'last_name': 'Kozera', 'id': 789}, 'first_author': False, 'id': 1119}, {'author': {'first_name': 'Robert', 'initials': 'RM', 'last_name': 'Gengan', 'id': 791}, 'first_author': False, 'id': 1120}, {'author': {'first_name': 'Athar', 'initials': 'A', 'last_name': 'Ata', 'id': 790}, 'first_author': None, 'id': 1389}], 'id': 368}]

>  <classifications>  (492) 
[{'classification': 'Alkaloid', 'id': 738}, {'classification': 'Terpenoid', 'id': 839}, {'classification': 'Triterpene', 'id': 842}, {'classification': 'Phenol lipids (Classyfire)', 'id': 951}]

>  <molecular_mass>  (492) 
592.76

$$$$
SANC00597_minRM1.pdb
     RDKit          3D

 85 90  0  0  1  0  0  0  0  0999 V2000
   -0.6190    0.4420   -0.3320 H   0  0  0  0  0  0  0  0  0  0  0  0
   -1.0280    0.8330    0.6390 C   0  0  2  0  0  0  0  0  0  0  0  0
    0.0070    0.5920    1.7410 C   0  0  0  0  0  0  0  0  0  0  0  0
    1.4490    0.5610    1.1910 C   0  0  2  0  0  0  0  0  0  0  0  0
    1.4650   -0.0720    0.2600 H   0  0  0  0  0  0  0  0  0  0  0  0
    2.3190    0.0240    2.1490 O   0  0  0  0  0  0  0  0  0  0  0  0
    1.9780    1.9730    0.9560 C   0  0  1  0  0  0  0  0  0  0  0  0
    2.0550    2.4760    1.9580 H   0  0  0  0  0  0  0  0  0  0  0  0
    3.3220    2.1360    0.2210 C   0  0  2  0  0  0  0  0  0  0  0  0
    4.5370    1.8300    1.0640 C   0  0  0  0  0  0  0  0  0  0  0  0
    3.2430    3.6500   -0.1260 C   0  0  0  0  0  0  0  0  0  0  0  0
    1.8780    3.9970   -0.1890 O   0  0  0  0  0  0  0  0  0  0  0  0
    1.1000    2.8230    0.0130 C   0  0  1  0  0  0  0  0  0  0  0  0
    0.9910    2.1530   -1.3260 C   0  0  0  0  0  0  0  0  0  0  0  0
    2.0330    1.5040   -1.8420 C   0  0  0  0  0  0  0  0  0  0  0  0
    3.3510    1.3680   -1.1240 C   0  0  2  0  0  0  0  0  0  0  0  0
    4.1480    1.8220   -1.7810 H   0  0  0  0  0  0  0  0  0  0  0  0
    3.6420   -0.0590   -0.9560 N   0  0  0  0  0  0  0  0  0  0  0  0
    4.9240   -0.5860   -1.0490 C   0  0  0  0  0  0  0  0  0  0  0  0
    5.8740    0.1260   -1.3770 O   0  0  0  0  0  0  0  0  0  0  0  0
    5.0890   -2.0370   -0.7650 C   0  0  0  0  0  0  0  0  0  0  0  0
    4.0360   -2.8440   -0.3380 C   0  0  0  0  0  0  0  0  0  0  0  0
    4.2480   -4.1920   -0.0750 C   0  0  0  0  0  0  0  0  0  0  0  0
    5.5150   -4.7400   -0.2310 C   0  0  0  0  0  0  0  0  0  0  0  0
    6.5660   -3.9400   -0.6570 C   0  0  0  0  0  0  0  0  0  0  0  0
    6.3580   -2.5900   -0.9240 C   0  0  0  0  0  0  0  0  0  0  0  0
   -0.2340    3.2820    0.5960 C   0  0  0  0  0  0  0  0  0  0  0  0
   -1.3360    2.2860    0.4380 C   0  0  0  0  0  0  0  0  0  0  0  0
   -2.5620    2.7260    0.1320 C   0  0  0  0  0  0  0  0  0  0  0  0
   -3.7730    1.8700   -0.0140 C   0  0  0  0  0  0  0  0  0  0  0  0
   -3.3880    0.4000   -0.1610 C   0  0  1  0  0  0  0  0  0  0  0  0
   -2.8290    0.1910   -1.5670 C   0  0  0  0  0  0  0  0  0  0  0  0
   -2.3380    0.0860    0.9400 C   0  0  2  0  0  0  0  0  0  0  0  0
   -2.8460    0.4840    2.3280 C   0  0  0  0  0  0  0  0  0  0  0  0
   -2.2460   -1.4370    0.8690 C   0  0  0  0  0  0  0  0  0  0  0  0
   -3.7000   -1.8850    0.5720 C   0  0  1  0  0  0  0  0  0  0  0  0
   -3.6910   -2.6770   -0.2290 H   0  0  0  0  0  0  0  0  0  0  0  0
   -4.3100   -2.3520    1.7390 O   0  0  0  0  0  0  0  0  0  0  0  0
   -4.5060   -0.6300    0.1300 C   0  0  2  0  0  0  0  0  0  0  0  0
   -5.1250   -0.2540    0.9890 H   0  0  0  0  0  0  0  0  0  0  0  0
   -5.4870   -0.9260   -1.0340 C   0  0  2  0  0  0  0  0  0  0  0  0
   -4.9450   -1.4370   -1.8810 H   0  0  0  0  0  0  0  0  0  0  0  0
   -6.0430    0.3940   -1.5740 C   0  0  0  0  0  0  0  0  0  0  0  0
   -6.5880   -1.7880   -0.4800 N   0  0  0  0  0  0  0  0  0  0  0  0
   -7.8790   -1.6740   -1.2050 C   0  0  0  0  0  0  0  0  0  0  0  0
   -6.1990   -3.2220   -0.4040 C   0  0  0  0  0  0  0  0  0  0  0  0
   -0.0910    1.3320    2.5620 H   0  0  0  0  0  0  0  0  0  0  0  0
   -0.1920   -0.3800    2.2460 H   0  0  0  0  0  0  0  0  0  0  0  0
    2.0110   -0.8590    2.3790 H   0  0  0  0  0  0  0  0  0  0  0  0
    4.5790    0.7800    1.3870 H   0  0  0  0  0  0  0  0  0  0  0  0
    5.4710    2.0330    0.5200 H   0  0  0  0  0  0  0  0  0  0  0  0
    4.5600    2.4250    1.9920 H   0  0  0  0  0  0  0  0  0  0  0  0
    3.7100    4.2920    0.6490 H   0  0  0  0  0  0  0  0  0  0  0  0
    3.7220    3.9280   -1.0860 H   0  0  0  0  0  0  0  0  0  0  0  0
    0.0560    2.2860   -1.8790 H   0  0  0  0  0  0  0  0  0  0  0  0
    1.9800    1.0310   -2.8230 H   0  0  0  0  0  0  0  0  0  0  0  0
    2.8730   -0.6380   -0.6230 H   0  0  0  0  0  0  0  0  0  0  0  0
    3.0280   -2.4350   -0.2010 H   0  0  0  0  0  0  0  0  0  0  0  0
    3.4160   -4.8200    0.2570 H   0  0  0  0  0  0  0  0  0  0  0  0
    5.6820   -5.8030   -0.0180 H   0  0  0  0  0  0  0  0  0  0  0  0
    7.5650   -4.3690   -0.7840 H   0  0  0  0  0  0  0  0  0  0  0  0
    7.1970   -1.9710   -1.2620 H   0  0  0  0  0  0  0  0  0  0  0  0
   -0.1180    3.5400    1.6720 H   0  0  0  0  0  0  0  0  0  0  0  0
   -0.5160    4.2540    0.1240 H   0  0  0  0  0  0  0  0  0  0  0  0
   -2.7530    3.7960   -0.0210 H   0  0  0  0  0  0  0  0  0  0  0  0
   -4.4530    2.0380    0.8510 H   0  0  0  0  0  0  0  0  0  0  0  0
   -4.3740    2.2210   -0.8850 H   0  0  0  0  0  0  0  0  0  0  0  0
   -1.9330    0.7960   -1.7710 H   0  0  0  0  0  0  0  0  0  0  0  0
   -2.5520   -0.8510   -1.7790 H   0  0  0  0  0  0  0  0  0  0  0  0
   -3.5510    0.4860   -2.3460 H   0  0  0  0  0  0  0  0  0  0  0  0
   -3.8920    0.1870    2.4990 H   0  0  0  0  0  0  0  0  0  0  0  0
   -2.2780    0.0030    3.1420 H   0  0  0  0  0  0  0  0  0  0  0  0
   -2.7830    1.5650    2.5220 H   0  0  0  0  0  0  0  0  0  0  0  0
   -1.5500   -1.7770    0.0750 H   0  0  0  0  0  0  0  0  0  0  0  0
   -1.8380   -1.9020    1.7880 H   0  0  0  0  0  0  0  0  0  0  0  0
   -3.9030   -3.1950    1.9610 H   0  0  0  0  0  0  0  0  0  0  0  0
   -5.2420    1.0680   -1.9230 H   0  0  0  0  0  0  0  0  0  0  0  0
   -6.6910    0.2630   -2.4540 H   0  0  0  0  0  0  0  0  0  0  0  0
   -6.6170    0.9470   -0.8200 H   0  0  0  0  0  0  0  0  0  0  0  0
   -7.8420   -1.8730   -2.2940 H   0  0  0  0  0  0  0  0  0  0  0  0
   -8.6160   -2.3800   -0.7770 H   0  0  0  0  0  0  0  0  0  0  0  0
   -8.3310   -0.6760   -1.0580 H   0  0  0  0  0  0  0  0  0  0  0  0
   -6.3060   -3.5380    0.6500 H   0  0  0  0  0  0  0  0  0  0  0  0
   -6.8220   -3.9180   -1.0030 H   0  0  0  0  0  0  0  0  0  0  0  0
   -5.1610   -3.4470   -0.7100 H   0  0  0  0  0  0  0  0  0  0  0  0
  2  1  1  6
  2 28  1  0
  2 33  1  0
  2  3  1  0
  3  4  1  0
  3 48  1  0
  3 47  1  0
  4  5  1  6
  4  7  1  0
  4  6  1  0
  6 49  1  0
  7 13  1  0
  7  9  1  0
  7  8  1  1
  9 16  1  0
  9 11  1  0
  9 10  1  1
 10 51  1  0
 10 50  1  0
 10 52  1  0
 11 54  1  0
 11 12  1  0
 11 53  1  0
 13 12  1  6
 13 14  1  0
 13 27  1  0
 14 55  1  0
 14 15  2  0
 15 56  1  0
 15 16  1  0
 16 17  1  6
 16 18  1  0
 18 19  1  0
 18 57  1  0
 19 20  2  0
 19 21  1  0
 21 26  2  0
 21 22  1  0
 22 58  1  0
 22 23  2  0
 23 24  1  0
 23 59  1  0
 24 25  2  0
 24 60  1  0
 25 26  1  0
 25 61  1  0
 26 62  1  0
 27 64  1  0
 27 28  1  0
 27 63  1  0
 28 29  2  0
 29 65  1  0
 29 30  1  0
 30 67  1  0
 30 31  1  0
 30 66  1  0
 31 32  1  6
 31 39  1  0
 31 33  1  0
 32 70  1  0
 32 69  1  0
 32 68  1  0
 33 35  1  0
 33 34  1  1
 34 71  1  0
 34 73  1  0
 34 72  1  0
 35 74  1  0
 35 36  1  0
 35 75  1  0
 36 37  1  6
 36 39  1  0
 36 38  1  0
 38 76  1  0
 39 41  1  0
 39 40  1  1
 41 42  1  6
 41 43  1  0
 41 44  1  0
 43 78  1  0
 43 77  1  0
 43 79  1  0
 44 45  1  0
 44 46  1  0
 45 80  1  0
 45 82  1  0
 45 81  1  0
 46 84  1  0
 46 85  1  0
 46 83  1  0
M  END
>  <id>  (493) 
597

>  <scaffolds>  (493) 
['c1ccccc1', 'C1=CCCCC1', 'O=C(NC1C=CC23CC4=CCC5CCCC5C4CCC2C1CO3)c1ccccc1', 'O=C(NC1C=CC2CC3=CCC4CCCC4C3CCC2C1)c1ccccc1']

>  <name>  (493) 
O10-Natafuranamine

>  <formula>  (493) 
C33H46N2O4

>  <SMILES>  (493) 
[H][C@@]45C[C@H](O)[C@@]1([H])[C@]2(C)CO[C@]1(C=C[C@@H]2NC(=O)c3ccccc3)CC4=CC[C@@]6(C)[C@@]5(C)C[C@@H](O)[C@]6([H])[C@H](C)N(C)C

>  <ChEMBL_id>  (493) 


>  <ZINC_id>  (493) 


>  <PubChem_id>  (493) 


>  <DrugBank_id>  (493) 


>  <CAS_no>  (493) 
1254950-50-9

>  <references>  (493) 
[{'journal': {'name': 'Journal of Natural Products', 'id': 5}, 'title': 'Triterpenoidal Alkaloids from Buxus natalensis and Their Acetylcholinesterase Inhibitory Activity', 'year': 2010, 'start_page': 1858, 'volume': 73, 'issue': None, 'doi': '10.1021/np100494u', 'isbn': '', 'despositor': {'code': 'NFA', 'first_name': 'Ngonidzashe', 'last_name': 'Faya', 'id': 21}, 'refauthors_set': [{'author': {'first_name': 'Wadim', 'initials': 'WL', 'last_name': 'Matochko', 'id': 786}, 'first_author': True, 'id': 1116}, {'author': {'first_name': 'Abin', 'initials': 'A', 'last_name': 'James', 'id': 787}, 'first_author': False, 'id': 1117}, {'author': {'first_name': 'Cheuk', 'initials': 'CW', 'last_name': 'Lam', 'id': 788}, 'first_author': False, 'id': 1118}, {'author': {'first_name': 'Daniel', 'initials': 'DJ', 'last_name': 'Kozera', 'id': 789}, 'first_author': False, 'id': 1119}, {'author': {'first_name': 'Robert', 'initials': 'RM', 'last_name': 'Gengan', 'id': 791}, 'first_author': False, 'id': 1120}, {'author': {'first_name': 'Athar', 'initials': 'A', 'last_name': 'Ata', 'id': 790}, 'first_author': None, 'id': 1389}], 'id': 368}]

>  <classifications>  (493) 
[{'classification': 'Alkaloid', 'id': 738}, {'classification': 'Terpenoid', 'id': 839}, {'classification': 'Triterpene', 'id': 842}, {'classification': 'Phenol lipids (Classyfire)', 'id': 951}]

>  <molecular_mass>  (493) 
534.73

$$$$
SANC00598_minRM1.pdb
     RDKit          3D

 80 84  0  0  1  0  0  0  0  0999 V2000
   -1.8870   -0.8180   -1.2230 H   0  0  0  0  0  0  0  0  0  0  0  0
   -2.2360   -0.9480   -0.1620 C   0  0  2  0  0  0  0  0  0  0  0  0
   -1.6020   -2.2090    0.3200 C   0  0  0  0  0  0  0  0  0  0  0  0
   -0.4170   -2.2520    0.9210 C   0  0  0  0  0  0  0  0  0  0  0  0
    0.4010   -1.0550    1.2620 C   0  0  1  0  0  0  0  0  0  0  0  0
    0.8120   -1.2100    2.3000 H   0  0  0  0  0  0  0  0  0  0  0  0
    1.5550   -0.9100    0.2690 C   0  0  2  0  0  0  0  0  0  0  0  0
    0.9890   -0.7260   -1.1380 C   0  0  0  0  0  0  0  0  0  0  0  0
    2.5400   -2.0810    0.2320 C   0  0  0  0  0  0  0  0  0  0  0  0
    3.8720   -1.4460   -0.2390 C   0  0  1  0  0  0  0  0  0  0  0  0
    4.7050   -1.7250    0.4600 H   0  0  0  0  0  0  0  0  0  0  0  0
    4.1190   -1.9280   -1.5250 O   0  0  0  0  0  0  0  0  0  0  0  0
    3.6530    0.0980   -0.2610 C   0  0  2  0  0  0  0  0  0  0  0  0
    3.3290    0.4120   -1.2900 H   0  0  0  0  0  0  0  0  0  0  0  0
    4.9360    0.8700    0.0920 C   0  0  2  0  0  0  0  0  0  0  0  0
    5.2460    0.6370    1.1470 H   0  0  0  0  0  0  0  0  0  0  0  0
    4.7090    2.3790   -0.0250 C   0  0  0  0  0  0  0  0  0  0  0  0
    6.0310    0.3550   -0.7900 N   0  0  0  0  0  0  0  0  0  0  0  0
    5.8950    0.7910   -2.2000 C   0  0  0  0  0  0  0  0  0  0  0  0
    7.3760    0.7140   -0.2760 C   0  0  0  0  0  0  0  0  0  0  0  0
    2.4610    0.2710    0.7010 C   0  0  2  0  0  0  0  0  0  0  0  0
    2.9330    0.1270    2.1500 C   0  0  0  0  0  0  0  0  0  0  0  0
    1.6540    1.5550    0.5660 C   0  0  0  0  0  0  0  0  0  0  0  0
    0.4000    1.4910    1.4370 C   0  0  0  0  0  0  0  0  0  0  0  0
   -0.4100    0.2200    1.3110 C   0  0  2  0  0  0  0  0  0  0  0  0
   -1.6810    0.1570    2.1420 C   0  0  0  0  0  0  0  0  0  0  0  0
   -1.7770    0.2470    0.6350 C   0  0  2  0  0  0  0  0  0  0  0  0
   -2.2780    1.5270    0.0270 C   0  0  0  0  0  0  0  0  0  0  0  0
   -3.8140    1.5050    0.0510 C   0  0  1  0  0  0  0  0  0  0  0  0
   -4.1580    1.4700    1.1220 H   0  0  0  0  0  0  0  0  0  0  0  0
   -4.3190    2.6300   -0.6120 O   0  0  0  0  0  0  0  0  0  0  0  0
   -4.3420    0.2930   -0.7580 C   0  0  2  0  0  0  0  0  0  0  0  0
   -3.9220    0.3970   -1.8000 H   0  0  0  0  0  0  0  0  0  0  0  0
   -5.8290    0.1980   -0.8520 N   0  0  0  0  0  0  0  0  0  0  0  0
   -6.5800    0.8390    0.2540 C   0  0  0  0  0  0  0  0  0  0  0  0
   -6.3220    0.7360   -2.1500 C   0  0  0  0  0  0  0  0  0  0  0  0
   -3.7820   -1.0380   -0.1790 C   0  0  1  0  0  0  0  0  0  0  0  0
   -4.1860   -2.1810   -1.1170 C   0  0  0  0  0  0  0  0  0  0  0  0
   -4.3250   -1.3420    1.2100 C   0  0  0  0  0  0  0  0  0  0  0  0
   -2.1450   -3.1360    0.0960 H   0  0  0  0  0  0  0  0  0  0  0  0
    0.0320   -3.2130    1.1980 H   0  0  0  0  0  0  0  0  0  0  0  0
    0.2850    0.1160   -1.2160 H   0  0  0  0  0  0  0  0  0  0  0  0
    1.7720   -0.5500   -1.8910 H   0  0  0  0  0  0  0  0  0  0  0  0
    0.4410   -1.6190   -1.4750 H   0  0  0  0  0  0  0  0  0  0  0  0
    2.6560   -2.5570    1.2260 H   0  0  0  0  0  0  0  0  0  0  0  0
    2.2040   -2.9100   -0.4230 H   0  0  0  0  0  0  0  0  0  0  0  0
    5.0550   -1.7900   -1.7050 H   0  0  0  0  0  0  0  0  0  0  0  0
    4.3170    2.6870   -1.0050 H   0  0  0  0  0  0  0  0  0  0  0  0
    3.9770    2.7390    0.7180 H   0  0  0  0  0  0  0  0  0  0  0  0
    5.6280    2.9600    0.1440 H   0  0  0  0  0  0  0  0  0  0  0  0
    6.1270    1.8540   -2.4100 H   0  0  0  0  0  0  0  0  0  0  0  0
    6.5750    0.1910   -2.8320 H   0  0  0  0  0  0  0  0  0  0  0  0
    4.8700    0.6110   -2.5750 H   0  0  0  0  0  0  0  0  0  0  0  0
    7.5100    0.3510    0.7580 H   0  0  0  0  0  0  0  0  0  0  0  0
    8.1460    0.2080   -0.8830 H   0  0  0  0  0  0  0  0  0  0  0  0
    7.6340    1.7900   -0.2750 H   0  0  0  0  0  0  0  0  0  0  0  0
    3.3490    1.0650    2.5480 H   0  0  0  0  0  0  0  0  0  0  0  0
    2.1250   -0.1660    2.8420 H   0  0  0  0  0  0  0  0  0  0  0  0
    3.7070   -0.6400    2.2920 H   0  0  0  0  0  0  0  0  0  0  0  0
    2.2670    2.4410    0.8540 H   0  0  0  0  0  0  0  0  0  0  0  0
    1.3890    1.7600   -0.4920 H   0  0  0  0  0  0  0  0  0  0  0  0
    0.6690    1.6240    2.5070 H   0  0  0  0  0  0  0  0  0  0  0  0
   -0.2380    2.3790    1.2200 H   0  0  0  0  0  0  0  0  0  0  0  0
   -1.9420   -0.7680    2.6670 H   0  0  0  0  0  0  0  0  0  0  0  0
   -1.9780    1.0100    2.7620 H   0  0  0  0  0  0  0  0  0  0  0  0
   -1.8870    2.4190    0.5700 H   0  0  0  0  0  0  0  0  0  0  0  0
   -1.8860    1.6530   -1.0060 H   0  0  0  0  0  0  0  0  0  0  0  0
   -4.0750    3.4040   -0.0980 H   0  0  0  0  0  0  0  0  0  0  0  0
   -6.6170    1.9450    0.2530 H   0  0  0  0  0  0  0  0  0  0  0  0
   -7.6290    0.4910    0.2120 H   0  0  0  0  0  0  0  0  0  0  0  0
   -6.2050    0.5410    1.2460 H   0  0  0  0  0  0  0  0  0  0  0  0
   -5.9160    0.1400   -2.9860 H   0  0  0  0  0  0  0  0  0  0  0  0
   -7.4200    0.6390   -2.2090 H   0  0  0  0  0  0  0  0  0  0  0  0
   -6.0820    1.7950   -2.3580 H   0  0  0  0  0  0  0  0  0  0  0  0
   -3.8410   -2.0260   -2.1490 H   0  0  0  0  0  0  0  0  0  0  0  0
   -3.7670   -3.1460   -0.7880 H   0  0  0  0  0  0  0  0  0  0  0  0
   -5.2750   -2.3180   -1.1720 H   0  0  0  0  0  0  0  0  0  0  0  0
   -5.3910   -1.6180    1.1860 H   0  0  0  0  0  0  0  0  0  0  0  0
   -3.8110   -2.1920    1.6830 H   0  0  0  0  0  0  0  0  0  0  0  0
   -4.2300   -0.5020    1.9130 H   0  0  0  0  0  0  0  0  0  0  0  0
  2  1  1  6
  2 37  1  0
  2  3  1  0
  2 27  1  0
  3 40  1  0
  3  4  2  0
  4 41  1  0
  4  5  1  0
  5  7  1  0
  5 25  1  0
  5  6  1  1
  7  8  1  6
  7  9  1  0
  7 21  1  0
  8 43  1  0
  8 44  1  0
  8 42  1  0
  9 46  1  0
  9 10  1  0
  9 45  1  0
 10 12  1  0
 10 13  1  0
 10 11  1  1
 12 47  1  0
 13 14  1  6
 13 15  1  0
 13 21  1  0
 15 18  1  0
 15 17  1  0
 15 16  1  1
 17 48  1  0
 17 50  1  0
 17 49  1  0
 18 19  1  0
 18 20  1  0
 19 52  1  0
 19 53  1  0
 19 51  1  0
 20 55  1  0
 20 56  1  0
 20 54  1  0
 21 23  1  0
 21 22  1  1
 22 59  1  0
 22 57  1  0
 22 58  1  0
 23 61  1  0
 23 60  1  0
 23 24  1  0
 24 63  1  0
 24 62  1  0
 25 24  1  1
 25 27  1  0
 25 26  1  0
 26 64  1  0
 26 65  1  0
 27 26  1  1
 27 28  1  0
 28 67  1  0
 28 29  1  0
 28 66  1  0
 29 32  1  0
 29 31  1  0
 29 30  1  1
 31 68  1  0
 32 33  1  6
 32 34  1  0
 32 37  1  0
 34 36  1  0
 34 35  1  0
 35 70  1  0
 35 69  1  0
 35 71  1  0
 36 72  1  0
 36 74  1  0
 36 73  1  0
 37 38  1  6
 37 39  1  0
 38 75  1  0
 38 77  1  0
 38 76  1  0
 39 78  1  0
 39 79  1  0
 39 80  1  0
M  END
>  <id>  (494) 
598

>  <scaffolds>  (494) 
['C1=CC2CCCCC2CC1', 'C1=CCCCC1', 'C1CCCCC1', 'C1=CCC2CC2C1', 'C1=CC2C3CCCC3CCC23CC32CCCCC12', 'C1=CC2C3CCCC3CCC2C2CCCCC12']

>  <name>  (494) 
Cyclonataminol

>  <formula>  (494) 
C28H48N2O2

>  <SMILES>  (494) 
[H][C@@]35C=C[C@@]2([H])[C@]1(C)C[C@@H](O)[C@]([H])([C@H](C)N(C)C)[C@@]1(C)CC[C@]24C[C@]34C[C@@H](O)[C@H](N(C)C)C5(C)C

>  <ChEMBL_id>  (494) 


>  <ZINC_id>  (494) 


>  <PubChem_id>  (494) 


>  <DrugBank_id>  (494) 


>  <CAS_no>  (494) 
1254950-51-0

>  <references>  (494) 
[{'journal': {'name': 'Journal of Natural Products', 'id': 5}, 'title': 'Triterpenoidal Alkaloids from Buxus natalensis and Their Acetylcholinesterase Inhibitory Activity', 'year': 2010, 'start_page': 1858, 'volume': 73, 'issue': None, 'doi': '10.1021/np100494u', 'isbn': '', 'despositor': {'code': 'NFA', 'first_name': 'Ngonidzashe', 'last_name': 'Faya', 'id': 21}, 'refauthors_set': [{'author': {'first_name': 'Wadim', 'initials': 'WL', 'last_name': 'Matochko', 'id': 786}, 'first_author': True, 'id': 1116}, {'author': {'first_name': 'Abin', 'initials': 'A', 'last_name': 'James', 'id': 787}, 'first_author': False, 'id': 1117}, {'author': {'first_name': 'Cheuk', 'initials': 'CW', 'last_name': 'Lam', 'id': 788}, 'first_author': False, 'id': 1118}, {'author': {'first_name': 'Daniel', 'initials': 'DJ', 'last_name': 'Kozera', 'id': 789}, 'first_author': False, 'id': 1119}, {'author': {'first_name': 'Robert', 'initials': 'RM', 'last_name': 'Gengan', 'id': 791}, 'first_author': False, 'id': 1120}, {'author': {'first_name': 'Athar', 'initials': 'A', 'last_name': 'Ata', 'id': 790}, 'first_author': None, 'id': 1389}], 'id': 368}]

>  <classifications>  (494) 
[{'classification': 'Alkaloid', 'id': 738}, {'classification': 'Terpenoid', 'id': 839}, {'classification': 'Triterpene', 'id': 842}, {'classification': 'Phenol lipids (Classyfire)', 'id': 951}]

>  <molecular_mass>  (494) 
444.69

$$$$
SANC00599_minRM1.pdb
     RDKit          3D

 79 82  0  0  1  0  0  0  0  0999 V2000
   -3.0440   -0.7390   -1.2120 H   0  0  0  0  0  0  0  0  0  0  0  0
   -3.0290   -0.4350   -0.1310 C   0  0  2  0  0  0  0  0  0  0  0  0
   -1.9630   -1.2480    0.6020 C   0  0  0  0  0  0  0  0  0  0  0  0
   -0.6730   -1.3340   -0.2000 C   0  0  0  0  0  0  0  0  0  0  0  0
    0.3180   -0.2690    0.2570 C   0  0  2  0  0  0  0  0  0  0  0  0
    0.3410   -0.2750    1.3810 H   0  0  0  0  0  0  0  0  0  0  0  0
   -0.1030    1.1010   -0.1740 C   0  0  0  0  0  0  0  0  0  0  0  0
    0.7940    2.0040   -0.6200 C   0  0  0  0  0  0  0  0  0  0  0  0
    2.2650    1.7950   -0.7320 C   0  0  0  0  0  0  0  0  0  0  0  0
    2.6800    0.5860    0.0960 C   0  0  2  0  0  0  0  0  0  0  0  0
    2.6060    0.9780    1.5710 C   0  0  0  0  0  0  0  0  0  0  0  0
    4.0560   -0.0310   -0.2300 C   0  0  1  0  0  0  0  0  0  0  0  0
    4.1520   -0.0840   -1.3460 H   0  0  0  0  0  0  0  0  0  0  0  0
    5.2690    0.7110    0.3550 C   0  0  2  0  0  0  0  0  0  0  0  0
    5.0620    0.9330    1.4420 H   0  0  0  0  0  0  0  0  0  0  0  0
    5.4810    2.0450   -0.3670 C   0  0  0  0  0  0  0  0  0  0  0  0
    6.4520   -0.2040    0.3150 N   0  0  0  0  0  0  0  0  0  0  0  0
    6.9950   -0.4000   -1.0490 C   0  0  0  0  0  0  0  0  0  0  0  0
    7.5280    0.2560    1.2270 C   0  0  0  0  0  0  0  0  0  0  0  0
    3.9210   -1.4650    0.3470 C   0  0  2  0  0  0  0  0  0  0  0  0
    4.3320   -1.5160    1.3890 H   0  0  0  0  0  0  0  0  0  0  0  0
    4.5520   -2.3720   -0.5050 O   0  0  0  0  0  0  0  0  0  0  0  0
    2.4090   -1.7990    0.3570 C   0  0  0  0  0  0  0  0  0  0  0  0
    1.7240   -0.5810   -0.2710 C   0  0  1  0  0  0  0  0  0  0  0  0
    1.6740   -0.7940   -1.7890 C   0  0  0  0  0  0  0  0  0  0  0  0
   -1.4800    1.5810   -0.0680 C   0  0  0  0  0  0  0  0  0  0  0  0
   -2.6990    1.0200   -0.1060 C   0  0  0  0  0  0  0  0  0  0  0  0
   -3.8220    2.0030   -0.3150 C   0  0  0  0  0  0  0  0  0  0  0  0
   -5.2090    1.5720    0.1320 C   0  0  0  0  0  0  0  0  0  0  0  0
   -5.4480    0.1230   -0.2820 C   0  0  2  0  0  0  0  0  0  0  0  0
   -5.2100    0.0370   -1.3810 H   0  0  0  0  0  0  0  0  0  0  0  0
   -6.8480   -0.3670   -0.1280 N   0  0  0  0  0  0  0  0  0  0  0  0
   -7.5570    0.1140    1.0770 C   0  0  0  0  0  0  0  0  0  0  0  0
   -7.6580   -0.0470   -1.3340 C   0  0  0  0  0  0  0  0  0  0  0  0
   -4.4240   -0.7720    0.4610 C   0  0  1  0  0  0  0  0  0  0  0  0
   -4.7540   -2.2370    0.1740 C   0  0  0  0  0  0  0  0  0  0  0  0
   -4.4140   -0.5610    1.9710 C   0  0  0  0  0  0  0  0  0  0  0  0
   -1.7770   -0.8340    1.6150 H   0  0  0  0  0  0  0  0  0  0  0  0
   -2.3380   -2.2790    0.7980 H   0  0  0  0  0  0  0  0  0  0  0  0
   -0.2220   -2.3430   -0.0690 H   0  0  0  0  0  0  0  0  0  0  0  0
   -0.8720   -1.2640   -1.2890 H   0  0  0  0  0  0  0  0  0  0  0  0
    0.4710    3.0030   -0.9420 H   0  0  0  0  0  0  0  0  0  0  0  0
    2.5580    1.7050   -1.8010 H   0  0  0  0  0  0  0  0  0  0  0  0
    2.8150    2.7050   -0.3960 H   0  0  0  0  0  0  0  0  0  0  0  0
    1.7120    1.5660    1.8230 H   0  0  0  0  0  0  0  0  0  0  0  0
    2.6230    0.1210    2.2580 H   0  0  0  0  0  0  0  0  0  0  0  0
    3.4590    1.6120    1.8680 H   0  0  0  0  0  0  0  0  0  0  0  0
    5.6370    1.9350   -1.4510 H   0  0  0  0  0  0  0  0  0  0  0  0
    4.6110    2.7110   -0.2470 H   0  0  0  0  0  0  0  0  0  0  0  0
    6.3470    2.6010    0.0250 H   0  0  0  0  0  0  0  0  0  0  0  0
    7.5390    0.4590   -1.4850 H   0  0  0  0  0  0  0  0  0  0  0  0
    7.7040   -1.2460   -1.0350 H   0  0  0  0  0  0  0  0  0  0  0  0
    6.2020   -0.6730   -1.7680 H   0  0  0  0  0  0  0  0  0  0  0  0
    7.1490    0.3550    2.2600 H   0  0  0  0  0  0  0  0  0  0  0  0
    8.3290   -0.5040    1.2670 H   0  0  0  0  0  0  0  0  0  0  0  0
    8.0140    1.2150    0.9660 H   0  0  0  0  0  0  0  0  0  0  0  0
    5.3990   -2.5920   -0.1040 H   0  0  0  0  0  0  0  0  0  0  0  0
    2.1880   -2.7450   -0.1780 H   0  0  0  0  0  0  0  0  0  0  0  0
    2.0540   -1.9980    1.3870 H   0  0  0  0  0  0  0  0  0  0  0  0
    1.2780   -1.7840   -2.0620 H   0  0  0  0  0  0  0  0  0  0  0  0
    1.0430   -0.0630   -2.3110 H   0  0  0  0  0  0  0  0  0  0  0  0
    2.6730   -0.7430   -2.2510 H   0  0  0  0  0  0  0  0  0  0  0  0
   -1.4850    2.6870   -0.0000 H   0  0  0  0  0  0  0  0  0  0  0  0
   -3.5920    2.9840    0.1630 H   0  0  0  0  0  0  0  0  0  0  0  0
   -3.8390    2.2320   -1.4050 H   0  0  0  0  0  0  0  0  0  0  0  0
   -5.3420    1.7320    1.2220 H   0  0  0  0  0  0  0  0  0  0  0  0
   -5.9700    2.2460   -0.3200 H   0  0  0  0  0  0  0  0  0  0  0  0
   -7.8470    1.1820    1.0870 H   0  0  0  0  0  0  0  0  0  0  0  0
   -8.4850   -0.4690    1.1950 H   0  0  0  0  0  0  0  0  0  0  0  0
   -6.9590   -0.0710    1.9860 H   0  0  0  0  0  0  0  0  0  0  0  0
   -7.2500   -0.5640   -2.2200 H   0  0  0  0  0  0  0  0  0  0  0  0
   -8.6890   -0.4240   -1.2160 H   0  0  0  0  0  0  0  0  0  0  0  0
   -7.7430    1.0260   -1.5920 H   0  0  0  0  0  0  0  0  0  0  0  0
   -4.9050   -2.4350   -0.8960 H   0  0  0  0  0  0  0  0  0  0  0  0
   -3.9550   -2.9220    0.5080 H   0  0  0  0  0  0  0  0  0  0  0  0
   -5.6730   -2.5560    0.6870 H   0  0  0  0  0  0  0  0  0  0  0  0
   -5.4260   -0.4730    2.3960 H   0  0  0  0  0  0  0  0  0  0  0  0
   -3.9640   -1.4060    2.5120 H   0  0  0  0  0  0  0  0  0  0  0  0
   -3.8510    0.3320    2.2780 H   0  0  0  0  0  0  0  0  0  0  0  0
  2  1  1  6
  2 27  1  0
  2 35  1  0
  2  3  1  0
  3  4  1  0
  3 39  1  0
  3 38  1  0
  4 41  1  0
  4 40  1  0
  4  5  1  0
  5 24  1  0
  5  7  1  0
  5  6  1  1
  7  8  2  0
  7 26  1  0
  8 42  1  0
  8  9  1  0
  9 43  1  0
  9 44  1  0
  9 10  1  0
 10 24  1  0
 10 12  1  0
 10 11  1  1
 11 45  1  0
 11 47  1  0
 11 46  1  0
 12 13  1  6
 12 20  1  0
 12 14  1  0
 14 16  1  0
 14 17  1  0
 14 15  1  1
 16 48  1  0
 16 49  1  0
 16 50  1  0
 17 18  1  0
 17 19  1  0
 18 53  1  0
 18 51  1  0
 18 52  1  0
 19 56  1  0
 19 55  1  0
 19 54  1  0
 20 22  1  0
 20 23  1  0
 20 21  1  1
 22 57  1  0
 23 24  1  0
 23 58  1  0
 23 59  1  0
 24 25  1  6
 25 61  1  0
 25 62  1  0
 25 60  1  0
 26 27  2  0
 26 63  1  0
 27 28  1  0
 28 65  1  0
 28 29  1  0
 28 64  1  0
 29 67  1  0
 29 30  1  0
 29 66  1  0
 30 31  1  6
 30 32  1  0
 30 35  1  0
 32 34  1  0
 32 33  1  0
 33 68  1  0
 33 69  1  0
 33 70  1  0
 34 71  1  0
 34 73  1  0
 34 72  1  0
 35 36  1  1
 35 37  1  0
 36 74  1  0
 36 75  1  0
 36 76  1  0
 37 79  1  0
 37 77  1  0
 37 78  1  0
M  END
>  <id>  (495) 
599

>  <scaffolds>  (495) 
['C1=CCCCC1', 'C1=C2CCCCC2CCC2C1=CCC1CCCC12', 'C1CCCCC1']

>  <name>  (495) 
Buxaminol A

>  <formula>  (495) 
C28H48N2O

>  <SMILES>  (495) 
[H][C@@]34CC[C@]1([H])C(=CC[C@]2(C)[C@@]([H])([C@H](C)N(C)C)[C@H](O)C[C@@]12C)C=C3CC[C@H](N(C)C)C4(C)C

>  <ChEMBL_id>  (495) 
CHEMBL1651046

>  <ZINC_id>  (495) 


>  <PubChem_id>  (495) 
 53324855

>  <DrugBank_id>  (495) 


>  <CAS_no>  (495) 
58672-76-7

>  <references>  (495) 
[{'journal': {'name': 'Journal of Natural Products', 'id': 5}, 'title': 'Triterpenoidal Alkaloids from Buxus natalensis and Their Acetylcholinesterase Inhibitory Activity', 'year': 2010, 'start_page': 1858, 'volume': 73, 'issue': None, 'doi': '10.1021/np100494u', 'isbn': '', 'despositor': {'code': 'NFA', 'first_name': 'Ngonidzashe', 'last_name': 'Faya', 'id': 21}, 'refauthors_set': [{'author': {'first_name': 'Wadim', 'initials': 'WL', 'last_name': 'Matochko', 'id': 786}, 'first_author': True, 'id': 1116}, {'author': {'first_name': 'Abin', 'initials': 'A', 'last_name': 'James', 'id': 787}, 'first_author': False, 'id': 1117}, {'author': {'first_name': 'Cheuk', 'initials': 'CW', 'last_name': 'Lam', 'id': 788}, 'first_author': False, 'id': 1118}, {'author': {'first_name': 'Daniel', 'initials': 'DJ', 'last_name': 'Kozera', 'id': 789}, 'first_author': False, 'id': 1119}, {'author': {'first_name': 'Robert', 'initials': 'RM', 'last_name': 'Gengan', 'id': 791}, 'first_author': False, 'id': 1120}, {'author': {'first_name': 'Athar', 'initials': 'A', 'last_name': 'Ata', 'id': 790}, 'first_author': None, 'id': 1389}], 'id': 368}]

>  <classifications>  (495) 
[{'classification': 'Alkaloid', 'id': 738}, {'classification': 'Terpenoid', 'id': 839}, {'classification': 'Triterpene', 'id': 842}, {'classification': 'Steroids and steroid derivatives (Classyfire)', 'id': 942}]

>  <molecular_mass>  (495) 
428.69

$$$$
SANC00600_minRM1.pdb
     RDKit          3D

 90 95  0  0  1  0  0  0  0  0999 V2000
   -0.8930   -2.8160    1.3320 H   0  0  0  0  0  0  0  0  0  0  0  0
   -0.8310   -1.8770    0.7090 C   0  0  1  0  0  0  0  0  0  0  0  0
    0.6310   -1.7450    0.2870 C   0  0  0  0  0  0  0  0  0  0  0  0
    1.1700   -0.3370    0.0530 C   0  0  2  0  0  0  0  0  0  0  0  0
    0.8940    0.2910    0.9430 H   0  0  0  0  0  0  0  0  0  0  0  0
    0.5830    0.3190   -1.1580 C   0  0  0  0  0  0  0  0  0  0  0  0
    1.2990    1.0490   -2.0220 C   0  0  0  0  0  0  0  0  0  0  0  0
    2.7520    1.3460   -1.8900 C   0  0  0  0  0  0  0  0  0  0  0  0
    3.2120    1.0520   -0.4650 C   0  0  1  0  0  0  0  0  0  0  0  0
    2.6400    2.1280    0.4570 C   0  0  0  0  0  0  0  0  0  0  0  0
    2.7030   -0.3650   -0.0880 C   0  0  2  0  0  0  0  0  0  0  0  0
    3.1140   -1.3970   -1.1420 C   0  0  0  0  0  0  0  0  0  0  0  0
    3.4800   -0.6580    1.1990 C   0  0  0  0  0  0  0  0  0  0  0  0
    4.8600   -0.0050    0.9690 C   0  0  1  0  0  0  0  0  0  0  0  0
    5.2050    0.5510    1.8780 H   0  0  0  0  0  0  0  0  0  0  0  0
    5.8050   -0.9940    0.5950 O   0  0  0  0  0  0  0  0  0  0  0  0
    6.3080   -1.7940    1.5670 C   0  0  0  0  0  0  0  0  0  0  0  0
    7.3110   -2.7580    1.0240 C   0  0  0  0  0  0  0  0  0  0  0  0
    5.9330   -1.7020    2.7220 O   0  0  0  0  0  0  0  0  0  0  0  0
    4.7370    0.9220   -0.2720 C   0  0  2  0  0  0  0  0  0  0  0  0
    5.1700    0.4180   -1.1790 H   0  0  0  0  0  0  0  0  0  0  0  0
    5.5030    2.2430   -0.0600 C   0  0  2  0  0  0  0  0  0  0  0  0
    5.1140    2.7680    0.8550 H   0  0  0  0  0  0  0  0  0  0  0  0
    5.3220    3.1600   -1.2720 C   0  0  0  0  0  0  0  0  0  0  0  0
    6.9280    1.9010    0.2360 N   0  0  0  0  0  0  0  0  0  0  0  0
    7.6520    1.3920   -0.9510 C   0  0  0  0  0  0  0  0  0  0  0  0
    7.6610    3.0440    0.8330 C   0  0  0  0  0  0  0  0  0  0  0  0
   -0.9040    0.2980   -1.2980 C   0  0  0  0  0  0  0  0  0  0  0  0
   -1.5330   -1.0750   -1.6280 C   0  0  2  0  0  0  0  0  0  0  0  0
   -0.6800   -1.8580   -2.4150 O   0  0  0  0  0  0  0  0  0  0  0  0
   -2.7650   -0.7530   -2.4340 C   0  0  0  0  0  0  0  0  0  0  0  0
   -3.9870   -0.7300   -1.9280 C   0  0  0  0  0  0  0  0  0  0  0  0
   -4.3400   -1.2200   -0.5600 C   0  0  2  0  0  0  0  0  0  0  0  0
   -4.8980   -2.1870   -0.7640 H   0  0  0  0  0  0  0  0  0  0  0  0
   -5.2540   -0.2790    0.1020 N   0  0  0  0  0  0  0  0  0  0  0  0
   -6.6190   -0.2990   -0.1630 C   0  0  0  0  0  0  0  0  0  0  0  0
   -7.0980   -1.1680   -0.8920 O   0  0  0  0  0  0  0  0  0  0  0  0
   -7.4650    0.7470    0.4700 C   0  0  0  0  0  0  0  0  0  0  0  0
   -6.9400    1.7500    1.2820 C   0  0  0  0  0  0  0  0  0  0  0  0
   -7.7790    2.6960    1.8530 C   0  0  0  0  0  0  0  0  0  0  0  0
   -9.1460    2.6620    1.5950 C   0  0  0  0  0  0  0  0  0  0  0  0
   -9.6730    1.6620    0.7890 C   0  0  0  0  0  0  0  0  0  0  0  0
   -8.8370    0.7030    0.2280 C   0  0  0  0  0  0  0  0  0  0  0  0
   -3.1460   -1.5660    0.3470 C   0  0  2  0  0  0  0  0  0  0  0  0
   -3.6090   -2.7160    1.2540 C   0  0  0  0  0  0  0  0  0  0  0  0
   -2.5800   -0.4630    1.2640 C   0  0  0  0  0  0  0  0  0  0  0  0
   -1.2400   -0.8120    1.5440 O   0  0  0  0  0  0  0  0  0  0  0  0
   -1.8720   -1.9740   -0.4240 C   0  0  2  0  0  0  0  0  0  0  0  0
   -1.9620   -3.0260   -0.7920 H   0  0  0  0  0  0  0  0  0  0  0  0
    1.2470   -2.2150    1.0870 H   0  0  0  0  0  0  0  0  0  0  0  0
    0.7820   -2.4010   -0.5940 H   0  0  0  0  0  0  0  0  0  0  0  0
    0.8270    1.5150   -2.8950 H   0  0  0  0  0  0  0  0  0  0  0  0
    3.3310    0.7830   -2.6530 H   0  0  0  0  0  0  0  0  0  0  0  0
    2.9430    2.4110   -2.1560 H   0  0  0  0  0  0  0  0  0  0  0  0
    1.5410    2.1690    0.4520 H   0  0  0  0  0  0  0  0  0  0  0  0
    2.9360    2.0000    1.5070 H   0  0  0  0  0  0  0  0  0  0  0  0
    2.9540    3.1430    0.1640 H   0  0  0  0  0  0  0  0  0  0  0  0
    4.1470   -1.2650   -1.4970 H   0  0  0  0  0  0  0  0  0  0  0  0
    3.0780   -2.4280   -0.7570 H   0  0  0  0  0  0  0  0  0  0  0  0
    2.4710   -1.3850   -2.0340 H   0  0  0  0  0  0  0  0  0  0  0  0
    2.9840   -0.2360    2.0960 H   0  0  0  0  0  0  0  0  0  0  0  0
    3.5540   -1.7380    1.4350 H   0  0  0  0  0  0  0  0  0  0  0  0
    8.0360   -2.2710    0.3560 H   0  0  0  0  0  0  0  0  0  0  0  0
    7.8810   -3.2380    1.8320 H   0  0  0  0  0  0  0  0  0  0  0  0
    6.8150   -3.5510    0.4450 H   0  0  0  0  0  0  0  0  0  0  0  0
    5.5780    2.6750   -2.2240 H   0  0  0  0  0  0  0  0  0  0  0  0
    4.2780    3.5010   -1.3730 H   0  0  0  0  0  0  0  0  0  0  0  0
    5.9340    4.0710   -1.2070 H   0  0  0  0  0  0  0  0  0  0  0  0
    7.9080    2.1430   -1.7280 H   0  0  0  0  0  0  0  0  0  0  0  0
    8.6060    0.9340   -0.6250 H   0  0  0  0  0  0  0  0  0  0  0  0
    7.0710    0.5940   -1.4520 H   0  0  0  0  0  0  0  0  0  0  0  0
    7.1610    3.3910    1.7540 H   0  0  0  0  0  0  0  0  0  0  0  0
    8.6730    2.7220    1.1270 H   0  0  0  0  0  0  0  0  0  0  0  0
    7.7960    3.9350    0.1900 H   0  0  0  0  0  0  0  0  0  0  0  0
   -1.3570    0.7460   -0.3890 H   0  0  0  0  0  0  0  0  0  0  0  0
   -1.2110    1.0310   -2.0830 H   0  0  0  0  0  0  0  0  0  0  0  0
   -0.2220   -1.2830   -3.0380 H   0  0  0  0  0  0  0  0  0  0  0  0
   -2.5930   -0.4960   -3.4850 H   0  0  0  0  0  0  0  0  0  0  0  0
   -4.8450   -0.4230   -2.5410 H   0  0  0  0  0  0  0  0  0  0  0  0
   -4.8610    0.4900    0.6320 H   0  0  0  0  0  0  0  0  0  0  0  0
   -5.8650    1.8140    1.4810 H   0  0  0  0  0  0  0  0  0  0  0  0
   -7.3660    3.4650    2.5120 H   0  0  0  0  0  0  0  0  0  0  0  0
   -9.8020    3.4250    2.0230 H   0  0  0  0  0  0  0  0  0  0  0  0
  -10.7490    1.6230    0.5970 H   0  0  0  0  0  0  0  0  0  0  0  0
   -9.2660   -0.0810   -0.4080 H   0  0  0  0  0  0  0  0  0  0  0  0
   -3.7780   -3.6520    0.7020 H   0  0  0  0  0  0  0  0  0  0  0  0
   -2.8930   -2.9590    2.0530 H   0  0  0  0  0  0  0  0  0  0  0  0
   -4.5530   -2.4730    1.7650 H   0  0  0  0  0  0  0  0  0  0  0  0
   -2.5810    0.5440    0.7860 H   0  0  0  0  0  0  0  0  0  0  0  0
   -3.1010   -0.3610    2.2380 H   0  0  0  0  0  0  0  0  0  0  0  0
  2  1  1  1
  2 48  1  0
  2  3  1  0
  2 47  1  0
  3 51  1  0
  3  4  1  0
  3 50  1  0
  4  6  1  0
  4 11  1  0
  4  5  1  1
  6  7  2  0
  6 28  1  0
  7 52  1  0
  7  8  1  0
  8 53  1  0
  8 54  1  0
  8  9  1  0
  9 20  1  0
  9 11  1  0
  9 10  1  1
 10 57  1  0
 10 55  1  0
 10 56  1  0
 11 12  1  6
 11 13  1  0
 12 60  1  0
 12 58  1  0
 12 59  1  0
 13 14  1  0
 13 62  1  0
 13 61  1  0
 14 20  1  0
 14 16  1  0
 14 15  1  1
 16 17  1  0
 17 18  1  0
 17 19  2  0
 18 63  1  0
 18 65  1  0
 18 64  1  0
 20 21  1  6
 20 22  1  0
 22 24  1  0
 22 25  1  0
 22 23  1  1
 24 66  1  0
 24 67  1  0
 24 68  1  0
 25 26  1  0
 25 27  1  0
 26 69  1  0
 26 71  1  0
 26 70  1  0
 27 74  1  0
 27 73  1  0
 27 72  1  0
 28 76  1  0
 28 29  1  0
 28 75  1  0
 29 31  1  0
 29 30  1  6
 29 48  1  0
 30 77  1  0
 31 78  1  0
 31 32  2  0
 32 79  1  0
 32 33  1  0
 33 34  1  6
 33 35  1  0
 33 44  1  0
 35 36  1  0
 35 80  1  0
 36 37  2  0
 36 38  1  0
 38 43  2  0
 38 39  1  0
 39 81  1  0
 39 40  2  0
 40 41  1  0
 40 82  1  0
 41 42  2  0
 41 83  1  0
 42 43  1  0
 42 84  1  0
 43 85  1  0
 44 48  1  0
 44 45  1  1
 44 46  1  0
 45 86  1  0
 45 88  1  0
 45 87  1  0
 46 89  1  0
 46 47  1  0
 46 90  1  0
 48 49  1  6
M  END
>  <id>  (496) 
600

>  <scaffolds>  (496) 
['c1ccccc1', 'C1=CCCCC1', 'O=C(NC1C=CC2CC3=CCC4CCCC4C3CC3OCC1C23)c1ccccc1', 'O=C(NC1C=CC2CC3=CCC4CCCC4C3CCC2C1)c1ccccc1']

>  <name>  (496) 
Buxafuranamide

>  <formula>  (496) 
C35H48N2O5

>  <SMILES>  (496) 
[H][C@]45C[C@]1([H])C(=CC[C@@]2(C)[C@@]1(C)C[C@@H](OC(C)=O)[C@]2([H])[C@H](C)N(C)C)C[C@]6(O)C=C[C@H](NC(=O)c3ccccc3)[C@](C)(CO4)[C@]56[H]

>  <ChEMBL_id>  (496) 


>  <ZINC_id>  (496) 


>  <PubChem_id>  (496) 
 183658

>  <DrugBank_id>  (496) 


>  <CAS_no>  (496) 
123871-27-2

>  <references>  (496) 
[{'journal': {'name': 'Journal of Natural Products', 'id': 5}, 'title': 'Triterpenoidal Alkaloids from Buxus natalensis and Their Acetylcholinesterase Inhibitory Activity', 'year': 2010, 'start_page': 1858, 'volume': 73, 'issue': None, 'doi': '10.1021/np100494u', 'isbn': '', 'despositor': {'code': 'NFA', 'first_name': 'Ngonidzashe', 'last_name': 'Faya', 'id': 21}, 'refauthors_set': [{'author': {'first_name': 'Wadim', 'initials': 'WL', 'last_name': 'Matochko', 'id': 786}, 'first_author': True, 'id': 1116}, {'author': {'first_name': 'Abin', 'initials': 'A', 'last_name': 'James', 'id': 787}, 'first_author': False, 'id': 1117}, {'author': {'first_name': 'Cheuk', 'initials': 'CW', 'last_name': 'Lam', 'id': 788}, 'first_author': False, 'id': 1118}, {'author': {'first_name': 'Daniel', 'initials': 'DJ', 'last_name': 'Kozera', 'id': 789}, 'first_author': False, 'id': 1119}, {'author': {'first_name': 'Robert', 'initials': 'RM', 'last_name': 'Gengan', 'id': 791}, 'first_author': False, 'id': 1120}, {'author': {'first_name': 'Athar', 'initials': 'A', 'last_name': 'Ata', 'id': 790}, 'first_author': None, 'id': 1389}], 'id': 368}]

>  <classifications>  (496) 
[{'classification': 'Alkaloid', 'id': 738}, {'classification': 'Terpenoid', 'id': 839}, {'classification': 'Triterpene', 'id': 842}, {'classification': 'Phenol lipids (Classyfire)', 'id': 951}]

>  <molecular_mass>  (496) 
576.76

$$$$
SANC00601_minRM1.pdb
     RDKit          3D

 92 96  0  0  1  0  0  0  0  0999 V2000
   -1.2310    0.1140   -0.5060 H   0  0  0  0  0  0  0  0  0  0  0  0
   -1.4940   -0.0190    0.5800 C   0  0  2  0  0  0  0  0  0  0  0  0
   -0.7020   -1.2160    1.1050 C   0  0  0  0  0  0  0  0  0  0  0  0
    0.6330   -1.3880    0.3820 C   0  0  0  0  0  0  0  0  0  0  0  0
    1.7400   -0.4270    0.8260 C   0  0  2  0  0  0  0  0  0  0  0  0
    1.9250   -0.5870    1.9220 H   0  0  0  0  0  0  0  0  0  0  0  0
    1.3210    1.0490    0.6520 C   0  0  2  0  0  0  0  0  0  0  0  0
    0.8120    1.2040   -0.6410 O   0  0  0  0  0  0  0  0  0  0  0  0
    2.4980    1.9850    0.7760 C   0  0  0  0  0  0  0  0  0  0  0  0
    3.7640    1.5930    0.7580 C   0  0  0  0  0  0  0  0  0  0  0  0
    4.1750    0.1520    0.7040 C   0  0  2  0  0  0  0  0  0  0  0  0
    4.3520   -0.1640    1.7750 H   0  0  0  0  0  0  0  0  0  0  0  0
    5.4300    0.0330   -0.0460 N   0  0  0  0  0  0  0  0  0  0  0  0
    6.6480    0.3480    0.5270 C   0  0  0  0  0  0  0  0  0  0  0  0
    6.7080    0.7930    1.6760 O   0  0  0  0  0  0  0  0  0  0  0  0
    7.8650    0.1150   -0.2970 C   0  0  0  0  0  0  0  0  0  0  0  0
    7.8020   -0.4170   -1.5840 C   0  0  0  0  0  0  0  0  0  0  0  0
    8.9680   -0.6620   -2.2970 C   0  0  0  0  0  0  0  0  0  0  0  0
   10.2030   -0.3630   -1.7350 C   0  0  0  0  0  0  0  0  0  0  0  0
   10.2690    0.1900   -0.4630 C   0  0  0  0  0  0  0  0  0  0  0  0
    9.1040    0.4260    0.2590 C   0  0  0  0  0  0  0  0  0  0  0  0
    3.0670   -0.7410    0.0850 C   0  0  2  0  0  0  0  0  0  0  0  0
    2.9150   -0.5000   -1.4120 C   0  0  0  0  0  0  0  0  0  0  0  0
    3.4270   -2.2240    0.3570 C   0  0  0  0  0  0  0  0  0  0  0  0
    4.5620   -2.5540   -0.3910 O   0  0  0  0  0  0  0  0  0  0  0  0
    0.2740    1.4370    1.7300 C   0  0  0  0  0  0  0  0  0  0  0  0
   -1.1440    1.2480    1.3010 C   0  0  0  0  0  0  0  0  0  0  0  0
   -2.0350    2.2150    1.5550 C   0  0  0  0  0  0  0  0  0  0  0  0
   -3.4750    2.1620    1.1770 C   0  0  0  0  0  0  0  0  0  0  0  0
   -3.6940    1.0770    0.1280 C   0  0  1  0  0  0  0  0  0  0  0  0
   -3.0650    1.5560   -1.1840 C   0  0  0  0  0  0  0  0  0  0  0  0
   -3.0160   -0.2240    0.6450 C   0  0  2  0  0  0  0  0  0  0  0  0
   -3.4170   -0.5820    2.0740 C   0  0  0  0  0  0  0  0  0  0  0  0
   -3.5870   -1.2820   -0.3030 C   0  0  0  0  0  0  0  0  0  0  0  0
   -5.0360   -0.8200   -0.5750 C   0  0  1  0  0  0  0  0  0  0  0  0
   -5.3020   -0.9390   -1.6570 H   0  0  0  0  0  0  0  0  0  0  0  0
   -5.9290   -1.5500    0.2480 O   0  0  0  0  0  0  0  0  0  0  0  0
   -6.2190   -2.8280   -0.0930 C   0  0  0  0  0  0  0  0  0  0  0  0
   -7.1530   -3.4730    0.8810 C   0  0  0  0  0  0  0  0  0  0  0  0
   -5.7410   -3.3410   -1.0900 O   0  0  0  0  0  0  0  0  0  0  0  0
   -5.1600    0.6520   -0.0980 C   0  0  2  0  0  0  0  0  0  0  0  0
   -5.7060    0.7080    0.8790 H   0  0  0  0  0  0  0  0  0  0  0  0
   -5.9350    1.5130   -1.1210 C   0  0  2  0  0  0  0  0  0  0  0  0
   -5.3760    1.5330   -2.0960 H   0  0  0  0  0  0  0  0  0  0  0  0
   -6.0710    2.9460   -0.5990 C   0  0  0  0  0  0  0  0  0  0  0  0
   -7.2370    0.8520   -1.4370 N   0  0  0  0  0  0  0  0  0  0  0  0
   -8.2260    0.9470   -0.3400 C   0  0  0  0  0  0  0  0  0  0  0  0
   -7.8180    1.3890   -2.6940 C   0  0  0  0  0  0  0  0  0  0  0  0
   -0.5640   -1.1700    2.2050 H   0  0  0  0  0  0  0  0  0  0  0  0
   -1.2870   -2.1500    0.9510 H   0  0  0  0  0  0  0  0  0  0  0  0
    0.9750   -2.4380    0.5440 H   0  0  0  0  0  0  0  0  0  0  0  0
    0.4960   -1.3270   -0.7220 H   0  0  0  0  0  0  0  0  0  0  0  0
    0.4800    2.1040   -0.7180 H   0  0  0  0  0  0  0  0  0  0  0  0
    2.2550    3.0530    0.8320 H   0  0  0  0  0  0  0  0  0  0  0  0
    4.5790    2.3240    0.8260 H   0  0  0  0  0  0  0  0  0  0  0  0
    5.3920   -0.3310   -0.9940 H   0  0  0  0  0  0  0  0  0  0  0  0
    6.8400   -0.6570   -2.0520 H   0  0  0  0  0  0  0  0  0  0  0  0
    8.9120   -1.0930   -3.3000 H   0  0  0  0  0  0  0  0  0  0  0  0
   11.1220   -0.5640   -2.2960 H   0  0  0  0  0  0  0  0  0  0  0  0
   11.2390    0.4390   -0.0240 H   0  0  0  0  0  0  0  0  0  0  0  0
    9.1680    0.8550    1.2660 H   0  0  0  0  0  0  0  0  0  0  0  0
    3.6990   -0.9700   -2.0240 H   0  0  0  0  0  0  0  0  0  0  0  0
    1.9620   -0.9030   -1.7920 H   0  0  0  0  0  0  0  0  0  0  0  0
    2.9350    0.5690   -1.6690 H   0  0  0  0  0  0  0  0  0  0  0  0
    3.5730   -2.3980    1.4490 H   0  0  0  0  0  0  0  0  0  0  0  0
    2.5840   -2.8980    0.0620 H   0  0  0  0  0  0  0  0  0  0  0  0
    4.9590   -3.3260    0.0230 H   0  0  0  0  0  0  0  0  0  0  0  0
    0.4520    0.8750    2.6710 H   0  0  0  0  0  0  0  0  0  0  0  0
    0.4370    2.4920    2.0500 H   0  0  0  0  0  0  0  0  0  0  0  0
   -1.7440    3.1280    2.0860 H   0  0  0  0  0  0  0  0  0  0  0  0
   -4.0970    2.0030    2.0860 H   0  0  0  0  0  0  0  0  0  0  0  0
   -3.8180    3.1530    0.8000 H   0  0  0  0  0  0  0  0  0  0  0  0
   -1.9780    1.7210   -1.1140 H   0  0  0  0  0  0  0  0  0  0  0  0
   -3.2040    0.8470   -2.0120 H   0  0  0  0  0  0  0  0  0  0  0  0
   -3.4630    2.5240   -1.5210 H   0  0  0  0  0  0  0  0  0  0  0  0
   -4.5020   -0.5390    2.2450 H   0  0  0  0  0  0  0  0  0  0  0  0
   -3.1210   -1.6090    2.3420 H   0  0  0  0  0  0  0  0  0  0  0  0
   -2.9500    0.0600    2.8340 H   0  0  0  0  0  0  0  0  0  0  0  0
   -3.0110   -1.3550   -1.2470 H   0  0  0  0  0  0  0  0  0  0  0  0
   -3.5380   -2.3110    0.1050 H   0  0  0  0  0  0  0  0  0  0  0  0
   -7.1770   -2.9750    1.8610 H   0  0  0  0  0  0  0  0  0  0  0  0
   -8.1800   -3.4670    0.4860 H   0  0  0  0  0  0  0  0  0  0  0  0
   -6.8710   -4.5220    1.0500 H   0  0  0  0  0  0  0  0  0  0  0  0
   -6.6470    3.5880   -1.2790 H   0  0  0  0  0  0  0  0  0  0  0  0
   -6.5570    3.0050    0.3860 H   0  0  0  0  0  0  0  0  0  0  0  0
   -5.0910    3.4360   -0.4740 H   0  0  0  0  0  0  0  0  0  0  0  0
   -8.6270    1.9560   -0.1260 H   0  0  0  0  0  0  0  0  0  0  0  0
   -9.0970    0.3090   -0.5790 H   0  0  0  0  0  0  0  0  0  0  0  0
   -7.8060    0.5550    0.6020 H   0  0  0  0  0  0  0  0  0  0  0  0
   -7.1270    1.2240   -3.5400 H   0  0  0  0  0  0  0  0  0  0  0  0
   -8.7440    0.8430   -2.9450 H   0  0  0  0  0  0  0  0  0  0  0  0
   -8.0770    2.4650   -2.6980 H   0  0  0  0  0  0  0  0  0  0  0  0
  2  1  1  6
  2 32  1  0
  2  3  1  0
  2 27  1  0
  3  4  1  0
  3 50  1  0
  3 49  1  0
  4 52  1  0
  4 51  1  0
  4  5  1  0
  5 22  1  0
  5  7  1  0
  5  6  1  1
  7  8  1  6
  7  9  1  0
  7 26  1  0
  8 53  1  0
  9 10  2  0
  9 54  1  0
 10 11  1  0
 10 55  1  0
 11 13  1  0
 11 22  1  0
 11 12  1  1
 13 56  1  0
 13 14  1  0
 14 16  1  0
 14 15  2  0
 16 17  2  0
 16 21  1  0
 17 18  1  0
 17 57  1  0
 18 58  1  0
 18 19  2  0
 19 59  1  0
 19 20  1  0
 20 60  1  0
 20 21  2  0
 21 61  1  0
 22 23  1  6
 22 24  1  0
 23 62  1  0
 23 63  1  0
 23 64  1  0
 24 25  1  0
 24 66  1  0
 24 65  1  0
 25 67  1  0
 26 27  1  0
 26 69  1  0
 26 68  1  0
 27 28  2  0
 28 29  1  0
 28 70  1  0
 29 30  1  0
 29 72  1  0
 29 71  1  0
 30 31  1  6
 30 41  1  0
 30 32  1  0
 31 74  1  0
 31 75  1  0
 31 73  1  0
 32 34  1  0
 32 33  1  1
 33 76  1  0
 33 77  1  0
 33 78  1  0
 34 79  1  0
 34 35  1  0
 34 80  1  0
 35 36  1  6
 35 41  1  0
 35 37  1  0
 37 38  1  0
 38 40  2  0
 38 39  1  0
 39 82  1  0
 39 83  1  0
 39 81  1  0
 41 43  1  0
 41 42  1  1
 43 44  1  6
 43 46  1  0
 43 45  1  0
 45 84  1  0
 45 86  1  0
 45 85  1  0
 46 48  1  0
 46 47  1  0
 47 88  1  0
 47 87  1  0
 47 89  1  0
 48 90  1  0
 48 91  1  0
 48 92  1  0
M  END
>  <id>  (497) 
601

>  <scaffolds>  (497) 
['c1ccccc1', 'C1=CCCCC1', 'O=C(NC1C=CC2CC3=CCC4CCCC4C3CCC2C1)c1ccccc1']

>  <name>  (497) 
Buxalongifolamidine

>  <formula>  (497) 
C35H50N2O5

>  <SMILES>  (497) 
[H][C@@]34CC[C@]2([H])[C@](O)(C=C[C@H](NC(=O)c1ccccc1)[C@@]2(C)CO)CC3=CC[C@@]5(C)[C@@]4(C)C[C@@H](OC(C)=O)[C@]5([H])[C@H](C)N(C)C

>  <ChEMBL_id>  (497) 


>  <ZINC_id>  (497) 


>  <PubChem_id>  (497) 


>  <DrugBank_id>  (497) 


>  <CAS_no>  (497) 
149472-47-9

>  <references>  (497) 
[{'journal': {'name': 'Journal of Natural Products', 'id': 5}, 'title': 'Triterpenoidal Alkaloids from Buxus natalensis and Their Acetylcholinesterase Inhibitory Activity', 'year': 2010, 'start_page': 1858, 'volume': 73, 'issue': None, 'doi': '10.1021/np100494u', 'isbn': '', 'despositor': {'code': 'NFA', 'first_name': 'Ngonidzashe', 'last_name': 'Faya', 'id': 21}, 'refauthors_set': [{'author': {'first_name': 'Wadim', 'initials': 'WL', 'last_name': 'Matochko', 'id': 786}, 'first_author': True, 'id': 1116}, {'author': {'first_name': 'Abin', 'initials': 'A', 'last_name': 'James', 'id': 787}, 'first_author': False, 'id': 1117}, {'author': {'first_name': 'Cheuk', 'initials': 'CW', 'last_name': 'Lam', 'id': 788}, 'first_author': False, 'id': 1118}, {'author': {'first_name': 'Daniel', 'initials': 'DJ', 'last_name': 'Kozera', 'id': 789}, 'first_author': False, 'id': 1119}, {'author': {'first_name': 'Robert', 'initials': 'RM', 'last_name': 'Gengan', 'id': 791}, 'first_author': False, 'id': 1120}, {'author': {'first_name': 'Athar', 'initials': 'A', 'last_name': 'Ata', 'id': 790}, 'first_author': None, 'id': 1389}], 'id': 368}]

>  <classifications>  (497) 
[{'classification': 'Alkaloid', 'id': 738}, {'classification': 'Terpenoid', 'id': 839}, {'classification': 'Triterpene', 'id': 842}, {'classification': 'Steroids and steroid derivatives (Classyfire)', 'id': 942}]

>  <molecular_mass>  (497) 
578.78

$$$$
SANC00602_minRM1.pdb
     RDKit          3D

 78 81  0  0  1  0  0  0  0  0999 V2000
   -2.8730   -0.6300   -1.3320 H   0  0  0  0  0  0  0  0  0  0  0  0
   -2.8610   -0.4490   -0.2220 C   0  0  2  0  0  0  0  0  0  0  0  0
   -1.8250   -1.3720    0.4200 C   0  0  0  0  0  0  0  0  0  0  0  0
   -0.5220   -1.4030   -0.3650 C   0  0  0  0  0  0  0  0  0  0  0  0
    0.4870   -0.4110    0.2070 C   0  0  2  0  0  0  0  0  0  0  0  0
    0.4820   -0.5040    1.3280 H   0  0  0  0  0  0  0  0  0  0  0  0
    0.1070    0.9950   -0.1260 C   0  0  0  0  0  0  0  0  0  0  0  0
    1.0280    1.8950   -0.5210 C   0  0  0  0  0  0  0  0  0  0  0  0
    2.4950    1.6610   -0.6170 C   0  0  0  0  0  0  0  0  0  0  0  0
    2.8840    0.3960    0.1420 C   0  0  2  0  0  0  0  0  0  0  0  0
    2.7940    0.6870    1.6390 C   0  0  0  0  0  0  0  0  0  0  0  0
    4.2540   -0.2380   -0.1930 C   0  0  1  0  0  0  0  0  0  0  0  0
    4.3790   -0.2180   -1.3100 H   0  0  0  0  0  0  0  0  0  0  0  0
    5.5110    0.4130    0.4280 C   0  0  2  0  0  0  0  0  0  0  0  0
    5.5690    0.1530    1.5240 H   0  0  0  0  0  0  0  0  0  0  0  0
    5.4420    1.9380    0.3050 C   0  0  0  0  0  0  0  0  0  0  0  0
    6.7300   -0.0660   -0.3290 N   0  0  0  0  0  0  0  0  0  0  0  0
    7.9530    0.6840    0.0650 C   0  0  0  0  0  0  0  0  0  0  0  0
    6.9750   -1.5170   -0.1390 C   0  0  0  0  0  0  0  0  0  0  0  0
    4.0470   -1.6970    0.2700 C   0  0  0  0  0  0  0  0  0  0  0  0
    2.5380   -1.9770    0.2930 C   0  0  0  0  0  0  0  0  0  0  0  0
    1.9010   -0.7190   -0.3050 C   0  0  1  0  0  0  0  0  0  0  0  0
    1.8920   -0.8570   -1.8310 C   0  0  0  0  0  0  0  0  0  0  0  0
   -1.2520    1.5030    0.0340 C   0  0  0  0  0  0  0  0  0  0  0  0
   -2.4870    0.9840   -0.0450 C   0  0  0  0  0  0  0  0  0  0  0  0
   -3.5800    2.0150   -0.1470 C   0  0  0  0  0  0  0  0  0  0  0  0
   -4.9660    1.5860    0.3040 C   0  0  0  0  0  0  0  0  0  0  0  0
   -5.2750    0.2060   -0.2700 C   0  0  2  0  0  0  0  0  0  0  0  0
   -5.0700    0.2420   -1.3800 H   0  0  0  0  0  0  0  0  0  0  0  0
   -6.6900   -0.2490   -0.1110 N   0  0  0  0  0  0  0  0  0  0  0  0
   -7.3480    0.1890    1.1420 C   0  0  0  0  0  0  0  0  0  0  0  0
   -7.5170    0.1750   -1.2710 C   0  0  0  0  0  0  0  0  0  0  0  0
   -4.2720   -0.8120    0.3270 C   0  0  1  0  0  0  0  0  0  0  0  0
   -4.6480   -2.2140   -0.1610 C   0  0  0  0  0  0  0  0  0  0  0  0
   -4.2560   -0.8130    1.8520 C   0  0  0  0  0  0  0  0  0  0  0  0
   -1.6430   -1.0880    1.4770 H   0  0  0  0  0  0  0  0  0  0  0  0
   -2.2300   -2.4090    0.4810 H   0  0  0  0  0  0  0  0  0  0  0  0
   -0.0980   -2.4310   -0.3270 H   0  0  0  0  0  0  0  0  0  0  0  0
   -0.7030   -1.2210   -1.4440 H   0  0  0  0  0  0  0  0  0  0  0  0
    0.7330    2.9170   -0.7920 H   0  0  0  0  0  0  0  0  0  0  0  0
    2.8160    1.6340   -1.6810 H   0  0  0  0  0  0  0  0  0  0  0  0
    3.0260    2.5530   -0.2080 H   0  0  0  0  0  0  0  0  0  0  0  0
    1.8140    1.0830    1.9460 H   0  0  0  0  0  0  0  0  0  0  0  0
    2.9910   -0.1880    2.2730 H   0  0  0  0  0  0  0  0  0  0  0  0
    3.5170    1.4600    1.9490 H   0  0  0  0  0  0  0  0  0  0  0  0
    4.5140    2.3520    0.7360 H   0  0  0  0  0  0  0  0  0  0  0  0
    6.2430    2.4550    0.8560 H   0  0  0  0  0  0  0  0  0  0  0  0
    5.4920    2.2770   -0.7410 H   0  0  0  0  0  0  0  0  0  0  0  0
    8.1120    0.8150    1.1520 H   0  0  0  0  0  0  0  0  0  0  0  0
    8.8670    0.2000   -0.3250 H   0  0  0  0  0  0  0  0  0  0  0  0
    7.9450    1.6860   -0.3980 H   0  0  0  0  0  0  0  0  0  0  0  0
    6.2440   -2.1010   -0.7270 H   0  0  0  0  0  0  0  0  0  0  0  0
    7.9610   -1.8160   -0.5390 H   0  0  0  0  0  0  0  0  0  0  0  0
    6.9410   -1.8870    0.9040 H   0  0  0  0  0  0  0  0  0  0  0  0
    4.5690   -2.4070   -0.4060 H   0  0  0  0  0  0  0  0  0  0  0  0
    4.4920   -1.8880    1.2680 H   0  0  0  0  0  0  0  0  0  0  0  0
    2.2860   -2.9030   -0.2620 H   0  0  0  0  0  0  0  0  0  0  0  0
    2.1720   -2.1870    1.3170 H   0  0  0  0  0  0  0  0  0  0  0  0
    1.4830   -1.8210   -2.1700 H   0  0  0  0  0  0  0  0  0  0  0  0
    1.2940   -0.0820   -2.3320 H   0  0  0  0  0  0  0  0  0  0  0  0
    2.9050   -0.8040   -2.2650 H   0  0  0  0  0  0  0  0  0  0  0  0
   -1.2260    2.5960    0.2100 H   0  0  0  0  0  0  0  0  0  0  0  0
   -3.3070    2.9460    0.4010 H   0  0  0  0  0  0  0  0  0  0  0  0
   -3.6190    2.3320   -1.2150 H   0  0  0  0  0  0  0  0  0  0  0  0
   -5.0490    1.6220    1.4090 H   0  0  0  0  0  0  0  0  0  0  0  0
   -5.7150    2.3350   -0.0370 H   0  0  0  0  0  0  0  0  0  0  0  0
   -7.5820    1.2680    1.2280 H   0  0  0  0  0  0  0  0  0  0  0  0
   -8.3060   -0.3490    1.2530 H   0  0  0  0  0  0  0  0  0  0  0  0
   -6.7400   -0.0820    2.0250 H   0  0  0  0  0  0  0  0  0  0  0  0
   -7.1410   -0.2860   -2.2010 H   0  0  0  0  0  0  0  0  0  0  0  0
   -8.5540   -0.1830   -1.1530 H   0  0  0  0  0  0  0  0  0  0  0  0
   -7.5770    1.2660   -1.4510 H   0  0  0  0  0  0  0  0  0  0  0  0
   -4.7980   -2.2570   -1.2490 H   0  0  0  0  0  0  0  0  0  0  0  0
   -3.8710   -2.9600    0.0780 H   0  0  0  0  0  0  0  0  0  0  0  0
   -5.5800   -2.5750    0.2980 H   0  0  0  0  0  0  0  0  0  0  0  0
   -5.2660   -0.7660    2.2900 H   0  0  0  0  0  0  0  0  0  0  0  0
   -3.8140   -1.7310    2.2710 H   0  0  0  0  0  0  0  0  0  0  0  0
   -3.6850    0.0240    2.2780 H   0  0  0  0  0  0  0  0  0  0  0  0
  2  1  1  6
  2 25  1  0
  2 33  1  0
  2  3  1  0
  3  4  1  0
  3 37  1  0
  3 36  1  0
  4 39  1  0
  4 38  1  0
  4  5  1  0
  5 22  1  0
  5  7  1  0
  5  6  1  1
  7  8  2  0
  7 24  1  0
  8 40  1  0
  8  9  1  0
  9 41  1  0
  9 42  1  0
  9 10  1  0
 10 22  1  0
 10 12  1  0
 10 11  1  1
 11 43  1  0
 11 45  1  0
 11 44  1  0
 12 13  1  6
 12 20  1  0
 12 14  1  0
 14 17  1  0
 14 16  1  0
 14 15  1  1
 16 48  1  0
 16 46  1  0
 16 47  1  0
 17 19  1  0
 17 18  1  0
 18 51  1  0
 18 50  1  0
 18 49  1  0
 19 52  1  0
 19 53  1  0
 19 54  1  0
 20 55  1  0
 20 21  1  0
 20 56  1  0
 21 22  1  0
 21 57  1  0
 21 58  1  0
 22 23  1  6
 23 60  1  0
 23 61  1  0
 23 59  1  0
 24 25  2  0
 24 62  1  0
 25 26  1  0
 26 64  1  0
 26 27  1  0
 26 63  1  0
 27 28  1  0
 27 66  1  0
 27 65  1  0
 28 29  1  6
 28 30  1  0
 28 33  1  0
 30 32  1  0
 30 31  1  0
 31 67  1  0
 31 68  1  0
 31 69  1  0
 32 70  1  0
 32 72  1  0
 32 71  1  0
 33 34  1  6
 33 35  1  0
 34 73  1  0
 34 74  1  0
 34 75  1  0
 35 77  1  0
 35 78  1  0
 35 76  1  0
M  END
>  <id>  (498) 
602

>  <scaffolds>  (498) 
['C1=CCCCC1', 'C1=C2CCCCC2CCC2C1=CCC1CCCC12', 'C1CCCCC1']

>  <name>  (498) 
Buxamine A

>  <formula>  (498) 
C28H48N2

>  <SMILES>  (498) 
[H][C@@]34CC[C@]1([H])C(=CC[C@]2(C)[C@@]([H])([C@H](C)N(C)C)CC[C@@]12C)C=C3CC[C@H](N(C)C)C4(C)C

>  <ChEMBL_id>  (498) 


>  <ZINC_id>  (498) 


>  <PubChem_id>  (498) 
 495920

>  <DrugBank_id>  (498) 


>  <CAS_no>  (498) 
36127-40-9

>  <references>  (498) 
[{'journal': {'name': 'Journal of Natural Products', 'id': 5}, 'title': 'Triterpenoidal Alkaloids from Buxus natalensis and Their Acetylcholinesterase Inhibitory Activity', 'year': 2010, 'start_page': 1858, 'volume': 73, 'issue': None, 'doi': '10.1021/np100494u', 'isbn': '', 'despositor': {'code': 'NFA', 'first_name': 'Ngonidzashe', 'last_name': 'Faya', 'id': 21}, 'refauthors_set': [{'author': {'first_name': 'Wadim', 'initials': 'WL', 'last_name': 'Matochko', 'id': 786}, 'first_author': True, 'id': 1116}, {'author': {'first_name': 'Abin', 'initials': 'A', 'last_name': 'James', 'id': 787}, 'first_author': False, 'id': 1117}, {'author': {'first_name': 'Cheuk', 'initials': 'CW', 'last_name': 'Lam', 'id': 788}, 'first_author': False, 'id': 1118}, {'author': {'first_name': 'Daniel', 'initials': 'DJ', 'last_name': 'Kozera', 'id': 789}, 'first_author': False, 'id': 1119}, {'author': {'first_name': 'Robert', 'initials': 'RM', 'last_name': 'Gengan', 'id': 791}, 'first_author': False, 'id': 1120}, {'author': {'first_name': 'Athar', 'initials': 'A', 'last_name': 'Ata', 'id': 790}, 'first_author': None, 'id': 1389}], 'id': 368}]

>  <classifications>  (498) 
[{'classification': 'Alkaloid', 'id': 738}, {'classification': 'Terpenoid', 'id': 839}, {'classification': 'Triterpene', 'id': 842}, {'classification': 'Steroids and steroid derivatives (Classyfire)', 'id': 942}]

>  <molecular_mass>  (498) 
412.69

$$$$
SANC00603_minRM1.pdb
     RDKit          3D

 69 73  0  0  1  0  0  0  0  0999 V2000
   -1.4340   -0.9620   -0.9820 H   0  0  0  0  0  0  0  0  0  0  0  0
   -1.7750   -0.8900    0.0860 C   0  0  2  0  0  0  0  0  0  0  0  0
   -1.1820   -2.0700    0.8560 C   0  0  0  0  0  0  0  0  0  0  0  0
    0.3160   -2.1310    0.6100 C   0  0  0  0  0  0  0  0  0  0  0  0
    1.0780   -0.8430    0.9590 C   0  0  1  0  0  0  0  0  0  0  0  0
    1.5590   -0.9870    1.9640 H   0  0  0  0  0  0  0  0  0  0  0  0
    2.1680   -0.6360   -0.0950 C   0  0  2  0  0  0  0  0  0  0  0  0
    1.5280   -0.4260   -1.4690 C   0  0  0  0  0  0  0  0  0  0  0  0
    3.1770   -1.7890   -0.2280 C   0  0  0  0  0  0  0  0  0  0  0  0
    4.3800   -1.0950   -0.8290 C   0  0  0  0  0  0  0  0  0  0  0  0
    5.3070   -1.6540   -1.3770 O   0  0  0  0  0  0  0  0  0  0  0  0
    4.2420    0.3720   -0.6410 C   0  0  0  0  0  0  0  0  0  0  0  0
    5.0800    1.2360   -1.2060 C   0  0  0  0  0  0  0  0  0  0  0  0
    5.0440    2.7060   -1.0310 C   0  0  0  0  0  0  0  0  0  0  0  0
    3.0770    0.5620    0.2850 C   0  0  2  0  0  0  0  0  0  0  0  0
    3.6520    0.4480    1.7010 C   0  0  0  0  0  0  0  0  0  0  0  0
    2.2460    1.8250    0.1690 C   0  0  0  0  0  0  0  0  0  0  0  0
    1.0160    1.7260    1.0700 C   0  0  0  0  0  0  0  0  0  0  0  0
    0.2460    0.4170    1.0890 C   0  0  2  0  0  0  0  0  0  0  0  0
   -0.8760    0.4450    2.1210 C   0  0  0  0  0  0  0  0  0  0  0  0
   -1.2210    0.3980    0.6500 C   0  0  2  0  0  0  0  0  0  0  0  0
   -1.7820    1.6210   -0.0260 C   0  0  0  0  0  0  0  0  0  0  0  0
   -3.3030    1.6110   -0.0020 C   0  0  0  0  0  0  0  0  0  0  0  0
   -3.8140    0.3340   -0.6780 C   0  0  2  0  0  0  0  0  0  0  0  0
   -3.3330    0.2860   -1.6990 H   0  0  0  0  0  0  0  0  0  0  0  0
   -5.2940    0.2820   -0.8880 N   0  0  0  0  0  0  0  0  0  0  0  0
   -6.0980    0.9480    0.1620 C   0  0  0  0  0  0  0  0  0  0  0  0
   -5.6630    0.8380   -2.2170 C   0  0  0  0  0  0  0  0  0  0  0  0
   -3.3230   -0.9190    0.0940 C   0  0  1  0  0  0  0  0  0  0  0  0
   -3.7900   -2.1690   -0.6570 C   0  0  0  0  0  0  0  0  0  0  0  0
   -3.8600   -0.9820    1.5170 C   0  0  0  0  0  0  0  0  0  0  0  0
   -1.3850   -2.0040    1.9480 H   0  0  0  0  0  0  0  0  0  0  0  0
   -1.6640   -3.0230    0.5430 H   0  0  0  0  0  0  0  0  0  0  0  0
    0.7580   -2.9780    1.1780 H   0  0  0  0  0  0  0  0  0  0  0  0
    0.4770   -2.4240   -0.4540 H   0  0  0  0  0  0  0  0  0  0  0  0
    0.7350    0.3360   -1.4660 H   0  0  0  0  0  0  0  0  0  0  0  0
    2.2540   -0.1270   -2.2380 H   0  0  0  0  0  0  0  0  0  0  0  0
    1.0440   -1.3490   -1.8350 H   0  0  0  0  0  0  0  0  0  0  0  0
    3.4290   -2.2570    0.7440 H   0  0  0  0  0  0  0  0  0  0  0  0
    2.8330   -2.6340   -0.8550 H   0  0  0  0  0  0  0  0  0  0  0  0
    5.8810    0.8560   -1.8550 H   0  0  0  0  0  0  0  0  0  0  0  0
    5.0430    2.9960    0.0310 H   0  0  0  0  0  0  0  0  0  0  0  0
    5.9200    3.1980   -1.4830 H   0  0  0  0  0  0  0  0  0  0  0  0
    4.1610    3.1580   -1.5070 H   0  0  0  0  0  0  0  0  0  0  0  0
    4.1780    1.3650    1.9970 H   0  0  0  0  0  0  0  0  0  0  0  0
    2.8830    0.2580    2.4630 H   0  0  0  0  0  0  0  0  0  0  0  0
    4.3840   -0.3630    1.8070 H   0  0  0  0  0  0  0  0  0  0  0  0
    2.8250    2.7270    0.4650 H   0  0  0  0  0  0  0  0  0  0  0  0
    1.9650    2.0310   -0.8840 H   0  0  0  0  0  0  0  0  0  0  0  0
    1.3200    1.9470    2.1190 H   0  0  0  0  0  0  0  0  0  0  0  0
    0.3330    2.5720    0.8170 H   0  0  0  0  0  0  0  0  0  0  0  0
   -1.0540   -0.4210    2.7700 H   0  0  0  0  0  0  0  0  0  0  0  0
   -1.0680    1.3530    2.7030 H   0  0  0  0  0  0  0  0  0  0  0  0
   -1.3990    2.5550    0.4460 H   0  0  0  0  0  0  0  0  0  0  0  0
   -1.4000    1.6720   -1.0680 H   0  0  0  0  0  0  0  0  0  0  0  0
   -3.6680    1.7180    1.0390 H   0  0  0  0  0  0  0  0  0  0  0  0
   -3.6940    2.5100   -0.5250 H   0  0  0  0  0  0  0  0  0  0  0  0
   -6.0370    2.0520    0.2110 H   0  0  0  0  0  0  0  0  0  0  0  0
   -7.1660    0.7020    0.0160 H   0  0  0  0  0  0  0  0  0  0  0  0
   -5.8330    0.5620    1.1640 H   0  0  0  0  0  0  0  0  0  0  0  0
   -5.2110    0.2330   -3.0210 H   0  0  0  0  0  0  0  0  0  0  0  0
   -6.7550    0.7790   -2.3670 H   0  0  0  0  0  0  0  0  0  0  0  0
   -5.3750    1.8920   -2.3990 H   0  0  0  0  0  0  0  0  0  0  0  0
   -3.5220   -2.1480   -1.7230 H   0  0  0  0  0  0  0  0  0  0  0  0
   -3.3470   -3.0890   -0.2430 H   0  0  0  0  0  0  0  0  0  0  0  0
   -4.8810   -2.2980   -0.6110 H   0  0  0  0  0  0  0  0  0  0  0  0
   -4.9540   -0.8590    1.5600 H   0  0  0  0  0  0  0  0  0  0  0  0
   -3.6640   -1.9520    1.9990 H   0  0  0  0  0  0  0  0  0  0  0  0
   -3.4310   -0.2160    2.1780 H   0  0  0  0  0  0  0  0  0  0  0  0
  2  1  1  6
  2 29  1  0
  2 21  1  0
  2  3  1  0
  3 33  1  0
  3  4  1  0
  3 32  1  0
  4 35  1  0
  4  5  1  0
  4 34  1  0
  5  7  1  0
  5 19  1  0
  5  6  1  1
  7  8  1  6
  7  9  1  0
  7 15  1  0
  8 37  1  0
  8 38  1  0
  8 36  1  0
  9 40  1  0
  9 10  1  0
  9 39  1  0
 10 11  2  0
 10 12  1  0
 12 13  2  0
 12 15  1  0
 13 41  1  0
 13 14  1  0
 14 44  1  0
 14 43  1  0
 14 42  1  0
 15 17  1  0
 15 16  1  1
 16 47  1  0
 16 45  1  0
 16 46  1  0
 17 49  1  0
 17 48  1  0
 17 18  1  0
 18 51  1  0
 18 50  1  0
 19 18  1  6
 19 21  1  0
 19 20  1  0
 20 53  1  0
 20 52  1  0
 21 20  1  1
 21 22  1  0
 22 55  1  0
 22 23  1  0
 22 54  1  0
 23 24  1  0
 23 57  1  0
 23 56  1  0
 24 25  1  6
 24 26  1  0
 24 29  1  0
 26 28  1  0
 26 27  1  0
 27 59  1  0
 27 58  1  0
 27 60  1  0
 28 61  1  0
 28 63  1  0
 28 62  1  0
 29 30  1  6
 29 31  1  0
 30 64  1  0
 30 66  1  0
 30 65  1  0
 31 67  1  0
 31 68  1  0
 31 69  1  0
M  END
>  <id>  (499) 
603

>  <scaffolds>  (499) 
['C1CCC(C2CCCC2)CC1', 'C1CCCCC1', 'C1CC2CCC34CC35CCCCC5CCC4C2C1', 'C1CCC2C(C1)CCC1C3CCCC3CCC21', 'C1CCC2CCCCC2C1']

>  <name>  (499) 
Cyclobuxophylline K

>  <formula>  (499) 
C26H41NO

>  <SMILES>  (499) 
[H][C@@]35CC[C@@]2([H])[C@]1(C)CC(=O)/C(=C/C)[C@@]1(C)CC[C@]24C[C@]34CC[C@H](N(C)C)C5(C)C

>  <ChEMBL_id>  (499) 
CHEMBL1651048

>  <ZINC_id>  (499) 


>  <PubChem_id>  (499) 
 50908834

>  <DrugBank_id>  (499) 


>  <CAS_no>  (499) 
10088-21-8

>  <references>  (499) 
[{'journal': {'name': 'Journal of Natural Products', 'id': 5}, 'title': 'Triterpenoidal Alkaloids from Buxus natalensis and Their Acetylcholinesterase Inhibitory Activity', 'year': 2010, 'start_page': 1858, 'volume': 73, 'issue': None, 'doi': '10.1021/np100494u', 'isbn': '', 'despositor': {'code': 'NFA', 'first_name': 'Ngonidzashe', 'last_name': 'Faya', 'id': 21}, 'refauthors_set': [{'author': {'first_name': 'Wadim', 'initials': 'WL', 'last_name': 'Matochko', 'id': 786}, 'first_author': True, 'id': 1116}, {'author': {'first_name': 'Abin', 'initials': 'A', 'last_name': 'James', 'id': 787}, 'first_author': False, 'id': 1117}, {'author': {'first_name': 'Cheuk', 'initials': 'CW', 'last_name': 'Lam', 'id': 788}, 'first_author': False, 'id': 1118}, {'author': {'first_name': 'Daniel', 'initials': 'DJ', 'last_name': 'Kozera', 'id': 789}, 'first_author': False, 'id': 1119}, {'author': {'first_name': 'Robert', 'initials': 'RM', 'last_name': 'Gengan', 'id': 791}, 'first_author': False, 'id': 1120}, {'author': {'first_name': 'Athar', 'initials': 'A', 'last_name': 'Ata', 'id': 790}, 'first_author': None, 'id': 1389}], 'id': 368}]

>  <classifications>  (499) 
[{'classification': 'Alkaloid', 'id': 738}, {'classification': 'Terpenoid', 'id': 839}, {'classification': 'Triterpene', 'id': 842}, {'classification': 'Phenol lipids (Classyfire)', 'id': 951}]

>  <molecular_mass>  (499) 
383.61

$$$$
SANC00604_minRM1.pdb
     RDKit          3D

 76 79  0  0  1  0  0  0  0  0999 V2000
   -3.2790   -0.6780   -1.2370 H   0  0  0  0  0  0  0  0  0  0  0  0
   -3.2890   -0.4270   -0.1400 C   0  0  2  0  0  0  0  0  0  0  0  0
   -2.2410   -1.2730    0.5850 C   0  0  0  0  0  0  0  0  0  0  0  0
   -0.9340   -1.3340   -0.1930 C   0  0  0  0  0  0  0  0  0  0  0  0
    0.0540   -0.2800    0.3010 C   0  0  2  0  0  0  0  0  0  0  0  0
    0.0710   -0.3160    1.4240 H   0  0  0  0  0  0  0  0  0  0  0  0
   -0.3630    1.1020   -0.0910 C   0  0  0  0  0  0  0  0  0  0  0  0
    0.5340    2.0170   -0.5100 C   0  0  0  0  0  0  0  0  0  0  0  0
    2.0020    1.8050   -0.6390 C   0  0  0  0  0  0  0  0  0  0  0  0
    2.4200    0.5780    0.1570 C   0  0  2  0  0  0  0  0  0  0  0  0
    2.3490    0.9380    1.6400 C   0  0  0  0  0  0  0  0  0  0  0  0
    3.7910   -0.0320   -0.1870 C   0  0  1  0  0  0  0  0  0  0  0  0
    3.8770   -0.0890   -1.3060 H   0  0  0  0  0  0  0  0  0  0  0  0
    5.0130    0.7150    0.3680 C   0  0  2  0  0  0  0  0  0  0  0  0
    4.8530    0.9190    1.4650 H   0  0  0  0  0  0  0  0  0  0  0  0
    5.1730    2.0570   -0.3490 C   0  0  0  0  0  0  0  0  0  0  0  0
    6.2020   -0.1870    0.2640 N   0  0  0  0  0  0  0  0  0  0  0  0
    6.7160   -0.3180   -1.1210 C   0  0  0  0  0  0  0  0  0  0  0  0
    7.2970    0.2430    1.1700 C   0  0  0  0  0  0  0  0  0  0  0  0
    3.6620   -1.4710    0.3850 C   0  0  2  0  0  0  0  0  0  0  0  0
    4.0800   -1.5280    1.4240 H   0  0  0  0  0  0  0  0  0  0  0  0
    4.2870   -2.3760   -0.4730 O   0  0  0  0  0  0  0  0  0  0  0  0
    2.1480   -1.8040    0.3940 C   0  0  0  0  0  0  0  0  0  0  0  0
    1.4640   -0.5800   -0.2280 C   0  0  1  0  0  0  0  0  0  0  0  0
    1.4210   -0.7660   -1.7480 C   0  0  0  0  0  0  0  0  0  0  0  0
   -1.7370    1.5800    0.0290 C   0  0  0  0  0  0  0  0  0  0  0  0
   -2.9550    1.0230   -0.0510 C   0  0  0  0  0  0  0  0  0  0  0  0
   -4.0750    2.0050   -0.2600 C   0  0  0  0  0  0  0  0  0  0  0  0
   -5.4540    1.5790    0.2110 C   0  0  0  0  0  0  0  0  0  0  0  0
   -5.7290    0.1480   -0.2560 C   0  0  2  0  0  0  0  0  0  0  0  0
   -5.5700    0.0980   -1.3730 H   0  0  0  0  0  0  0  0  0  0  0  0
   -7.1290   -0.1890    0.1080 N   0  0  0  0  0  0  0  0  0  0  0  0
   -8.0760    0.0810   -0.9810 C   0  0  0  0  0  0  0  0  0  0  0  0
   -4.6940   -0.7910    0.4020 C   0  0  1  0  0  0  0  0  0  0  0  0
   -5.0150   -2.2330   -0.0090 C   0  0  0  0  0  0  0  0  0  0  0  0
   -4.7390   -0.6930    1.9250 C   0  0  0  0  0  0  0  0  0  0  0  0
   -2.0780   -0.9000    1.6170 H   0  0  0  0  0  0  0  0  0  0  0  0
   -2.6220   -2.3110    0.7290 H   0  0  0  0  0  0  0  0  0  0  0  0
   -0.4850   -2.3450   -0.0780 H   0  0  0  0  0  0  0  0  0  0  0  0
   -1.1180   -1.2390   -1.2830 H   0  0  0  0  0  0  0  0  0  0  0  0
    0.2160    3.0290   -0.7940 H   0  0  0  0  0  0  0  0  0  0  0  0
    2.2860    1.7310   -1.7130 H   0  0  0  0  0  0  0  0  0  0  0  0
    2.5580    2.7100   -0.2910 H   0  0  0  0  0  0  0  0  0  0  0  0
    1.4000    1.4230    1.9210 H   0  0  0  0  0  0  0  0  0  0  0  0
    2.4700    0.0800    2.3150 H   0  0  0  0  0  0  0  0  0  0  0  0
    3.1360    1.6590    1.9210 H   0  0  0  0  0  0  0  0  0  0  0  0
    5.2470    1.9620   -1.4430 H   0  0  0  0  0  0  0  0  0  0  0  0
    4.3080    2.7180   -0.1590 H   0  0  0  0  0  0  0  0  0  0  0  0
    6.0640    2.6120   -0.0180 H   0  0  0  0  0  0  0  0  0  0  0  0
    7.2180    0.5710   -1.5430 H   0  0  0  0  0  0  0  0  0  0  0  0
    7.4540   -1.1390   -1.1590 H   0  0  0  0  0  0  0  0  0  0  0  0
    5.9110   -0.5970   -1.8170 H   0  0  0  0  0  0  0  0  0  0  0  0
    6.9490    0.2590    2.2170 H   0  0  0  0  0  0  0  0  0  0  0  0
    8.1250   -0.4860    1.1270 H   0  0  0  0  0  0  0  0  0  0  0  0
    7.7420    1.2360    0.9670 H   0  0  0  0  0  0  0  0  0  0  0  0
    5.1570   -2.5610   -0.1080 H   0  0  0  0  0  0  0  0  0  0  0  0
    1.9250   -2.7480   -0.1430 H   0  0  0  0  0  0  0  0  0  0  0  0
    1.7930   -2.0030    1.4240 H   0  0  0  0  0  0  0  0  0  0  0  0
    1.0180   -1.7470   -2.0440 H   0  0  0  0  0  0  0  0  0  0  0  0
    0.8040   -0.0160   -2.2610 H   0  0  0  0  0  0  0  0  0  0  0  0
    2.4240   -0.7210   -2.2040 H   0  0  0  0  0  0  0  0  0  0  0  0
   -1.7460    2.6810    0.1460 H   0  0  0  0  0  0  0  0  0  0  0  0
   -3.8400    2.9920    0.1990 H   0  0  0  0  0  0  0  0  0  0  0  0
   -4.1040    2.2160   -1.3540 H   0  0  0  0  0  0  0  0  0  0  0  0
   -5.5630    1.6860    1.3090 H   0  0  0  0  0  0  0  0  0  0  0  0
   -6.2180    2.2830   -0.1950 H   0  0  0  0  0  0  0  0  0  0  0  0
   -7.2160   -1.1690    0.4070 H   0  0  0  0  0  0  0  0  0  0  0  0
   -8.0250    1.1390   -1.3040 H   0  0  0  0  0  0  0  0  0  0  0  0
   -7.9510   -0.5210   -1.9030 H   0  0  0  0  0  0  0  0  0  0  0  0
   -9.1050   -0.0970   -0.6240 H   0  0  0  0  0  0  0  0  0  0  0  0
   -5.0930   -2.3540   -1.0960 H   0  0  0  0  0  0  0  0  0  0  0  0
   -4.2410   -2.9420    0.3310 H   0  0  0  0  0  0  0  0  0  0  0  0
   -5.9640   -2.5880    0.4230 H   0  0  0  0  0  0  0  0  0  0  0  0
   -5.7610   -0.6390    2.3260 H   0  0  0  0  0  0  0  0  0  0  0  0
   -4.2800   -1.5640    2.4190 H   0  0  0  0  0  0  0  0  0  0  0  0
   -4.2040    0.1880    2.3100 H   0  0  0  0  0  0  0  0  0  0  0  0
  2  1  1  6
  2 27  1  0
  2 34  1  0
  2  3  1  0
  3  4  1  0
  3 38  1  0
  3 37  1  0
  4 40  1  0
  4 39  1  0
  4  5  1  0
  5 24  1  0
  5  7  1  0
  5  6  1  1
  7  8  2  0
  7 26  1  0
  8 41  1  0
  8  9  1  0
  9 42  1  0
  9 43  1  0
  9 10  1  0
 10 24  1  0
 10 12  1  0
 10 11  1  1
 11 44  1  0
 11 46  1  0
 11 45  1  0
 12 13  1  6
 12 14  1  0
 12 20  1  0
 14 16  1  0
 14 17  1  0
 14 15  1  1
 16 47  1  0
 16 48  1  0
 16 49  1  0
 17 18  1  0
 17 19  1  0
 18 52  1  0
 18 50  1  0
 18 51  1  0
 19 55  1  0
 19 54  1  0
 19 53  1  0
 20 22  1  0
 20 23  1  0
 20 21  1  1
 22 56  1  0
 23 24  1  0
 23 57  1  0
 23 58  1  0
 24 25  1  6
 25 60  1  0
 25 61  1  0
 25 59  1  0
 26 27  2  0
 26 62  1  0
 27 28  1  0
 28 64  1  0
 28 63  1  0
 28 29  1  0
 29 30  1  0
 29 66  1  0
 29 65  1  0
 30 31  1  6
 30 32  1  0
 30 34  1  0
 32 33  1  0
 32 67  1  0
 33 69  1  0
 33 68  1  0
 33 70  1  0
 34 35  1  1
 34 36  1  0
 35 71  1  0
 35 72  1  0
 35 73  1  0
 36 76  1  0
 36 74  1  0
 36 75  1  0
M  END
>  <id>  (500) 
604

>  <scaffolds>  (500) 
['C1=CCCCC1', 'C1=C2CCCCC2CCC2C1=CCC1CCCC12', 'C1CCCCC1']

>  <name>  (500) 
Buxaminol C

>  <formula>  (500) 
C27H46N2O

>  <SMILES>  (500) 
[H][C@@]34CC[C@]1([H])C(=CC[C@]2(C)[C@@]([H])([C@H](C)N(C)C)[C@H](O)C[C@@]12C)C=C3CC[C@H](NC)C4(C)C

>  <ChEMBL_id>  (500) 
CHEMBL1651038

>  <ZINC_id>  (500) 


>  <PubChem_id>  (500) 
 10811757

>  <DrugBank_id>  (500) 


>  <CAS_no>  (500) 
191288-32-1

>  <references>  (500) 
[{'journal': {'name': 'Journal of Natural Products', 'id': 5}, 'title': 'Triterpenoidal Alkaloids from Buxus natalensis and Their Acetylcholinesterase Inhibitory Activity', 'year': 2010, 'start_page': 1858, 'volume': 73, 'issue': None, 'doi': '10.1021/np100494u', 'isbn': '', 'despositor': {'code': 'NFA', 'first_name': 'Ngonidzashe', 'last_name': 'Faya', 'id': 21}, 'refauthors_set': [{'author': {'first_name': 'Wadim', 'initials': 'WL', 'last_name': 'Matochko', 'id': 786}, 'first_author': True, 'id': 1116}, {'author': {'first_name': 'Abin', 'initials': 'A', 'last_name': 'James', 'id': 787}, 'first_author': False, 'id': 1117}, {'author': {'first_name': 'Cheuk', 'initials': 'CW', 'last_name': 'Lam', 'id': 788}, 'first_author': False, 'id': 1118}, {'author': {'first_name': 'Daniel', 'initials': 'DJ', 'last_name': 'Kozera', 'id': 789}, 'first_author': False, 'id': 1119}, {'author': {'first_name': 'Robert', 'initials': 'RM', 'last_name': 'Gengan', 'id': 791}, 'first_author': False, 'id': 1120}, {'author': {'first_name': 'Athar', 'initials': 'A', 'last_name': 'Ata', 'id': 790}, 'first_author': None, 'id': 1389}], 'id': 368}]

>  <classifications>  (500) 
[{'classification': 'Alkaloid', 'id': 738}, {'classification': 'Terpenoid', 'id': 839}, {'classification': 'Triterpene', 'id': 842}, {'classification': 'Steroids and steroid derivatives (Classyfire)', 'id': 942}]

>  <molecular_mass>  (500) 
414.67

$$$$
SANC00605_minRM1.pdb
     RDKit          3D

 27 27  0  0  0  0  0  0  0  0999 V2000
   -4.5670    0.0920   -0.0710 C   0  0  0  0  0  0  0  0  0  0  0  0
   -3.1880    0.3860   -0.0720 O   0  0  0  0  0  0  0  0  0  0  0  0
   -2.3310   -0.6620    0.0730 C   0  0  0  0  0  0  0  0  0  0  0  0
   -2.7800   -1.7940    0.1880 O   0  0  0  0  0  0  0  0  0  0  0  0
   -0.9090   -0.2780    0.0670 C   0  0  0  0  0  0  0  0  0  0  0  0
   -0.5150    1.0550    0.1420 C   0  0  0  0  0  0  0  0  0  0  0  0
    0.8440    1.3560    0.1440 C   0  0  0  0  0  0  0  0  0  0  0  0
    1.3790    2.6040    0.2590 O   0  0  0  0  0  0  0  0  0  0  0  0
    0.5200    3.6840   -0.0170 C   0  0  0  0  0  0  0  0  0  0  0  0
    1.8050    0.3330    0.0670 C   0  0  0  0  0  0  0  0  0  0  0  0
    3.0990    0.7200   -0.0050 O   0  0  0  0  0  0  0  0  0  0  0  0
    1.3770   -1.0020   -0.0070 C   0  0  0  0  0  0  0  0  0  0  0  0
    2.4020   -1.9020   -0.0820 O   0  0  0  0  0  0  0  0  0  0  0  0
    2.0620   -3.2660   -0.0120 C   0  0  0  0  0  0  0  0  0  0  0  0
    0.0210   -1.3140   -0.0050 C   0  0  0  0  0  0  0  0  0  0  0  0
   -5.0460    1.0790   -0.1780 H   0  0  0  0  0  0  0  0  0  0  0  0
   -4.8610   -0.5550   -0.9150 H   0  0  0  0  0  0  0  0  0  0  0  0
   -4.9030   -0.3810    0.8690 H   0  0  0  0  0  0  0  0  0  0  0  0
   -1.2670    1.8470    0.2070 H   0  0  0  0  0  0  0  0  0  0  0  0
    1.2010    4.5480   -0.0520 H   0  0  0  0  0  0  0  0  0  0  0  0
   -0.0040    3.6060   -0.9840 H   0  0  0  0  0  0  0  0  0  0  0  0
   -0.2200    3.8540    0.7830 H   0  0  0  0  0  0  0  0  0  0  0  0
    3.6400    0.0560    0.4430 H   0  0  0  0  0  0  0  0  0  0  0  0
    3.0420   -3.7700   -0.0160 H   0  0  0  0  0  0  0  0  0  0  0  0
    1.5250   -3.5410    0.9120 H   0  0  0  0  0  0  0  0  0  0  0  0
    1.4850   -3.6100   -0.8870 H   0  0  0  0  0  0  0  0  0  0  0  0
   -0.3300   -2.3490   -0.0640 H   0  0  0  0  0  0  0  0  0  0  0  0
  1 17  1  0
  1 16  1  0
  1  2  1  0
  1 18  1  0
  2  3  1  0
  3  5  1  0
  3  4  2  0
  5 15  2  0
  5  6  1  0
  6  7  2  0
  6 19  1  0
  7 10  1  0
  7  8  1  0
  8  9  1  0
  9 21  1  0
  9 20  1  0
  9 22  1  0
 10 12  2  0
 10 11  1  0
 11 23  1  0
 12 13  1  0
 12 15  1  0
 13 14  1  0
 14 26  1  0
 14 24  1  0
 14 25  1  0
 15 27  1  0
M  END
>  <id>  (501) 
605

>  <scaffolds>  (501) 
['c1ccccc1']

>  <name>  (501) 
Methyl syringate

>  <formula>  (501) 
C10H12O5

>  <SMILES>  (501) 
COC(=O)c1cc(OC)c(O)c(OC)c1

>  <ChEMBL_id>  (501) 
CHEMBL1236122

>  <ZINC_id>  (501) 
ZINC00394334

>  <PubChem_id>  (501) 
 70164

>  <DrugBank_id>  (501) 
DB08589

>  <CAS_no>  (501) 
884-35-5

>  <references>  (501) 
[{'journal': {'name': 'Journal of Natural Products', 'id': 5}, 'title': 'Triterpenoidal Alkaloids from Buxus natalensis and Their Acetylcholinesterase Inhibitory Activity', 'year': 2010, 'start_page': 1858, 'volume': 73, 'issue': None, 'doi': '10.1021/np100494u', 'isbn': '', 'despositor': {'code': 'NFA', 'first_name': 'Ngonidzashe', 'last_name': 'Faya', 'id': 21}, 'refauthors_set': [{'author': {'first_name': 'Wadim', 'initials': 'WL', 'last_name': 'Matochko', 'id': 786}, 'first_author': True, 'id': 1116}, {'author': {'first_name': 'Abin', 'initials': 'A', 'last_name': 'James', 'id': 787}, 'first_author': False, 'id': 1117}, {'author': {'first_name': 'Cheuk', 'initials': 'CW', 'last_name': 'Lam', 'id': 788}, 'first_author': False, 'id': 1118}, {'author': {'first_name': 'Daniel', 'initials': 'DJ', 'last_name': 'Kozera', 'id': 789}, 'first_author': False, 'id': 1119}, {'author': {'first_name': 'Robert', 'initials': 'RM', 'last_name': 'Gengan', 'id': 791}, 'first_author': False, 'id': 1120}, {'author': {'first_name': 'Athar', 'initials': 'A', 'last_name': 'Ata', 'id': 790}, 'first_author': None, 'id': 1389}], 'id': 368}]

>  <classifications>  (501) 
[{'classification': 'Alkaloid', 'id': 738}, {'classification': 'Terpenoid', 'id': 839}, {'classification': 'Triterpene', 'id': 842}, {'classification': 'Benzene and substituted derivatives (Classyfire)', 'id': 961}]

>  <molecular_mass>  (501) 
212.2

$$$$
SANC00606_minRM1.pdb
     RDKit          3D

 35 35  0  0  0  0  0  0  0  0999 V2000
   -8.1050    0.5280    0.0540 N   0  0  0  0  0  0  0  0  0  0  0  0
   -6.7670    1.1150   -0.0290 C   0  0  0  0  0  0  0  0  0  0  0  0
   -5.7140   -0.0050   -0.0120 C   0  0  0  0  0  0  0  0  0  0  0  0
   -4.3100    0.5950   -0.0070 C   0  0  0  0  0  0  0  0  0  0  0  0
   -3.2680   -0.5300    0.0050 C   0  0  0  0  0  0  0  0  0  0  0  0
   -1.9090    0.0240    0.0020 N   0  0  0  0  0  0  0  0  0  0  0  0
   -0.8110   -0.8250   -0.0140 C   0  0  0  0  0  0  0  0  0  0  0  0
   -0.9710   -2.0470   -0.0330 O   0  0  0  0  0  0  0  0  0  0  0  0
    0.5240   -0.1870   -0.0120 C   0  0  0  0  0  0  0  0  0  0  0  0
    1.6250   -0.9480   -0.0220 C   0  0  0  0  0  0  0  0  0  0  0  0
    2.9740   -0.4010   -0.0080 C   0  0  0  0  0  0  0  0  0  0  0  0
    3.2030    0.9730    0.0240 C   0  0  0  0  0  0  0  0  0  0  0  0
    4.4960    1.4760    0.0760 C   0  0  0  0  0  0  0  0  0  0  0  0
    5.5650    0.5810    0.0920 C   0  0  0  0  0  0  0  0  0  0  0  0
    6.8590    0.9800    0.1240 O   0  0  0  0  0  0  0  0  0  0  0  0
    5.3600   -0.8020    0.0300 C   0  0  0  0  0  0  0  0  0  0  0  0
    4.0630   -1.2810   -0.0180 C   0  0  0  0  0  0  0  0  0  0  0  0
   -8.8380    1.2200    0.1420 H   0  0  0  0  0  0  0  0  0  0  0  0
   -8.3140   -0.1030   -0.7110 H   0  0  0  0  0  0  0  0  0  0  0  0
   -6.6060    1.7730   -0.9210 H   0  0  0  0  0  0  0  0  0  0  0  0
   -6.6270    1.7930    0.8470 H   0  0  0  0  0  0  0  0  0  0  0  0
   -5.8630   -0.6610    0.8720 H   0  0  0  0  0  0  0  0  0  0  0  0
   -5.8480   -0.6750   -0.8870 H   0  0  0  0  0  0  0  0  0  0  0  0
   -4.1670    1.2520   -0.8910 H   0  0  0  0  0  0  0  0  0  0  0  0
   -4.1780    1.2600    0.8730 H   0  0  0  0  0  0  0  0  0  0  0  0
   -3.4090   -1.1870    0.8970 H   0  0  0  0  0  0  0  0  0  0  0  0
   -3.4060   -1.2080   -0.8730 H   0  0  0  0  0  0  0  0  0  0  0  0
   -1.7940    1.0270    0.0240 H   0  0  0  0  0  0  0  0  0  0  0  0
    0.5800    0.9070    0.0020 H   0  0  0  0  0  0  0  0  0  0  0  0
    1.5450   -2.0450   -0.0380 H   0  0  0  0  0  0  0  0  0  0  0  0
    2.3590    1.6720    0.0100 H   0  0  0  0  0  0  0  0  0  0  0  0
    4.6620    2.5560    0.1010 H   0  0  0  0  0  0  0  0  0  0  0  0
    6.9000    1.8860    0.4650 H   0  0  0  0  0  0  0  0  0  0  0  0
    6.2140   -1.4860    0.0230 H   0  0  0  0  0  0  0  0  0  0  0  0
    3.8960   -2.3630   -0.0530 H   0  0  0  0  0  0  0  0  0  0  0  0
  1 19  1  0
  1  2  1  0
  1 18  1  0
  2 20  1  0
  2  3  1  0
  2 21  1  0
  3 23  1  0
  3  4  1  0
  3 22  1  0
  4 24  1  0
  4  5  1  0
  4 25  1  0
  5 27  1  0
  5  6  1  0
  5 26  1  0
  6  7  1  0
  6 28  1  0
  7  8  2  0
  7  9  1  0
  9 10  2  0
  9 29  1  0
 10 30  1  0
 10 11  1  0
 11 17  2  0
 11 12  1  0
 12 31  1  0
 12 13  2  0
 13 14  1  0
 13 32  1  0
 14 16  2  0
 14 15  1  0
 15 33  1  0
 16 17  1  0
 16 34  1  0
 17 35  1  0
M  END
>  <id>  (502) 
606

>  <scaffolds>  (502) 
['c1ccccc1']

>  <name>  (502) 
p-Coumaroylputrescine

>  <formula>  (502) 
C13H18N2O2

>  <SMILES>  (502) 
NCCCCNC(=O)/C=C/c1ccc(O)cc1

>  <ChEMBL_id>  (502) 
CHEMBL373847

>  <ZINC_id>  (502) 


>  <PubChem_id>  (502) 
 6439562

>  <DrugBank_id>  (502) 


>  <CAS_no>  (502) 
34136-53-3

>  <references>  (502) 
[{'journal': {'name': 'Journal of Natural Products', 'id': 5}, 'title': 'Triterpenoidal Alkaloids from Buxus natalensis and Their Acetylcholinesterase Inhibitory Activity', 'year': 2010, 'start_page': 1858, 'volume': 73, 'issue': None, 'doi': '10.1021/np100494u', 'isbn': '', 'despositor': {'code': 'NFA', 'first_name': 'Ngonidzashe', 'last_name': 'Faya', 'id': 21}, 'refauthors_set': [{'author': {'first_name': 'Wadim', 'initials': 'WL', 'last_name': 'Matochko', 'id': 786}, 'first_author': True, 'id': 1116}, {'author': {'first_name': 'Abin', 'initials': 'A', 'last_name': 'James', 'id': 787}, 'first_author': False, 'id': 1117}, {'author': {'first_name': 'Cheuk', 'initials': 'CW', 'last_name': 'Lam', 'id': 788}, 'first_author': False, 'id': 1118}, {'author': {'first_name': 'Daniel', 'initials': 'DJ', 'last_name': 'Kozera', 'id': 789}, 'first_author': False, 'id': 1119}, {'author': {'first_name': 'Robert', 'initials': 'RM', 'last_name': 'Gengan', 'id': 791}, 'first_author': False, 'id': 1120}, {'author': {'first_name': 'Athar', 'initials': 'A', 'last_name': 'Ata', 'id': 790}, 'first_author': None, 'id': 1389}], 'id': 368}]

>  <classifications>  (502) 
[{'classification': 'Alkaloid', 'id': 738}, {'classification': 'Terpenoid', 'id': 839}, {'classification': 'Triterpene', 'id': 842}, {'classification': 'Cinnamic acids and derivatives (Classyfire)', 'id': 975}]

>  <molecular_mass>  (502) 
234.29

$$$$
SANC00607_minRM1.pdb
     RDKit          3D

 76 79  0  0  1  0  0  0  0  0999 V2000
   -3.3590   -0.9350   -1.4230 H   0  0  0  0  0  0  0  0  0  0  0  0
   -3.2090   -0.5680   -0.3680 C   0  0  2  0  0  0  0  0  0  0  0  0
   -2.1120   -1.4060    0.2760 C   0  0  0  0  0  0  0  0  0  0  0  0
   -0.8180   -1.3350   -0.5240 C   0  0  0  0  0  0  0  0  0  0  0  0
    0.1220   -0.3060    0.0960 C   0  0  2  0  0  0  0  0  0  0  0  0
    0.0710   -0.4040    1.2150 H   0  0  0  0  0  0  0  0  0  0  0  0
   -0.2920    1.0920   -0.2390 C   0  0  0  0  0  0  0  0  0  0  0  0
    0.6290    2.0570   -0.4360 C   0  0  0  0  0  0  0  0  0  0  0  0
    2.1060    1.8750   -0.4270 C   0  0  0  0  0  0  0  0  0  0  0  0
    2.4890    0.5580    0.2370 C   0  0  2  0  0  0  0  0  0  0  0  0
    2.3040    0.7100    1.7460 C   0  0  0  0  0  0  0  0  0  0  0  0
    3.8900    0.0070   -0.0970 C   0  0  1  0  0  0  0  0  0  0  0  0
    4.0730    0.1370   -1.2000 H   0  0  0  0  0  0  0  0  0  0  0  0
    5.0900    0.6410    0.6440 C   0  0  2  0  0  0  0  0  0  0  0  0
    4.9700    0.5240    1.7590 H   0  0  0  0  0  0  0  0  0  0  0  0
    5.1410    2.1420    0.3540 C   0  0  0  0  0  0  0  0  0  0  0  0
    6.2930   -0.1140    0.1530 N   0  0  0  0  0  0  0  0  0  0  0  0
    7.4140    0.6980   -0.3520 C   0  0  0  0  0  0  0  0  0  0  0  0
    6.7870   -1.0850    1.1610 C   0  0  0  0  0  0  0  0  0  0  0  0
    3.7340   -1.5060    0.2200 C   0  0  2  0  0  0  0  0  0  0  0  0
    4.1560   -1.7520    1.2350 H   0  0  0  0  0  0  0  0  0  0  0  0
    4.3990   -2.2060   -0.7880 O   0  0  0  0  0  0  0  0  0  0  0  0
    2.2160   -1.8260    0.1810 C   0  0  0  0  0  0  0  0  0  0  0  0
    1.5690   -0.5450   -0.3540 C   0  0  1  0  0  0  0  0  0  0  0  0
    1.6350   -0.5630   -1.8820 C   0  0  0  0  0  0  0  0  0  0  0  0
   -1.6870    1.5030   -0.3670 C   0  0  0  0  0  0  0  0  0  0  0  0
   -2.8660    0.8770   -0.4750 C   0  0  0  0  0  0  0  0  0  0  0  0
   -4.0170    1.7300   -0.9380 C   0  0  0  0  0  0  0  0  0  0  0  0
   -5.3290    1.4680   -0.2130 C   0  0  0  0  0  0  0  0  0  0  0  0
   -5.6640   -0.0240   -0.2900 C   0  0  2  0  0  0  0  0  0  0  0  0
   -5.7020   -0.3270   -1.3780 H   0  0  0  0  0  0  0  0  0  0  0  0
   -6.9690   -0.3170    0.3950 N   0  0  0  0  0  0  0  0  0  0  0  0
   -8.0710    0.5050   -0.1650 C   0  0  0  0  0  0  0  0  0  0  0  0
   -7.3150   -1.7560    0.2570 C   0  0  0  0  0  0  0  0  0  0  0  0
   -4.5260   -0.7990    0.4030 C   0  0  2  0  0  0  0  0  0  0  0  0
   -4.7680   -1.8970    0.3470 H   0  0  0  0  0  0  0  0  0  0  0  0
   -4.3950   -0.4220    1.8730 C   0  0  0  0  0  0  0  0  0  0  0  0
   -1.9390   -1.0970    1.3280 H   0  0  0  0  0  0  0  0  0  0  0  0
   -2.4480   -2.4620    0.3590 H   0  0  0  0  0  0  0  0  0  0  0  0
   -0.3390   -2.3370   -0.5370 H   0  0  0  0  0  0  0  0  0  0  0  0
   -1.0100   -1.1100   -1.5940 H   0  0  0  0  0  0  0  0  0  0  0  0
    0.3220    3.0880   -0.6570 H   0  0  0  0  0  0  0  0  0  0  0  0
    2.4900    1.9420   -1.4690 H   0  0  0  0  0  0  0  0  0  0  0  0
    2.5930    2.7390    0.0900 H   0  0  0  0  0  0  0  0  0  0  0  0
    1.2730    0.9850    2.0200 H   0  0  0  0  0  0  0  0  0  0  0  0
    2.5400   -0.2010    2.3120 H   0  0  0  0  0  0  0  0  0  0  0  0
    2.9310    1.5040    2.1760 H   0  0  0  0  0  0  0  0  0  0  0  0
    5.1710    2.3770   -0.7190 H   0  0  0  0  0  0  0  0  0  0  0  0
    4.2520    2.6650    0.7450 H   0  0  0  0  0  0  0  0  0  0  0  0
    5.9990    2.6390    0.8250 H   0  0  0  0  0  0  0  0  0  0  0  0
    7.9200    1.3610    0.3840 H   0  0  0  0  0  0  0  0  0  0  0  0
    8.1970    0.0310   -0.7570 H   0  0  0  0  0  0  0  0  0  0  0  0
    7.0950    1.3300   -1.1970 H   0  0  0  0  0  0  0  0  0  0  0  0
    7.4300   -1.8290    0.6560 H   0  0  0  0  0  0  0  0  0  0  0  0
    7.3810   -0.6650    2.0000 H   0  0  0  0  0  0  0  0  0  0  0  0
    5.9500   -1.6520    1.6120 H   0  0  0  0  0  0  0  0  0  0  0  0
    4.4870   -3.1160   -0.4910 H   0  0  0  0  0  0  0  0  0  0  0  0
    1.9930   -2.7170   -0.4380 H   0  0  0  0  0  0  0  0  0  0  0  0
    1.8300   -2.1030    1.1810 H   0  0  0  0  0  0  0  0  0  0  0  0
    1.2540   -1.5010   -2.3110 H   0  0  0  0  0  0  0  0  0  0  0  0
    1.0510    0.2410   -2.3520 H   0  0  0  0  0  0  0  0  0  0  0  0
    2.6670   -0.4690   -2.2600 H   0  0  0  0  0  0  0  0  0  0  0  0
   -1.7560    2.6060   -0.4570 H   0  0  0  0  0  0  0  0  0  0  0  0
   -3.7810    2.8120   -0.8700 H   0  0  0  0  0  0  0  0  0  0  0  0
   -4.1370    1.5520   -2.0280 H   0  0  0  0  0  0  0  0  0  0  0  0
   -5.2890    1.8220    0.8380 H   0  0  0  0  0  0  0  0  0  0  0  0
   -6.1300    2.0890   -0.6720 H   0  0  0  0  0  0  0  0  0  0  0  0
   -8.2520    0.3950   -1.2530 H   0  0  0  0  0  0  0  0  0  0  0  0
   -9.0200    0.2640    0.3450 H   0  0  0  0  0  0  0  0  0  0  0  0
   -7.8840    1.5760    0.0230 H   0  0  0  0  0  0  0  0  0  0  0  0
   -6.5020   -2.3900    0.6570 H   0  0  0  0  0  0  0  0  0  0  0  0
   -8.2150   -1.9830    0.8540 H   0  0  0  0  0  0  0  0  0  0  0  0
   -7.5140   -2.1100   -0.7730 H   0  0  0  0  0  0  0  0  0  0  0  0
   -5.3690   -0.3630    2.3840 H   0  0  0  0  0  0  0  0  0  0  0  0
   -3.8120   -1.1680    2.4370 H   0  0  0  0  0  0  0  0  0  0  0  0
   -3.8950    0.5450    2.0290 H   0  0  0  0  0  0  0  0  0  0  0  0
  2  1  1  6
  2 27  1  0
  2  3  1  0
  2 35  1  0
  3  4  1  0
  3 39  1  0
  3 38  1  0
  4 41  1  0
  4 40  1  0
  4  5  1  0
  5 24  1  0
  5  7  1  0
  5  6  1  1
  7  8  2  0
  7 26  1  0
  8 42  1  0
  8  9  1  0
  9 43  1  0
  9 44  1  0
  9 10  1  0
 10 24  1  0
 10 12  1  0
 10 11  1  1
 11 45  1  0
 11 47  1  0
 11 46  1  0
 12 13  1  6
 12 20  1  0
 12 14  1  0
 14 17  1  0
 14 16  1  0
 14 15  1  1
 16 48  1  0
 16 49  1  0
 16 50  1  0
 17 18  1  0
 17 19  1  0
 18 53  1  0
 18 52  1  0
 18 51  1  0
 19 54  1  0
 19 56  1  0
 19 55  1  0
 20 22  1  0
 20 23  1  0
 20 21  1  1
 22 57  1  0
 23 58  1  0
 23 24  1  0
 23 59  1  0
 24 25  1  6
 25 61  1  0
 25 60  1  0
 25 62  1  0
 26 27  2  0
 26 63  1  0
 27 28  1  0
 28 65  1  0
 28 64  1  0
 28 29  1  0
 29 67  1  0
 29 30  1  0
 29 66  1  0
 30 31  1  6
 30 32  1  0
 30 35  1  0
 32 33  1  0
 32 34  1  0
 33 68  1  0
 33 70  1  0
 33 69  1  0
 34 73  1  0
 34 71  1  0
 34 72  1  0
 35 36  1  1
 35 37  1  0
 37 76  1  0
 37 74  1  0
 37 75  1  0
M  END
>  <id>  (503) 
607

>  <scaffolds>  (503) 
['C1=CCCCC1', 'C1=C2CCCCC2CCC2C1=CCC1CCCC12', 'C1CCCCC1']

>  <name>  (503) 
31-Demethylbuxaminol A

>  <formula>  (503) 
C27H46N2O

>  <SMILES>  (503) 
[H][C@@]34CC[C@]1([H])C(=CC[C@]2(C)[C@@]([H])([C@H](C)N(C)C)[C@H](O)C[C@@]12C)C=C3CC[C@H](N(C)C)[C@@H]4C

>  <ChEMBL_id>  (503) 


>  <ZINC_id>  (503) 


>  <PubChem_id>  (503) 


>  <DrugBank_id>  (503) 


>  <CAS_no>  (503) 
1254703-02-0

>  <references>  (503) 
[{'journal': {'name': 'Journal of Natural Products', 'id': 5}, 'title': 'Triterpenoidal Alkaloids from Buxus natalensis and Their Acetylcholinesterase Inhibitory Activity', 'year': 2010, 'start_page': 1858, 'volume': 73, 'issue': None, 'doi': '10.1021/np100494u', 'isbn': '', 'despositor': {'code': 'NFA', 'first_name': 'Ngonidzashe', 'last_name': 'Faya', 'id': 21}, 'refauthors_set': [{'author': {'first_name': 'Wadim', 'initials': 'WL', 'last_name': 'Matochko', 'id': 786}, 'first_author': True, 'id': 1116}, {'author': {'first_name': 'Abin', 'initials': 'A', 'last_name': 'James', 'id': 787}, 'first_author': False, 'id': 1117}, {'author': {'first_name': 'Cheuk', 'initials': 'CW', 'last_name': 'Lam', 'id': 788}, 'first_author': False, 'id': 1118}, {'author': {'first_name': 'Daniel', 'initials': 'DJ', 'last_name': 'Kozera', 'id': 789}, 'first_author': False, 'id': 1119}, {'author': {'first_name': 'Robert', 'initials': 'RM', 'last_name': 'Gengan', 'id': 791}, 'first_author': False, 'id': 1120}, {'author': {'first_name': 'Athar', 'initials': 'A', 'last_name': 'Ata', 'id': 790}, 'first_author': None, 'id': 1389}], 'id': 368}]

>  <classifications>  (503) 
[{'classification': 'Alkaloid', 'id': 738}, {'classification': 'Terpenoid', 'id': 839}, {'classification': 'Triterpene', 'id': 842}, {'classification': 'Steroids and steroid derivatives (Classyfire)', 'id': 942}]

>  <molecular_mass>  (503) 
414.67

$$$$
SANC00608_minRM1.pdb
     RDKit          3D

 32 34  0  0  0  0  0  0  0  0999 V2000
   -1.2030   -2.9170    0.6240 C   0  0  0  0  0  0  0  0  0  0  0  0
   -0.9340   -1.5210    0.2510 N   0  0  0  0  0  0  0  0  0  0  0  0
   -2.0110   -0.6410    0.0390 C   0  0  0  0  0  0  0  0  0  0  0  0
   -3.3080   -1.1220   -0.2030 C   0  0  0  0  0  0  0  0  0  0  0  0
   -4.3470   -0.2260   -0.3850 C   0  0  0  0  0  0  0  0  0  0  0  0
   -4.1210    1.1470   -0.3370 C   0  0  0  0  0  0  0  0  0  0  0  0
   -2.8420    1.6290   -0.1180 C   0  0  0  0  0  0  0  0  0  0  0  0
   -1.7810    0.7420    0.0630 C   0  0  0  0  0  0  0  0  0  0  0  0
   -0.4240    1.2620    0.2870 C   0  0  0  0  0  0  0  0  0  0  0  0
   -0.2270    2.4190    0.6320 O   0  0  0  0  0  0  0  0  0  0  0  0
    0.6530    0.2970    0.0650 C   0  0  0  0  0  0  0  0  0  0  0  0
    0.3810   -1.0830    0.0610 C   0  0  0  0  0  0  0  0  0  0  0  0
    1.4170   -2.0130   -0.1210 C   0  0  0  0  0  0  0  0  0  0  0  0
    2.7120   -1.5330   -0.2770 C   0  0  0  0  0  0  0  0  0  0  0  0
    3.0280   -0.1700   -0.2830 C   0  0  0  0  0  0  0  0  0  0  0  0
    1.9800    0.7280   -0.1120 C   0  0  0  0  0  0  0  0  0  0  0  0
    2.1260    2.0730   -0.1200 O   0  0  0  0  0  0  0  0  0  0  0  0
    3.4330    2.6020   -0.1300 C   0  0  0  0  0  0  0  0  0  0  0  0
    3.6630   -2.4850   -0.4210 O   0  0  0  0  0  0  0  0  0  0  0  0
   -0.3860   -3.3410    1.2360 H   0  0  0  0  0  0  0  0  0  0  0  0
   -2.1130   -3.0030    1.2460 H   0  0  0  0  0  0  0  0  0  0  0  0
   -1.3340   -3.5660   -0.2600 H   0  0  0  0  0  0  0  0  0  0  0  0
   -3.5200   -2.1920   -0.2840 H   0  0  0  0  0  0  0  0  0  0  0  0
   -5.3580   -0.6020   -0.5660 H   0  0  0  0  0  0  0  0  0  0  0  0
   -4.9520    1.8430   -0.4850 H   0  0  0  0  0  0  0  0  0  0  0  0
   -2.6550    2.7080   -0.0860 H   0  0  0  0  0  0  0  0  0  0  0  0
    1.2430   -3.0900   -0.1610 H   0  0  0  0  0  0  0  0  0  0  0  0
    4.0600    0.1520   -0.4180 H   0  0  0  0  0  0  0  0  0  0  0  0
    4.0380    2.2750    0.7290 H   0  0  0  0  0  0  0  0  0  0  0  0
    3.9750    2.3930   -1.0650 H   0  0  0  0  0  0  0  0  0  0  0  0
    3.2620    3.6860   -0.0580 H   0  0  0  0  0  0  0  0  0  0  0  0
    4.5090   -2.0750   -0.6410 H   0  0  0  0  0  0  0  0  0  0  0  0
  1 22  1  0
  1  2  1  0
  1 20  1  0
  1 21  1  0
  2  3  1  0
  2 12  1  0
  3  4  2  0
  3  8  1  0
  4  5  1  0
  4 23  1  0
  5 24  1  0
  5  6  2  0
  6 25  1  0
  6  7  1  0
  7 26  1  0
  7  8  2  0
  8  9  1  0
  9 11  1  0
  9 10  2  0
 11 16  2  0
 11 12  1  0
 12 13  2  0
 13 14  1  0
 13 27  1  0
 14 19  1  0
 14 15  2  0
 15 28  1  0
 15 16  1  0
 16 17  1  0
 17 18  1  0
 18 30  1  0
 18 31  1  0
 18 29  1  0
 19 32  1  0
M  END
>  <id>  (504) 
608

>  <scaffolds>  (504) 
['c1ccccc1', 'O=c1c2ccccc2[nH]c2ccccc12']

>  <name>  (504) 
Tegerrardin A

>  <formula>  (504) 
C15H13NO3

>  <SMILES>  (504) 
CN1C2=CC=CC=C2C(=O)C3=C1C=C(C=C3OC)O

>  <ChEMBL_id>  (504) 


>  <ZINC_id>  (504) 


>  <PubChem_id>  (504) 


>  <DrugBank_id>  (504) 


>  <CAS_no>  (504) 
28333-06-4

>  <references>  (504) 
[{'journal': {'name': 'Phytochemistry', 'id': 10}, 'title': 'Acridone and furoquinoline alkaloids from Teclea gerrardii (Rutaceae: Toddalioideae) of southern Africa', 'year': 2007, 'start_page': 663, 'volume': 68, 'issue': 5, 'doi': '10.1016/j.phytochem.2006.10.011', 'isbn': '', 'despositor': {'code': 'TMM', 'first_name': 'Thommas', 'last_name': 'Musyoka', 'id': 22}, 'refauthors_set': [{'author': {'first_name': 'Alain', 'initials': 'AF', 'last_name': 'Kamdem Waffo', 'id': 794}, 'first_author': True, 'id': 1271}, {'author': {'first_name': '', 'initials': 'PH', 'last_name': 'Coombes', 'id': 795}, 'first_author': None, 'id': 1272}, {'author': {'first_name': 'Neil', 'initials': 'NR', 'last_name': 'Crouch', 'id': 524}, 'first_author': None, 'id': 1273}, {'author': {'first_name': 'Dulcie', 'initials': 'DA', 'last_name': 'Mulholland', 'id': 525}, 'first_author': None, 'id': 1274}, {'author': {'first_name': '', 'initials': 'SM', 'last_name': 'El Amin', 'id': 796}, 'first_author': None, 'id': 1275}, {'author': {'first_name': 'Peter', 'initials': 'PJ', 'last_name': 'Smith', 'id': 490}, 'first_author': None, 'id': 1276}], 'id': 369}]

>  <classifications>  (504) 
[{'classification': 'Alkaloid', 'id': 738}, {'classification': 'Terpenoid', 'id': 839}, {'classification': 'Triterpene', 'id': 842}, {'classification': 'Quinolines and derivatives (Classyfire)', 'id': 948}]

>  <molecular_mass>  (504) 
255.27

$$$$
SANC00609_minRM1.pdb
     RDKit          3D

 42 44  0  0  0  0  0  0  0  0999 V2000
    0.0930    1.8710   -0.3220 O   0  0  0  0  0  0  0  0  0  0  0  0
   -0.7450    1.0090   -0.1060 C   0  0  0  0  0  0  0  0  0  0  0  0
   -2.1760    1.3350   -0.0070 C   0  0  0  0  0  0  0  0  0  0  0  0
   -3.1410    0.3240   -0.1050 C   0  0  0  0  0  0  0  0  0  0  0  0
   -4.5040    0.6470    0.0140 C   0  0  0  0  0  0  0  0  0  0  0  0
   -4.8760    1.9660    0.2000 C   0  0  0  0  0  0  0  0  0  0  0  0
   -3.9190    2.9750    0.2890 C   0  0  0  0  0  0  0  0  0  0  0  0
   -2.5760    2.6570    0.1850 C   0  0  0  0  0  0  0  0  0  0  0  0
   -2.7270   -1.0040   -0.3170 N   0  0  0  0  0  0  0  0  0  0  0  0
   -1.4120   -1.3880   -0.0350 C   0  0  0  0  0  0  0  0  0  0  0  0
   -0.4140   -0.4030    0.0760 C   0  0  0  0  0  0  0  0  0  0  0  0
    0.9090   -0.8080    0.3390 C   0  0  0  0  0  0  0  0  0  0  0  0
    1.7980    0.2040    0.4720 O   0  0  0  0  0  0  0  0  0  0  0  0
    3.1690   -0.1220    0.2930 C   0  0  0  0  0  0  0  0  0  0  0  0
    3.8960    1.1830    0.2550 C   0  0  0  0  0  0  0  0  0  0  0  0
    5.1580    1.2620   -0.1770 C   0  0  0  0  0  0  0  0  0  0  0  0
    5.9150    0.0860   -0.6920 C   0  0  0  0  0  0  0  0  0  0  0  0
    5.8990    2.5530   -0.1780 C   0  0  0  0  0  0  0  0  0  0  0  0
    1.2470   -2.1490    0.4900 C   0  0  0  0  0  0  0  0  0  0  0  0
    0.2230   -3.0950    0.3790 C   0  0  0  0  0  0  0  0  0  0  0  0
    0.4530   -4.4210    0.5140 O   0  0  0  0  0  0  0  0  0  0  0  0
   -1.0980   -2.7480    0.1230 C   0  0  0  0  0  0  0  0  0  0  0  0
   -3.6920   -1.9910   -0.8230 C   0  0  0  0  0  0  0  0  0  0  0  0
   -5.2840   -0.1180   -0.0150 H   0  0  0  0  0  0  0  0  0  0  0  0
   -5.9380    2.2200    0.2880 H   0  0  0  0  0  0  0  0  0  0  0  0
   -4.2300    4.0120    0.4400 H   0  0  0  0  0  0  0  0  0  0  0  0
   -1.8180    3.4460    0.2540 H   0  0  0  0  0  0  0  0  0  0  0  0
    3.5450   -0.7350    1.1460 H   0  0  0  0  0  0  0  0  0  0  0  0
    3.3210   -0.7160   -0.6370 H   0  0  0  0  0  0  0  0  0  0  0  0
    3.3500    2.0620    0.6130 H   0  0  0  0  0  0  0  0  0  0  0  0
    5.5240   -0.2430   -1.6690 H   0  0  0  0  0  0  0  0  0  0  0  0
    6.9860    0.2910   -0.8370 H   0  0  0  0  0  0  0  0  0  0  0  0
    5.8660   -0.7810   -0.0130 H   0  0  0  0  0  0  0  0  0  0  0  0
    6.7320    2.5250    0.5430 H   0  0  0  0  0  0  0  0  0  0  0  0
    6.3420    2.7670   -1.1610 H   0  0  0  0  0  0  0  0  0  0  0  0
    5.2790    3.4200    0.0860 H   0  0  0  0  0  0  0  0  0  0  0  0
    2.2630   -2.4720    0.7180 H   0  0  0  0  0  0  0  0  0  0  0  0
    1.3750   -4.5680    0.7410 H   0  0  0  0  0  0  0  0  0  0  0  0
   -1.8530   -3.5360    0.0820 H   0  0  0  0  0  0  0  0  0  0  0  0
   -4.4200   -1.5300   -1.5190 H   0  0  0  0  0  0  0  0  0  0  0  0
   -3.1990   -2.7880   -1.4090 H   0  0  0  0  0  0  0  0  0  0  0  0
   -4.2600   -2.4760   -0.0080 H   0  0  0  0  0  0  0  0  0  0  0  0
  1  2  2  0
  2  3  1  0
  2 11  1  0
  3  4  2  0
  3  8  1  0
  4  9  1  0
  4  5  1  0
  5 24  1  0
  5  6  2  0
  6 25  1  0
  6  7  1  0
  7  8  2  0
  7 26  1  0
  8 27  1  0
  9 23  1  0
  9 10  1  0
 10 11  2  0
 10 22  1  0
 11 12  1  0
 12 13  1  0
 12 19  2  0
 13 14  1  0
 14 29  1  0
 14 15  1  0
 14 28  1  0
 15 16  2  0
 15 30  1  0
 16 17  1  0
 16 18  1  0
 17 31  1  0
 17 32  1  0
 17 33  1  0
 18 35  1  0
 18 36  1  0
 18 34  1  0
 19 20  1  0
 19 37  1  0
 20 22  2  0
 20 21  1  0
 21 38  1  0
 22 39  1  0
 23 40  1  0
 23 41  1  0
 23 42  1  0
M  END
>  <id>  (505) 
609

>  <scaffolds>  (505) 
['c1ccccc1', 'O=c1c2ccccc2[nH]c2ccccc12']

>  <name>  (505) 
Tegerrardin B

>  <formula>  (505) 
C19H19NO3

>  <SMILES>  (505) 
O=C2c1c(cccc1)N(c3c2c(OC\C=C(/C)C)cc(O)c3)C

>  <ChEMBL_id>  (505) 


>  <ZINC_id>  (505) 


>  <PubChem_id>  (505) 


>  <DrugBank_id>  (505) 


>  <CAS_no>  (505) 
934822-84-1

>  <references>  (505) 
[{'journal': {'name': 'Phytochemistry', 'id': 10}, 'title': 'Acridone and furoquinoline alkaloids from Teclea gerrardii (Rutaceae: Toddalioideae) of southern Africa', 'year': 2007, 'start_page': 663, 'volume': 68, 'issue': 5, 'doi': '10.1016/j.phytochem.2006.10.011', 'isbn': '', 'despositor': {'code': 'TMM', 'first_name': 'Thommas', 'last_name': 'Musyoka', 'id': 22}, 'refauthors_set': [{'author': {'first_name': 'Alain', 'initials': 'AF', 'last_name': 'Kamdem Waffo', 'id': 794}, 'first_author': True, 'id': 1271}, {'author': {'first_name': '', 'initials': 'PH', 'last_name': 'Coombes', 'id': 795}, 'first_author': None, 'id': 1272}, {'author': {'first_name': 'Neil', 'initials': 'NR', 'last_name': 'Crouch', 'id': 524}, 'first_author': None, 'id': 1273}, {'author': {'first_name': 'Dulcie', 'initials': 'DA', 'last_name': 'Mulholland', 'id': 525}, 'first_author': None, 'id': 1274}, {'author': {'first_name': '', 'initials': 'SM', 'last_name': 'El Amin', 'id': 796}, 'first_author': None, 'id': 1275}, {'author': {'first_name': 'Peter', 'initials': 'PJ', 'last_name': 'Smith', 'id': 490}, 'first_author': None, 'id': 1276}], 'id': 369}]

>  <classifications>  (505) 
[{'classification': 'Alkaloid', 'id': 738}, {'classification': 'Terpenoid', 'id': 839}, {'classification': 'Triterpene', 'id': 842}, {'classification': 'Quinolines and derivatives (Classyfire)', 'id': 948}]

>  <molecular_mass>  (505) 
309.36

$$$$
SANC00610_minRM1.pdb
     RDKit          3D

 33 34  0  0  0  0  0  0  0  0999 V2000
   -6.0660    1.6390    0.0040 C   0  0  0  0  0  0  0  0  0  0  0  0
   -5.5030    0.3530    0.0510 O   0  0  0  0  0  0  0  0  0  0  0  0
   -4.1410    0.2660    0.0450 C   0  0  0  0  0  0  0  0  0  0  0  0
   -3.2550    1.3350    0.0160 C   0  0  0  0  0  0  0  0  0  0  0  0
   -1.8870    1.0850    0.0040 C   0  0  0  0  0  0  0  0  0  0  0  0
   -1.3920   -0.2170    0.0240 C   0  0  0  0  0  0  0  0  0  0  0  0
    0.0410   -0.4810    0.0070 C   0  0  0  0  0  0  0  0  0  0  0  0
    0.9550    0.4980    0.0050 C   0  0  0  0  0  0  0  0  0  0  0  0
    2.3930    0.2680   -0.0200 C   0  0  0  0  0  0  0  0  0  0  0  0
    2.9290   -1.0170   -0.0630 C   0  0  0  0  0  0  0  0  0  0  0  0
    4.3160   -1.1740   -0.0820 C   0  0  0  0  0  0  0  0  0  0  0  0
    4.8900   -2.4080   -0.0490 O   0  0  0  0  0  0  0  0  0  0  0  0
    5.1880   -0.0880   -0.0610 C   0  0  0  0  0  0  0  0  0  0  0  0
    4.6170    1.1840   -0.0250 C   0  0  0  0  0  0  0  0  0  0  0  0
    5.3900    2.3030    0.0510 O   0  0  0  0  0  0  0  0  0  0  0  0
    3.2390    1.3790   -0.0020 C   0  0  0  0  0  0  0  0  0  0  0  0
   -2.2800   -1.2940    0.0700 C   0  0  0  0  0  0  0  0  0  0  0  0
   -3.6500   -1.0530    0.0890 C   0  0  0  0  0  0  0  0  0  0  0  0
   -4.4360   -2.1600    0.0880 O   0  0  0  0  0  0  0  0  0  0  0  0
   -5.8170    2.2560    0.8840 H   0  0  0  0  0  0  0  0  0  0  0  0
   -5.8070    2.1950   -0.9120 H   0  0  0  0  0  0  0  0  0  0  0  0
   -7.1500    1.4470    0.0040 H   0  0  0  0  0  0  0  0  0  0  0  0
   -3.5980    2.3720   -0.0070 H   0  0  0  0  0  0  0  0  0  0  0  0
   -1.1910    1.9320   -0.0180 H   0  0  0  0  0  0  0  0  0  0  0  0
    0.3430   -1.5360    0.0050 H   0  0  0  0  0  0  0  0  0  0  0  0
    0.6350    1.5500    0.0230 H   0  0  0  0  0  0  0  0  0  0  0  0
    2.2730   -1.8930   -0.0710 H   0  0  0  0  0  0  0  0  0  0  0  0
    4.4550   -2.9490   -0.7180 H   0  0  0  0  0  0  0  0  0  0  0  0
    6.2700   -0.2360   -0.0500 H   0  0  0  0  0  0  0  0  0  0  0  0
    6.0320    2.2470   -0.6650 H   0  0  0  0  0  0  0  0  0  0  0  0
    2.8390    2.3970    0.0430 H   0  0  0  0  0  0  0  0  0  0  0  0
   -1.9160   -2.3260    0.0920 H   0  0  0  0  0  0  0  0  0  0  0  0
   -5.3050   -1.9370    0.4370 H   0  0  0  0  0  0  0  0  0  0  0  0
  1 21  1  0
  1 22  1  0
  1  2  1  0
  1 20  1  0
  2  3  1  0
  3  4  2  0
  3 18  1  0
  4 23  1  0
  4  5  1  0
  5 24  1  0
  5  6  2  0
  6  7  1  0
  6 17  1  0
  7 25  1  0
  7  8  2  0
  8  9  1  0
  8 26  1  0
  9 10  2  0
  9 16  1  0
 10 11  1  0
 10 27  1  0
 11 13  2  0
 11 12  1  0
 12 28  1  0
 13 29  1  0
 13 14  1  0
 14 16  2  0
 14 15  1  0
 15 30  1  0
 16 31  1  0
 17 18  2  0
 17 32  1  0
 18 19  1  0
 19 33  1  0
M  END
>  <id>  (506) 
610

>  <scaffolds>  (506) 
['c1ccccc1', 'C(=Cc1ccccc1)c1ccccc1']

>  <name>  (506) 
Rhapontigenin

>  <formula>  (506) 
C15H14O4

>  <SMILES>  (506) 
COc2ccc(/C=C/c1cc(O)cc(O)c1)cc2O

>  <ChEMBL_id>  (506) 
CHEMBL113029

>  <ZINC_id>  (506) 
ZINC26981407

>  <PubChem_id>  (506) 
 5320954

>  <DrugBank_id>  (506) 


>  <CAS_no>  (506) 
500-65-2

>  <references>  (506) 
[{'journal': {'name': 'Phytochemistry', 'id': 10}, 'title': 'Homoisoflavanones and stilbenoids from Scilla nervosa', 'year': 1999, 'start_page': 947, 'volume': 51, 'issue': 7, 'doi': '10.1016/S0031-9422(99)00155-7', 'isbn': '', 'despositor': {'code': 'rah', 'first_name': 'Rowan', 'last_name': 'Hatherley', 'id': 20}, 'refauthors_set': [{'author': {'first_name': 'Vuyisile', 'initials': 'V', 'last_name': 'Bangani', 'id': 802}, 'first_author': True, 'id': 1283}, {'author': {'first_name': 'Neil', 'initials': 'NR', 'last_name': 'Crouch', 'id': 524}, 'first_author': None, 'id': 1284}, {'author': {'first_name': 'Dulcie', 'initials': 'DA', 'last_name': 'Mulholland', 'id': 525}, 'first_author': None, 'id': 1285}], 'id': 372}]

>  <classifications>  (506) 
[{'classification': 'Stilbenoid', 'id': 837}, {'classification': 'Stilbenes (Classyfire)', 'id': 988}]

>  <molecular_mass>  (506) 
258.27

$$$$
SANC00611_minRM1.pdb
     RDKit          3D

 29 30  0  0  0  0  0  0  0  0999 V2000
   -6.2270   -0.2600   -0.0410 O   0  0  0  0  0  0  0  0  0  0  0  0
   -4.8750   -0.1210    0.0450 C   0  0  0  0  0  0  0  0  0  0  0  0
   -4.3720    1.1800    0.0010 C   0  0  0  0  0  0  0  0  0  0  0  0
   -2.9990    1.3700   -0.0140 C   0  0  0  0  0  0  0  0  0  0  0  0
   -2.1280    0.2770   -0.0010 C   0  0  0  0  0  0  0  0  0  0  0  0
   -0.6930    0.5120   -0.0490 C   0  0  0  0  0  0  0  0  0  0  0  0
    0.2050   -0.4820   -0.0490 C   0  0  0  0  0  0  0  0  0  0  0  0
    1.6450   -0.2600   -0.0400 C   0  0  0  0  0  0  0  0  0  0  0  0
    2.1730    1.0290   -0.0260 C   0  0  0  0  0  0  0  0  0  0  0  0
    3.5540    1.1960    0.0280 C   0  0  0  0  0  0  0  0  0  0  0  0
    4.0630    2.4600   -0.0290 O   0  0  0  0  0  0  0  0  0  0  0  0
    4.4360    0.1170    0.0780 C   0  0  0  0  0  0  0  0  0  0  0  0
    3.8760   -1.1610    0.0570 C   0  0  0  0  0  0  0  0  0  0  0  0
    4.6340   -2.2830    0.0650 O   0  0  0  0  0  0  0  0  0  0  0  0
    2.4970   -1.3640   -0.0220 C   0  0  0  0  0  0  0  0  0  0  0  0
   -2.6540   -1.0150    0.0510 C   0  0  0  0  0  0  0  0  0  0  0  0
   -4.0250   -1.2260    0.0660 C   0  0  0  0  0  0  0  0  0  0  0  0
   -6.5170   -0.7060    0.7580 H   0  0  0  0  0  0  0  0  0  0  0  0
   -5.0550    2.0330   -0.0310 H   0  0  0  0  0  0  0  0  0  0  0  0
   -2.6060    2.3910   -0.0330 H   0  0  0  0  0  0  0  0  0  0  0  0
   -0.3690    1.5610   -0.0910 H   0  0  0  0  0  0  0  0  0  0  0  0
   -0.1220   -1.5310   -0.0500 H   0  0  0  0  0  0  0  0  0  0  0  0
    1.5160    1.9060   -0.0470 H   0  0  0  0  0  0  0  0  0  0  0  0
    4.0580    2.7850    0.8810 H   0  0  0  0  0  0  0  0  0  0  0  0
    5.5140    0.2880    0.1240 H   0  0  0  0  0  0  0  0  0  0  0  0
    5.4000   -2.1350    0.6180 H   0  0  0  0  0  0  0  0  0  0  0  0
    2.1040   -2.3840   -0.0760 H   0  0  0  0  0  0  0  0  0  0  0  0
   -1.9780   -1.8790    0.0560 H   0  0  0  0  0  0  0  0  0  0  0  0
   -4.4270   -2.2410    0.0880 H   0  0  0  0  0  0  0  0  0  0  0  0
  1  2  1  0
  1 18  1  0
  2  3  2  0
  2 17  1  0
  3 19  1  0
  3  4  1  0
  4 20  1  0
  4  5  2  0
  5  6  1  0
  5 16  1  0
  6 21  1  0
  6  7  2  0
  7 22  1  0
  7  8  1  0
  8  9  2  0
  8 15  1  0
  9 23  1  0
  9 10  1  0
 10 11  1  0
 10 12  2  0
 11 24  1  0
 12 13  1  0
 12 25  1  0
 13 15  2  0
 13 14  1  0
 14 26  1  0
 15 27  1  0
 16 28  1  0
 16 17  2  0
 17 29  1  0
M  END
>  <id>  (507) 
611

>  <scaffolds>  (507) 
['c1ccccc1', 'C(=Cc1ccccc1)c1ccccc1']

>  <name>  (507) 
(E)-resveratrol

>  <formula>  (507) 
C14H12O3

>  <SMILES>  (507) 
Oc2ccc(/C=C/c1cc(O)cc(O)c1)cc2

>  <ChEMBL_id>  (507) 
CHEMBL165

>  <ZINC_id>  (507) 
ZINC00006787

>  <PubChem_id>  (507) 
 445154

>  <DrugBank_id>  (507) 
DB02709  

>  <CAS_no>  (507) 
501-36-0

>  <references>  (507) 
[{'journal': {'name': 'Phytochemistry', 'id': 10}, 'title': 'Homoisoflavanones and stilbenoids from Scilla nervosa', 'year': 1999, 'start_page': 947, 'volume': 51, 'issue': 7, 'doi': '10.1016/S0031-9422(99)00155-7', 'isbn': '', 'despositor': {'code': 'rah', 'first_name': 'Rowan', 'last_name': 'Hatherley', 'id': 20}, 'refauthors_set': [{'author': {'first_name': 'Vuyisile', 'initials': 'V', 'last_name': 'Bangani', 'id': 802}, 'first_author': True, 'id': 1283}, {'author': {'first_name': 'Neil', 'initials': 'NR', 'last_name': 'Crouch', 'id': 524}, 'first_author': None, 'id': 1284}, {'author': {'first_name': 'Dulcie', 'initials': 'DA', 'last_name': 'Mulholland', 'id': 525}, 'first_author': None, 'id': 1285}], 'id': 372}]

>  <classifications>  (507) 
[{'classification': 'Stilbenoid', 'id': 837}, {'classification': 'Stilbenes (Classyfire)', 'id': 988}]

>  <molecular_mass>  (507) 
228.24

$$$$
SANC00612_minRM1.pdb
     RDKit          3D

 33 35  0  0  0  0  0  0  0  0999 V2000
   -1.1520    2.5060   -0.1340 O   0  0  0  0  0  0  0  0  0  0  0  0
   -1.0330    1.2780   -0.1020 C   0  0  0  0  0  0  0  0  0  0  0  0
    0.2650    0.5920   -0.1240 C   0  0  0  0  0  0  0  0  0  0  0  0
    1.4000    1.2460    0.1600 C   0  0  0  0  0  0  0  0  0  0  0  0
    2.7200    0.6310    0.1210 C   0  0  0  0  0  0  0  0  0  0  0  0
    3.1720   -0.0120   -1.0260 C   0  0  0  0  0  0  0  0  0  0  0  0
    4.4670   -0.5180   -1.0870 C   0  0  0  0  0  0  0  0  0  0  0  0
    5.2820   -0.4070    0.0420 C   0  0  0  0  0  0  0  0  0  0  0  0
    6.5430   -0.8990    0.1100 O   0  0  0  0  0  0  0  0  0  0  0  0
    4.8300    0.2170    1.2130 C   0  0  0  0  0  0  0  0  0  0  0  0
    3.5510    0.7450    1.2410 C   0  0  0  0  0  0  0  0  0  0  0  0
    0.2140   -0.8520   -0.5020 C   0  0  0  0  0  0  0  0  0  0  0  0
   -0.8390   -1.5540    0.1240 O   0  0  0  0  0  0  0  0  0  0  0  0
   -2.0570   -0.9560    0.1220 C   0  0  0  0  0  0  0  0  0  0  0  0
   -3.1410   -1.8020    0.2970 C   0  0  0  0  0  0  0  0  0  0  0  0
   -4.4100   -1.2120    0.3380 C   0  0  0  0  0  0  0  0  0  0  0  0
   -5.5280   -1.9590    0.4480 O   0  0  0  0  0  0  0  0  0  0  0  0
   -4.6230    0.1570    0.1910 C   0  0  0  0  0  0  0  0  0  0  0  0
   -3.4970    0.9760    0.0530 C   0  0  0  0  0  0  0  0  0  0  0  0
   -3.7180    2.2930   -0.0180 O   0  0  0  0  0  0  0  0  0  0  0  0
   -2.2020    0.4310   -0.0020 C   0  0  0  0  0  0  0  0  0  0  0  0
    1.3810    2.3170    0.4260 H   0  0  0  0  0  0  0  0  0  0  0  0
    2.5270   -0.0880   -1.9030 H   0  0  0  0  0  0  0  0  0  0  0  0
    4.8250   -1.0010   -2.0020 H   0  0  0  0  0  0  0  0  0  0  0  0
    6.8500   -1.0860   -0.7810 H   0  0  0  0  0  0  0  0  0  0  0  0
    5.4820    0.2860    2.0900 H   0  0  0  0  0  0  0  0  0  0  0  0
    3.1950    1.2620    2.1360 H   0  0  0  0  0  0  0  0  0  0  0  0
    0.1280   -0.9600   -1.6070 H   0  0  0  0  0  0  0  0  0  0  0  0
    1.0990   -1.4320   -0.1740 H   0  0  0  0  0  0  0  0  0  0  0  0
   -3.0080   -2.8820    0.3760 H   0  0  0  0  0  0  0  0  0  0  0  0
   -5.3600   -2.7360    0.9330 H   0  0  0  0  0  0  0  0  0  0  0  0
   -5.6260    0.5940    0.1900 H   0  0  0  0  0  0  0  0  0  0  0  0
   -2.8710    2.7930   -0.0770 H   0  0  0  0  0  0  0  0  0  0  0  0
  1  2  2  0
  2  3  1  0
  2 21  1  0
  3 12  1  0
  3  4  2  0
  4  5  1  0
  4 22  1  0
  5  6  2  0
  5 11  1  0
  6 23  1  0
  6  7  1  0
  7 24  1  0
  7  8  2  0
  8  9  1  0
  8 10  1  0
  9 25  1  0
 10 11  2  0
 10 26  1  0
 11 27  1  0
 12 28  1  0
 12 29  1  0
 12 13  1  0
 13 14  1  0
 14 21  2  0
 14 15  1  0
 15 16  2  0
 15 30  1  0
 16 18  1  0
 16 17  1  0
 17 31  1  0
 18 19  2  0
 18 32  1  0
 19 20  1  0
 19 21  1  0
 20 33  1  0
M  END
>  <id>  (508) 
612

>  <scaffolds>  (508) 
['c1ccccc1', 'O=C1C(=Cc2ccccc2)COc2ccccc21', 'O=C(C=Cc1ccccc1)c1ccccc1', 'C(=Cc1ccccc1)Cc1ccccc1']

>  <name>  (508) 
(E)-5,7-dihydroxy-3-(4-hydroxybenzylidene)chroman-4-one

>  <formula>  (508) 
C16H12O5

>  <SMILES>  (508) 
O=C2/C(=C/c1ccc(O)cc1)COc3cc(O)cc(O)c23

>  <ChEMBL_id>  (508) 


>  <ZINC_id>  (508) 


>  <PubChem_id>  (508) 


>  <DrugBank_id>  (508) 


>  <CAS_no>  (508) 
34818-83-2

>  <references>  (508) 
[{'journal': {'name': 'Phytochemistry', 'id': 10}, 'title': 'Homoisoflavanones and stilbenoids from Scilla nervosa', 'year': 1999, 'start_page': 947, 'volume': 51, 'issue': 7, 'doi': '10.1016/S0031-9422(99)00155-7', 'isbn': '', 'despositor': {'code': 'rah', 'first_name': 'Rowan', 'last_name': 'Hatherley', 'id': 20}, 'refauthors_set': [{'author': {'first_name': 'Vuyisile', 'initials': 'V', 'last_name': 'Bangani', 'id': 802}, 'first_author': True, 'id': 1283}, {'author': {'first_name': 'Neil', 'initials': 'NR', 'last_name': 'Crouch', 'id': 524}, 'first_author': None, 'id': 1284}, {'author': {'first_name': 'Dulcie', 'initials': 'DA', 'last_name': 'Mulholland', 'id': 525}, 'first_author': None, 'id': 1285}], 'id': 372}]

>  <classifications>  (508) 
[{'classification': 'Flavonoids', 'id': 776}, {'classification': 'Homoisoflavonoid', 'id': 783}, {'classification': 'Homoisoflavonoids (Classyfire)', 'id': 964}]

>  <molecular_mass>  (508) 
284.26

$$$$
SANC00613_minRM1.pdb
     RDKit          3D

 41 43  0  0  1  0  0  0  0  0999 V2000
    5.4830    2.7100    0.2670 C   0  0  0  0  0  0  0  0  0  0  0  0
    5.5370    1.3080    0.2370 O   0  0  0  0  0  0  0  0  0  0  0  0
    4.3610    0.6320    0.3840 C   0  0  0  0  0  0  0  0  0  0  0  0
    3.1350    1.2090    0.7020 C   0  0  0  0  0  0  0  0  0  0  0  0
    2.0210    0.3860    0.8280 C   0  0  0  0  0  0  0  0  0  0  0  0
    2.1280   -0.9870    0.6490 C   0  0  0  0  0  0  0  0  0  0  0  0
    0.9250   -1.8570    0.7860 C   0  0  0  0  0  0  0  0  0  0  0  0
    0.2370   -2.0100   -0.5750 C   0  0  1  0  0  0  0  0  0  0  0  0
   -1.0020   -2.9020   -0.4670 C   0  0  0  0  0  0  0  0  0  0  0  0
   -1.9780   -2.3630    0.3990 O   0  0  0  0  0  0  0  0  0  0  0  0
   -2.3410   -1.0800    0.1380 C   0  0  0  0  0  0  0  0  0  0  0  0
   -3.5590   -0.6710    0.6540 C   0  0  0  0  0  0  0  0  0  0  0  0
   -3.9490    0.6600    0.4210 C   0  0  0  0  0  0  0  0  0  0  0  0
   -5.1410    0.9650    0.9920 O   0  0  0  0  0  0  0  0  0  0  0  0
   -5.6480    2.2660    0.8130 C   0  0  0  0  0  0  0  0  0  0  0  0
   -3.1820    1.5500   -0.3250 C   0  0  0  0  0  0  0  0  0  0  0  0
   -1.9580    1.0940   -0.8300 C   0  0  0  0  0  0  0  0  0  0  0  0
   -1.2430    1.9780   -1.5340 O   0  0  0  0  0  0  0  0  0  0  0  0
   -1.5070   -0.2140   -0.5860 C   0  0  0  0  0  0  0  0  0  0  0  0
   -0.2040   -0.6480   -1.0420 C   0  0  0  0  0  0  0  0  0  0  0  0
    0.4910    0.0790   -1.7470 O   0  0  0  0  0  0  0  0  0  0  0  0
    3.3650   -1.5500    0.3330 C   0  0  0  0  0  0  0  0  0  0  0  0
    4.4860   -0.7520    0.2000 C   0  0  0  0  0  0  0  0  0  0  0  0
    5.1940    3.1110    1.2510 H   0  0  0  0  0  0  0  0  0  0  0  0
    6.5240    3.0080    0.0620 H   0  0  0  0  0  0  0  0  0  0  0  0
    4.8260    3.1400   -0.5070 H   0  0  0  0  0  0  0  0  0  0  0  0
    3.0130    2.2840    0.8520 H   0  0  0  0  0  0  0  0  0  0  0  0
    1.0520    0.8360    1.0740 H   0  0  0  0  0  0  0  0  0  0  0  0
    1.1980   -2.8580    1.1850 H   0  0  0  0  0  0  0  0  0  0  0  0
    0.2160   -1.4490    1.5400 H   0  0  0  0  0  0  0  0  0  0  0  0
    0.9550   -2.4610   -1.3070 H   0  0  0  0  0  0  0  0  0  0  0  0
   -1.4420   -3.0980   -1.4710 H   0  0  0  0  0  0  0  0  0  0  0  0
   -0.7790   -3.8890   -0.0090 H   0  0  0  0  0  0  0  0  0  0  0  0
   -4.1970   -1.3560    1.2190 H   0  0  0  0  0  0  0  0  0  0  0  0
   -5.0050    3.0450    1.2530 H   0  0  0  0  0  0  0  0  0  0  0  0
   -5.8500    2.5100   -0.2430 H   0  0  0  0  0  0  0  0  0  0  0  0
   -6.6040    2.2380    1.3630 H   0  0  0  0  0  0  0  0  0  0  0  0
   -3.4850    2.5770   -0.5330 H   0  0  0  0  0  0  0  0  0  0  0  0
   -0.4040    1.5680   -1.8580 H   0  0  0  0  0  0  0  0  0  0  0  0
    3.4550   -2.6320    0.1890 H   0  0  0  0  0  0  0  0  0  0  0  0
    5.4580   -1.1890   -0.0470 H   0  0  0  0  0  0  0  0  0  0  0  0
  1 26  1  0
  1 25  1  0
  1  2  1  0
  1 24  1  0
  2  3  1  0
  3 23  2  0
  3  4  1  0
  4  5  2  0
  4 27  1  0
  5  6  1  0
  5 28  1  0
  6 22  2  0
  6  7  1  0
  7  8  1  0
  7 29  1  0
  7 30  1  0
  8 31  1  6
  8 20  1  0
  8  9  1  0
  9 32  1  0
  9 33  1  0
  9 10  1  0
 10 11  1  0
 11 19  2  0
 11 12  1  0
 12 13  2  0
 12 34  1  0
 13 16  1  0
 13 14  1  0
 14 15  1  0
 15 36  1  0
 15 35  1  0
 15 37  1  0
 16 17  2  0
 16 38  1  0
 17 18  1  0
 17 19  1  0
 18 39  1  0
 19 20  1  0
 20 21  2  0
 22 40  1  0
 22 23  1  0
 23 41  1  0
M  END
>  <id>  (509) 
613

>  <scaffolds>  (509) 
['c1ccccc1', 'O=C1c2ccccc2OCC1Cc1ccccc1', 'O=C(CCc1ccccc1)c1ccccc1']

>  <name>  (509) 
5-hydroxy-7-methoxy-3-(4-methoxybenzyl)chroman-4-one

>  <formula>  (509) 
C18H18O5

>  <SMILES>  (509) 
COc3ccc(CC2COc1cc(OC)cc(O)c1C2=O)cc3

>  <ChEMBL_id>  (509) 


>  <ZINC_id>  (509) 


>  <PubChem_id>  (509) 


>  <DrugBank_id>  (509) 


>  <CAS_no>  (509) 
246244-13-3

>  <references>  (509) 
[{'journal': {'name': 'Phytochemistry', 'id': 10}, 'title': 'Homoisoflavanones and stilbenoids from Scilla nervosa', 'year': 1999, 'start_page': 947, 'volume': 51, 'issue': 7, 'doi': '10.1016/S0031-9422(99)00155-7', 'isbn': '', 'despositor': {'code': 'rah', 'first_name': 'Rowan', 'last_name': 'Hatherley', 'id': 20}, 'refauthors_set': [{'author': {'first_name': 'Vuyisile', 'initials': 'V', 'last_name': 'Bangani', 'id': 802}, 'first_author': True, 'id': 1283}, {'author': {'first_name': 'Neil', 'initials': 'NR', 'last_name': 'Crouch', 'id': 524}, 'first_author': None, 'id': 1284}, {'author': {'first_name': 'Dulcie', 'initials': 'DA', 'last_name': 'Mulholland', 'id': 525}, 'first_author': None, 'id': 1285}], 'id': 372}]

>  <classifications>  (509) 
[{'classification': 'Flavonoids', 'id': 776}, {'classification': 'Homoisoflavonoid', 'id': 783}, {'classification': 'Homoisoflavonoids (Classyfire)', 'id': 964}]

>  <molecular_mass>  (509) 
314.33

$$$$
SANC00614_minRM1.pdb
     RDKit          3D

 44 46  0  0  1  0  0  0  0  0999 V2000
    6.6660    1.2600   -0.1320 C   0  0  0  0  0  0  0  0  0  0  0  0
    5.3870    1.6720   -0.5380 O   0  0  0  0  0  0  0  0  0  0  0  0
    4.3920    0.7370   -0.5130 C   0  0  0  0  0  0  0  0  0  0  0  0
    4.5710   -0.6220   -0.2790 C   0  0  0  0  0  0  0  0  0  0  0  0
    3.4580   -1.4570   -0.3050 C   0  0  0  0  0  0  0  0  0  0  0  0
    2.1930   -0.9470   -0.5660 C   0  0  0  0  0  0  0  0  0  0  0  0
    1.0090   -1.8550   -0.5870 C   0  0  0  0  0  0  0  0  0  0  0  0
    0.4010   -1.9350    0.8140 C   0  0  2  0  0  0  0  0  0  0  0  0
    1.1960   -2.2300    1.5460 H   0  0  0  0  0  0  0  0  0  0  0  0
   -0.7340   -2.9540    0.8750 C   0  0  0  0  0  0  0  0  0  0  0  0
   -1.7810   -2.6410   -0.0160 O   0  0  0  0  0  0  0  0  0  0  0  0
   -2.2270   -1.3580    0.0180 C   0  0  0  0  0  0  0  0  0  0  0  0
   -3.4670   -1.1570   -0.5820 C   0  0  0  0  0  0  0  0  0  0  0  0
   -3.9750    0.1460   -0.5980 C   0  0  0  0  0  0  0  0  0  0  0  0
   -5.1880    0.2320   -1.2040 O   0  0  0  0  0  0  0  0  0  0  0  0
   -5.8060    1.4930   -1.2750 C   0  0  0  0  0  0  0  0  0  0  0  0
   -3.2870    1.2240   -0.0390 C   0  0  0  0  0  0  0  0  0  0  0  0
   -2.0440    0.9750    0.5470 C   0  0  0  0  0  0  0  0  0  0  0  0
   -1.2570    1.9270    1.1000 O   0  0  0  0  0  0  0  0  0  0  0  0
   -1.7510    3.2420    1.1780 C   0  0  0  0  0  0  0  0  0  0  0  0
   -1.4850   -0.3130    0.5830 C   0  0  0  0  0  0  0  0  0  0  0  0
   -0.1750   -0.5800    1.1750 C   0  0  0  0  0  0  0  0  0  0  0  0
    0.4180    0.1940    1.8980 O   0  0  0  0  0  0  0  0  0  0  0  0
    2.0300    0.4200   -0.7930 C   0  0  0  0  0  0  0  0  0  0  0  0
    3.1210    1.2700   -0.7720 C   0  0  0  0  0  0  0  0  0  0  0  0
    6.6910    0.8520    0.8930 H   0  0  0  0  0  0  0  0  0  0  0  0
    7.1270    0.5330   -0.8210 H   0  0  0  0  0  0  0  0  0  0  0  0
    7.2570    2.1890   -0.1540 H   0  0  0  0  0  0  0  0  0  0  0  0
    5.5500   -1.0590   -0.0750 H   0  0  0  0  0  0  0  0  0  0  0  0
    3.5920   -2.5270   -0.1170 H   0  0  0  0  0  0  0  0  0  0  0  0
    0.2560   -1.5140   -1.3300 H   0  0  0  0  0  0  0  0  0  0  0  0
    1.2920   -2.8700   -0.9400 H   0  0  0  0  0  0  0  0  0  0  0  0
   -0.4210   -3.9680    0.5480 H   0  0  0  0  0  0  0  0  0  0  0  0
   -1.1320   -3.0520    1.9110 H   0  0  0  0  0  0  0  0  0  0  0  0
   -4.0230   -1.9880   -1.0230 H   0  0  0  0  0  0  0  0  0  0  0  0
   -5.2330    2.2270   -1.8640 H   0  0  0  0  0  0  0  0  0  0  0  0
   -6.7540    1.2800   -1.7940 H   0  0  0  0  0  0  0  0  0  0  0  0
   -6.0400    1.9190   -0.2850 H   0  0  0  0  0  0  0  0  0  0  0  0
   -3.7060    2.2280   -0.0610 H   0  0  0  0  0  0  0  0  0  0  0  0
   -0.9420    3.7780    1.6990 H   0  0  0  0  0  0  0  0  0  0  0  0
   -1.9050    3.7080    0.1910 H   0  0  0  0  0  0  0  0  0  0  0  0
   -2.6750    3.3280    1.7740 H   0  0  0  0  0  0  0  0  0  0  0  0
    1.0320    0.8310   -0.9820 H   0  0  0  0  0  0  0  0  0  0  0  0
    2.9970    2.3420   -0.9470 H   0  0  0  0  0  0  0  0  0  0  0  0
  1 27  1  0
  1  2  1  0
  1 28  1  0
  1 26  1  0
  2  3  1  0
  3 25  2  0
  3  4  1  0
  4  5  2  0
  4 29  1  0
  5  6  1  0
  5 30  1  0
  6 24  2  0
  6  7  1  0
  7 31  1  0
  7 32  1  0
  7  8  1  0
  8 10  1  0
  8 22  1  0
  8  9  1  1
 10 11  1  0
 10 33  1  0
 10 34  1  0
 11 12  1  0
 12 13  2  0
 12 21  1  0
 13 35  1  0
 13 14  1  0
 14 15  1  0
 14 17  2  0
 15 16  1  0
 16 36  1  0
 16 37  1  0
 16 38  1  0
 17 39  1  0
 17 18  1  0
 18 21  2  0
 18 19  1  0
 19 20  1  0
 20 41  1  0
 20 40  1  0
 20 42  1  0
 21 22  1  0
 22 23  2  0
 24 43  1  0
 24 25  1  0
 25 44  1  0
M  END
>  <id>  (510) 
614

>  <scaffolds>  (510) 
['c1ccccc1', 'O=C1c2ccccc2OCC1Cc1ccccc1', 'O=C(CCc1ccccc1)c1ccccc1']

>  <name>  (510) 
5,7-dimethoxy-3-(4-methoxybenzyl)chroman-4-one

>  <formula>  (510) 
C19H20O5

>  <SMILES>  (510) 
COc3ccc(C[C@@H]2COc1cc(OC)cc(OC)c1C2=O)cc3

>  <ChEMBL_id>  (510) 


>  <ZINC_id>  (510) 


>  <PubChem_id>  (510) 


>  <DrugBank_id>  (510) 


>  <CAS_no>  (510) 
246244-10-0

>  <references>  (510) 
[{'journal': {'name': 'Phytochemistry', 'id': 10}, 'title': 'Homoisoflavanones and stilbenoids from Scilla nervosa', 'year': 1999, 'start_page': 947, 'volume': 51, 'issue': 7, 'doi': '10.1016/S0031-9422(99)00155-7', 'isbn': '', 'despositor': {'code': 'rah', 'first_name': 'Rowan', 'last_name': 'Hatherley', 'id': 20}, 'refauthors_set': [{'author': {'first_name': 'Vuyisile', 'initials': 'V', 'last_name': 'Bangani', 'id': 802}, 'first_author': True, 'id': 1283}, {'author': {'first_name': 'Neil', 'initials': 'NR', 'last_name': 'Crouch', 'id': 524}, 'first_author': None, 'id': 1284}, {'author': {'first_name': 'Dulcie', 'initials': 'DA', 'last_name': 'Mulholland', 'id': 525}, 'first_author': None, 'id': 1285}], 'id': 372}]

>  <classifications>  (510) 
[{'classification': 'Flavonoids', 'id': 776}, {'classification': 'Homoisoflavonoid', 'id': 783}, {'classification': 'Homoisoflavonoids (Classyfire)', 'id': 964}]

>  <molecular_mass>  (510) 
328.36

$$$$
SANC00615_minRM1.pdb
     RDKit          3D

 42 44  0  0  1  0  0  0  0  0999 V2000
    5.8660    2.2320   -0.7330 C   0  0  0  0  0  0  0  0  0  0  0  0
    5.3670    0.9320   -0.9370 O   0  0  0  0  0  0  0  0  0  0  0  0
    4.1690    0.6170   -0.3850 C   0  0  0  0  0  0  0  0  0  0  0  0
    3.4020    1.4850    0.3850 C   0  0  0  0  0  0  0  0  0  0  0  0
    2.1800    1.0150    0.8830 C   0  0  0  0  0  0  0  0  0  0  0  0
    1.4760    1.8750    1.6270 O   0  0  0  0  0  0  0  0  0  0  0  0
    1.7270   -0.2850    0.6020 C   0  0  0  0  0  0  0  0  0  0  0  0
    0.4230   -0.7280    1.0450 C   0  0  0  0  0  0  0  0  0  0  0  0
   -0.2700   -0.0240    1.7750 O   0  0  0  0  0  0  0  0  0  0  0  0
   -0.0230   -2.0730    0.5340 C   0  0  1  0  0  0  0  0  0  0  0  0
   -0.7080   -1.8730   -0.8220 C   0  0  0  0  0  0  0  0  0  0  0  0
   -1.9290   -1.0310   -0.6500 C   0  0  0  0  0  0  0  0  0  0  0  0
   -3.1520   -1.6290   -0.3750 C   0  0  0  0  0  0  0  0  0  0  0  0
   -4.3000   -0.8590   -0.2100 C   0  0  0  0  0  0  0  0  0  0  0  0
   -4.2130    0.5220   -0.3240 C   0  0  0  0  0  0  0  0  0  0  0  0
   -5.2490    1.4040   -0.2020 O   0  0  0  0  0  0  0  0  0  0  0  0
   -6.4910    0.8780    0.1890 C   0  0  0  0  0  0  0  0  0  0  0  0
   -2.9710    1.1310   -0.5900 C   0  0  0  0  0  0  0  0  0  0  0  0
   -2.8200    2.4660   -0.7770 O   0  0  0  0  0  0  0  0  0  0  0  0
   -1.8290    0.3540   -0.7560 C   0  0  0  0  0  0  0  0  0  0  0  0
    1.2140   -2.9650    0.3970 C   0  0  0  0  0  0  0  0  0  0  0  0
    2.1900   -2.4030   -0.4520 O   0  0  0  0  0  0  0  0  0  0  0  0
    2.5570   -1.1280   -0.1520 C   0  0  0  0  0  0  0  0  0  0  0  0
    3.7740   -0.7060   -0.6600 C   0  0  0  0  0  0  0  0  0  0  0  0
    6.0640    2.4570    0.3280 H   0  0  0  0  0  0  0  0  0  0  0  0
    6.8230    2.2240   -1.2780 H   0  0  0  0  0  0  0  0  0  0  0  0
    5.2210    3.0170   -1.1590 H   0  0  0  0  0  0  0  0  0  0  0  0
    3.7020    2.5090    0.6160 H   0  0  0  0  0  0  0  0  0  0  0  0
    0.6290    1.4660    1.9290 H   0  0  0  0  0  0  0  0  0  0  0  0
   -0.7420   -2.5460    1.2510 H   0  0  0  0  0  0  0  0  0  0  0  0
   -0.0070   -1.4200   -1.5560 H   0  0  0  0  0  0  0  0  0  0  0  0
   -0.9630   -2.8590   -1.2660 H   0  0  0  0  0  0  0  0  0  0  0  0
   -3.2260   -2.7170   -0.2860 H   0  0  0  0  0  0  0  0  0  0  0  0
   -5.2450   -1.3650    0.0000 H   0  0  0  0  0  0  0  0  0  0  0  0
   -6.4640    0.3610    1.1630 H   0  0  0  0  0  0  0  0  0  0  0  0
   -7.1300    1.7700    0.2810 H   0  0  0  0  0  0  0  0  0  0  0  0
   -6.9310    0.2060   -0.5670 H   0  0  0  0  0  0  0  0  0  0  0  0
   -3.4360    2.9300   -0.1960 H   0  0  0  0  0  0  0  0  0  0  0  0
   -0.8710    0.8380   -0.9710 H   0  0  0  0  0  0  0  0  0  0  0  0
    1.6540   -3.1910    1.3950 H   0  0  0  0  0  0  0  0  0  0  0  0
    0.9870   -3.9370   -0.0890 H   0  0  0  0  0  0  0  0  0  0  0  0
    4.4050   -1.3710   -1.2540 H   0  0  0  0  0  0  0  0  0  0  0  0
  1 26  1  0
  1 27  1  0
  1  2  1  0
  1 25  1  0
  2  3  1  0
  3 24  2  0
  3  4  1  0
  4 28  1  0
  4  5  2  0
  5  7  1  0
  5  6  1  0
  6 29  1  0
  7 23  2  0
  7  8  1  0
  8 10  1  0
  8  9  2  0
 10 11  1  0
 10 21  1  0
 10 30  1  1
 11 31  1  0
 11 32  1  0
 11 12  1  0
 12 20  2  0
 12 13  1  0
 13 33  1  0
 13 14  2  0
 14 15  1  0
 14 34  1  0
 15 18  2  0
 15 16  1  0
 16 17  1  0
 17 37  1  0
 17 36  1  0
 17 35  1  0
 18 19  1  0
 18 20  1  0
 19 38  1  0
 20 39  1  0
 21 22  1  0
 21 41  1  0
 21 40  1  0
 22 23  1  0
 23 24  1  0
 24 42  1  0
M  END
>  <id>  (511) 
615

>  <scaffolds>  (511) 
['c1ccccc1', 'O=C1c2ccccc2OCC1Cc1ccccc1', 'O=C(CCc1ccccc1)c1ccccc1']

>  <name>  (511) 
5-hydroxy-7-methoxy-3-(3-hydroxy-4-methoxybenzyl)chroman-4-one

>  <formula>  (511) 
C18H18O6

>  <SMILES>  (511) 
COc3cc(O)c2C(=O)C(Cc1ccc(OC)c(O)c1)COc2c3

>  <ChEMBL_id>  (511) 


>  <ZINC_id>  (511) 


>  <PubChem_id>  (511) 


>  <DrugBank_id>  (511) 


>  <CAS_no>  (511) 
246244-11-1

>  <references>  (511) 
[{'journal': {'name': 'Phytochemistry', 'id': 10}, 'title': 'Homoisoflavanones and stilbenoids from Scilla nervosa', 'year': 1999, 'start_page': 947, 'volume': 51, 'issue': 7, 'doi': '10.1016/S0031-9422(99)00155-7', 'isbn': '', 'despositor': {'code': 'rah', 'first_name': 'Rowan', 'last_name': 'Hatherley', 'id': 20}, 'refauthors_set': [{'author': {'first_name': 'Vuyisile', 'initials': 'V', 'last_name': 'Bangani', 'id': 802}, 'first_author': True, 'id': 1283}, {'author': {'first_name': 'Neil', 'initials': 'NR', 'last_name': 'Crouch', 'id': 524}, 'first_author': None, 'id': 1284}, {'author': {'first_name': 'Dulcie', 'initials': 'DA', 'last_name': 'Mulholland', 'id': 525}, 'first_author': None, 'id': 1285}], 'id': 372}]

>  <classifications>  (511) 
[{'classification': 'Flavonoids', 'id': 776}, {'classification': 'Homoisoflavonoid', 'id': 783}, {'classification': 'Homoisoflavonoids (Classyfire)', 'id': 964}]

>  <molecular_mass>  (511) 
330.33

$$$$
SANC00616_minRM1.pdb
     RDKit          3D

130136  0  0  1  0  0  0  0  0999 V2000
    0.4770   -2.5030   -1.9320 H   0  0  0  0  0  0  0  0  0  0  0  0
    0.3190   -2.2060   -0.8540 C   0  0  2  0  0  0  0  0  0  0  0  0
   -0.6140   -1.1800   -0.7010 O   0  0  0  0  0  0  0  0  0  0  0  0
   -1.8850   -1.4180   -1.2380 C   0  0  1  0  0  0  0  0  0  0  0  0
   -1.8840   -2.2880   -1.9540 H   0  0  0  0  0  0  0  0  0  0  0  0
   -2.8930   -1.7300   -0.1120 C   0  0  0  0  0  0  0  0  0  0  0  0
   -4.1960   -1.2130   -0.7100 C   0  0  1  0  0  0  0  0  0  0  0  0
   -4.4820   -1.9000   -1.5520 H   0  0  0  0  0  0  0  0  0  0  0  0
   -5.3920   -1.0790    0.2220 C   0  0  2  0  0  0  0  0  0  0  0  0
   -5.1430   -0.3730    1.0570 H   0  0  0  0  0  0  0  0  0  0  0  0
   -5.7590   -2.4360    0.8190 C   0  0  0  0  0  0  0  0  0  0  0  0
   -7.0720   -2.3860    1.5110 C   0  0  0  0  0  0  0  0  0  0  0  0
   -7.9760   -1.4260    1.3200 C   0  0  0  0  0  0  0  0  0  0  0  0
   -9.2340   -1.4140    2.1240 C   0  0  0  0  0  0  0  0  0  0  0  0
  -10.4570   -1.2270    1.2140 C   0  0  1  0  0  0  0  0  0  0  0  0
  -10.5690   -2.1180    0.5350 H   0  0  0  0  0  0  0  0  0  0  0  0
  -11.6160   -1.0370    1.9790 O   0  0  0  0  0  0  0  0  0  0  0  0
  -10.2970    0.0540    0.3890 C   0  0  0  0  0  0  0  0  0  0  0  0
   -9.0400   -0.0530   -0.4610 C   0  0  0  0  0  0  0  0  0  0  0  0
   -7.7720   -0.2690    0.3830 C   0  0  1  0  0  0  0  0  0  0  0  0
   -7.5050    0.9710    1.2420 C   0  0  0  0  0  0  0  0  0  0  0  0
   -6.5900   -0.5510   -0.5810 C   0  0  1  0  0  0  0  0  0  0  0  0
   -6.8990   -1.3660   -1.2880 H   0  0  0  0  0  0  0  0  0  0  0  0
   -6.2620    0.6850   -1.4300 C   0  0  0  0  0  0  0  0  0  0  0  0
   -4.9480    0.5850   -2.2040 C   0  0  0  0  0  0  0  0  0  0  0  0
   -3.8070    0.1620   -1.2800 C   0  0  1  0  0  0  0  0  0  0  0  0
   -3.6520    1.2030   -0.1770 C   0  0  0  0  0  0  0  0  0  0  0  0
   -2.4300   -0.1320   -1.9760 C   0  0  2  0  0  0  0  0  0  0  0  0
   -2.7780   -0.5000   -3.2840 O   0  0  0  0  0  0  0  0  0  0  0  0
   -1.5050    1.1040   -2.1010 C   0  0  2  0  0  0  0  0  0  0  0  0
   -2.1450    1.8960   -2.5740 H   0  0  0  0  0  0  0  0  0  0  0  0
   -0.3100    0.8410   -3.0200 C   0  0  0  0  0  0  0  0  0  0  0  0
   -0.8980    1.6620   -0.8260 C   0  0  0  0  0  0  0  0  0  0  0  0
   -0.3900    0.9710    0.0310 O   0  0  0  0  0  0  0  0  0  0  0  0
   -0.8370    3.1760   -0.7290 C   0  0  0  0  0  0  0  0  0  0  0  0
   -0.6210    3.6180    0.7150 C   0  0  0  0  0  0  0  0  0  0  0  0
   -0.6710    5.1400    0.8780 C   0  0  1  0  0  0  0  0  0  0  0  0
   -0.6730    5.4840    2.3660 C   0  0  0  0  0  0  0  0  0  0  0  0
    0.5210    5.8100    0.2070 C   0  0  0  0  0  0  0  0  0  0  0  0
   -0.2010   -3.2780   -0.1020 O   0  0  0  0  0  0  0  0  0  0  0  0
    0.6590   -4.3780   -0.0190 C   0  0  0  0  0  0  0  0  0  0  0  0
    2.0080   -4.0080    0.6420 C   0  0  2  0  0  0  0  0  0  0  0  0
    2.6950   -4.8980    0.6320 H   0  0  0  0  0  0  0  0  0  0  0  0
    1.8160   -3.5180    1.9310 O   0  0  0  0  0  0  0  0  0  0  0  0
    2.6320   -2.8470   -0.1650 C   0  0  2  0  0  0  0  0  0  0  0  0
    2.8500   -3.2080   -1.2080 H   0  0  0  0  0  0  0  0  0  0  0  0
    3.7650   -2.3740    0.5130 O   0  0  0  0  0  0  0  0  0  0  0  0
    4.9910   -2.6450   -0.0980 C   0  0  2  0  0  0  0  0  0  0  0  0
    5.0350   -2.3380   -1.1830 H   0  0  0  0  0  0  0  0  0  0  0  0
    5.1330   -4.0430    0.0460 O   0  0  0  0  0  0  0  0  0  0  0  0
    6.3770   -4.5230   -0.3780 C   0  0  0  0  0  0  0  0  0  0  0  0
    7.5000   -3.9100    0.4880 C   0  0  1  0  0  0  0  0  0  0  0  0
    7.3700   -4.1980    1.5670 H   0  0  0  0  0  0  0  0  0  0  0  0
    8.7450   -4.2860   -0.0230 O   0  0  0  0  0  0  0  0  0  0  0  0
    7.4560   -2.3680    0.3390 C   0  0  2  0  0  0  0  0  0  0  0  0
    7.6770   -2.0700   -0.7250 H   0  0  0  0  0  0  0  0  0  0  0  0
    8.3340   -1.7660    1.2370 O   0  0  0  0  0  0  0  0  0  0  0  0
    6.0460   -1.8890    0.7620 C   0  0  1  0  0  0  0  0  0  0  0  0
    5.8670   -2.0690    1.8580 H   0  0  0  0  0  0  0  0  0  0  0  0
    5.9440   -0.5490    0.3540 O   0  0  0  0  0  0  0  0  0  0  0  0
    5.9090    0.4500    1.2850 C   0  0  0  0  0  0  0  0  0  0  0  0
    5.9210    0.2130    2.4750 O   0  0  0  0  0  0  0  0  0  0  0  0
    5.8740    1.7650    0.6310 C   0  0  0  0  0  0  0  0  0  0  0  0
    5.0780    2.7210    1.1210 C   0  0  0  0  0  0  0  0  0  0  0  0
    4.9990    4.0570    0.5410 C   0  0  0  0  0  0  0  0  0  0  0  0
    5.6110    4.3650   -0.6740 C   0  0  0  0  0  0  0  0  0  0  0  0
    5.5280    5.6500   -1.1940 C   0  0  0  0  0  0  0  0  0  0  0  0
    4.8410    6.6380   -0.5020 C   0  0  0  0  0  0  0  0  0  0  0  0
    4.2230    6.3360    0.7060 C   0  0  0  0  0  0  0  0  0  0  0  0
    4.2950    5.0510    1.2240 C   0  0  0  0  0  0  0  0  0  0  0  0
    1.6260   -1.6710   -0.2000 C   0  0  1  0  0  0  0  0  0  0  0  0
    1.4190   -1.2700    0.8300 H   0  0  0  0  0  0  0  0  0  0  0  0
    2.1390   -0.7270   -1.1080 O   0  0  0  0  0  0  0  0  0  0  0  0
    2.6150    0.4660   -0.6520 C   0  0  0  0  0  0  0  0  0  0  0  0
    3.0170    1.3430   -1.7970 C   0  0  0  0  0  0  0  0  0  0  0  0
    2.6910    0.7250    0.5300 O   0  0  0  0  0  0  0  0  0  0  0  0
   -2.9170   -2.8100    0.1320 H   0  0  0  0  0  0  0  0  0  0  0  0
   -2.6230   -1.2400    0.8440 H   0  0  0  0  0  0  0  0  0  0  0  0
   -5.7890   -3.2320    0.0430 H   0  0  0  0  0  0  0  0  0  0  0  0
   -4.9700   -2.7690    1.5280 H   0  0  0  0  0  0  0  0  0  0  0  0
   -7.2550   -3.2120    2.2070 H   0  0  0  0  0  0  0  0  0  0  0  0
   -9.3500   -2.3430    2.7260 H   0  0  0  0  0  0  0  0  0  0  0  0
   -9.1840   -0.6060    2.8870 H   0  0  0  0  0  0  0  0  0  0  0  0
  -11.7610   -1.8370    2.4960 H   0  0  0  0  0  0  0  0  0  0  0  0
  -11.1890    0.2150   -0.2520 H   0  0  0  0  0  0  0  0  0  0  0  0
  -10.2680    0.9480    1.0480 H   0  0  0  0  0  0  0  0  0  0  0  0
   -9.1580   -0.8760   -1.2000 H   0  0  0  0  0  0  0  0  0  0  0  0
   -8.9410    0.8660   -1.0790 H   0  0  0  0  0  0  0  0  0  0  0  0
   -8.3930    1.3050    1.7970 H   0  0  0  0  0  0  0  0  0  0  0  0
   -6.7200    0.8010    1.9930 H   0  0  0  0  0  0  0  0  0  0  0  0
   -7.1830    1.8380    0.6410 H   0  0  0  0  0  0  0  0  0  0  0  0
   -7.0810    0.8550   -2.1630 H   0  0  0  0  0  0  0  0  0  0  0  0
   -6.2760    1.6130   -0.8170 H   0  0  0  0  0  0  0  0  0  0  0  0
   -5.0830   -0.1240   -3.0480 H   0  0  0  0  0  0  0  0  0  0  0  0
   -4.7140    1.5510   -2.6990 H   0  0  0  0  0  0  0  0  0  0  0  0
   -4.5270    1.2490    0.4930 H   0  0  0  0  0  0  0  0  0  0  0  0
   -2.8190    1.0030    0.5080 H   0  0  0  0  0  0  0  0  0  0  0  0
   -3.5370    2.2180   -0.5750 H   0  0  0  0  0  0  0  0  0  0  0  0
   -2.0190   -0.9230   -3.7030 H   0  0  0  0  0  0  0  0  0  0  0  0
    0.1800   -0.1210   -2.8230 H   0  0  0  0  0  0  0  0  0  0  0  0
   -0.5860    0.8580   -4.0840 H   0  0  0  0  0  0  0  0  0  0  0  0
    0.4810    1.6050   -2.9110 H   0  0  0  0  0  0  0  0  0  0  0  0
   -0.0120    3.5210   -1.3870 H   0  0  0  0  0  0  0  0  0  0  0  0
   -1.7470    3.6480   -1.1490 H   0  0  0  0  0  0  0  0  0  0  0  0
   -1.3930    3.1420    1.3580 H   0  0  0  0  0  0  0  0  0  0  0  0
    0.3420    3.2170    1.1000 H   0  0  0  0  0  0  0  0  0  0  0  0
   -1.6160    5.5330    0.4190 H   0  0  0  0  0  0  0  0  0  0  0  0
    0.2240    5.1110    2.8800 H   0  0  0  0  0  0  0  0  0  0  0  0
   -0.7100    6.5690    2.5390 H   0  0  0  0  0  0  0  0  0  0  0  0
   -1.5390    5.0560    2.8910 H   0  0  0  0  0  0  0  0  0  0  0  0
    0.5130    5.6950   -0.8850 H   0  0  0  0  0  0  0  0  0  0  0  0
    0.5440    6.8930    0.3970 H   0  0  0  0  0  0  0  0  0  0  0  0
    1.4830    5.4120    0.5640 H   0  0  0  0  0  0  0  0  0  0  0  0
    0.0860   -5.1120    0.5860 H   0  0  0  0  0  0  0  0  0  0  0  0
    0.8270   -4.8510   -1.0140 H   0  0  0  0  0  0  0  0  0  0  0  0
    1.4740   -4.2410    2.4670 H   0  0  0  0  0  0  0  0  0  0  0  0
    6.3000   -5.6250   -0.2460 H   0  0  0  0  0  0  0  0  0  0  0  0
    6.5570   -4.3460   -1.4650 H   0  0  0  0  0  0  0  0  0  0  0  0
    8.8970   -5.2000    0.2340 H   0  0  0  0  0  0  0  0  0  0  0  0
    9.2300   -1.9740    0.9550 H   0  0  0  0  0  0  0  0  0  0  0  0
    6.5250    1.8900   -0.2420 H   0  0  0  0  0  0  0  0  0  0  0  0
    4.4380    2.5200    1.9940 H   0  0  0  0  0  0  0  0  0  0  0  0
    6.1660    3.5970   -1.2230 H   0  0  0  0  0  0  0  0  0  0  0  0
    6.0060    5.8840   -2.1500 H   0  0  0  0  0  0  0  0  0  0  0  0
    4.7860    7.6520   -0.9080 H   0  0  0  0  0  0  0  0  0  0  0  0
    3.6780    7.1120    1.2490 H   0  0  0  0  0  0  0  0  0  0  0  0
    3.7950    4.8240    2.1720 H   0  0  0  0  0  0  0  0  0  0  0  0
    3.6250    0.8070   -2.5390 H   0  0  0  0  0  0  0  0  0  0  0  0
    2.1240    1.7300   -2.3190 H   0  0  0  0  0  0  0  0  0  0  0  0
    3.6070    2.2030   -1.4420 H   0  0  0  0  0  0  0  0  0  0  0  0
  2  1  1  6
  2  3  1  0
  2 71  1  0
  2 40  1  0
  3  4  1  0
  4 28  1  0
  4  5  1  6
  4  6  1  0
  6  7  1  0
  6 77  1  0
  6 78  1  0
  7  8  1  6
  7 26  1  0
  7  9  1  0
  9 22  1  0
  9 11  1  0
  9 10  1  1
 11 79  1  0
 11 12  1  0
 11 80  1  0
 12 13  2  0
 12 81  1  0
 13 20  1  0
 13 14  1  0
 14 15  1  0
 14 82  1  0
 14 83  1  0
 15 18  1  0
 15 16  1  6
 15 17  1  0
 17 84  1  0
 18 19  1  0
 18 85  1  0
 18 86  1  0
 19 87  1  0
 19 88  1  0
 19 20  1  0
 20 22  1  0
 20 21  1  1
 21 91  1  0
 21 89  1  0
 21 90  1  0
 22 24  1  0
 22 23  1  6
 24 25  1  0
 24 92  1  0
 24 93  1  0
 25 94  1  0
 25 95  1  0
 25 26  1  0
 26 28  1  0
 26 27  1  1
 27 98  1  0
 27 96  1  0
 27 97  1  0
 28 29  1  6
 28 30  1  0
 29 99  1  0
 30 32  1  0
 30 31  1  6
 30 33  1  0
 32101  1  0
 32102  1  0
 32100  1  0
 33 35  1  0
 33 34  2  0
 35103  1  0
 35104  1  0
 35 36  1  0
 36 37  1  0
 36106  1  0
 36105  1  0
 37 39  1  0
 37107  1  6
 37 38  1  0
 38109  1  0
 38108  1  0
 38110  1  0
 39111  1  0
 39112  1  0
 39113  1  0
 40 41  1  0
 41115  1  0
 41114  1  0
 41 42  1  0
 42 45  1  0
 42 43  1  1
 42 44  1  0
 44116  1  0
 45 46  1  6
 45 71  1  0
 45 47  1  0
 47 48  1  0
 48 49  1  6
 48 50  1  0
 48 58  1  0
 50 51  1  0
 51118  1  0
 51117  1  0
 51 52  1  0
 52 54  1  0
 52 55  1  0
 52 53  1  1
 54119  1  0
 55 56  1  6
 55 58  1  0
 55 57  1  0
 57120  1  0
 58 60  1  0
 58 59  1  1
 60 61  1  0
 61 63  1  0
 61 62  2  0
 63121  1  0
 63 64  2  0
 64 65  1  0
 64122  1  0
 65 66  2  0
 65 70  1  0
 66123  1  0
 66 67  1  0
 67124  1  0
 67 68  2  0
 68125  1  0
 68 69  1  0
 69 70  2  0
 69126  1  0
 70127  1  0
 71 73  1  0
 71 72  1  1
 73 74  1  0
 74 75  1  0
 74 76  2  0
 75128  1  0
 75129  1  0
 75130  1  0
M  END
>  <id>  (512) 
616

>  <scaffolds>  (512) 
['c1ccccc1', 'C1=C2CCCCC2C2CCC3CCCC3C2C1', 'C1=CCCCC1', 'C1=CCC2CCCCC2C1', 'C1=C2CCCCC2C2CCC3CC(OC4CCCCO4)CC3C2C1', 'C1CCOCC1', 'C1CCCCC1', 'C1=C2CCCCC2C2CCC3CC(OC4CC(OC5CCCCO5)CCO4)CC3C2C1', 'C1=C2CCCCC2CCC1', 'O=C(C=Cc1ccccc1)OC1CCCOC1OC1CCOC(OC2CC3CCC4C5CCCCC5=CCC4C3C2)C1']

>  <name>  (512) 
3[beta],16[beta],17[alpha]-trihydroxycholest-5-en-22-one 16-0-{0-(2-E-cinnamoyl-[beta]-D-xylopyranosyl)-(1[to]3)-2-O-acetyl-[alpha]-L-arabinopyranoside}

>  <formula>  (512) 
C48H68O14

>  <SMILES>  (512) 
[H][C@@]7(O[C@H]4C[C@@]3([H])[C@]2([H])CC=C1C[C@@H](O)CC[C@]1(C)[C@@]2([H])CC[C@]3(C)[C@@]4(O)[C@H](C)C(=O)CCC(C)C)OC[C@H](O)[C@H](O[C@]5([H])OC[C@@H](O)[C@H](O)[C@H]5OC(=O)/C=C/c6ccccc6)[C@H]7OC(C)=O

>  <ChEMBL_id>  (512) 


>  <ZINC_id>  (512) 


>  <PubChem_id>  (512) 


>  <DrugBank_id>  (512) 


>  <CAS_no>  (512) 
183729-11-5

>  <references>  (512) 
[{'journal': {'name': 'Bioorganic & Medicinal Chemistry Letters', 'id': 28}, 'title': 'Cholestane glycosides with potent cytostatic activities on various tumor cells from Ornithogalum saundersiae bulbs', 'year': 1997, 'start_page': 633, 'volume': 7, 'issue': 5, 'doi': '10.1016/S0960-894X(97)00071-1', 'isbn': '', 'despositor': {'code': 'NFA', 'first_name': 'Ngonidzashe', 'last_name': 'Faya', 'id': 21}, 'refauthors_set': [{'author': {'first_name': 'Yoshihiro ', 'initials': 'Y', 'last_name': 'Mimaki', 'id': 643}, 'first_author': True, 'id': 890}, {'author': {'first_name': 'Minpei', 'initials': 'M', 'last_name': 'Kuroda', 'id': 644}, 'first_author': None, 'id': 1217}, {'author': {'first_name': 'Aiko', 'initials': 'A', 'last_name': 'Kameyama', 'id': 652}, 'first_author': None, 'id': 1218}, {'author': {'first_name': 'Yutaka', 'initials': 'Y', 'last_name': 'Sashida', 'id': 645}, 'first_author': None, 'id': 1219}, {'author': {'first_name': 'Kitaro ', 'initials': 'K', 'last_name': 'Oka', 'id': 642}, 'first_author': None, 'id': 1220}], 'id': 305}]

>  <classifications>  (512) 
[{'classification': 'Cholestane', 'id': 761}, {'classification': 'Glycoside', 'id': 781}, {'classification': 'Steroids and steroid derivatives (Classyfire)', 'id': 942}]

>  <molecular_mass>  (512) 
869.04

$$$$
SANC00617_minRM1.pdb
     RDKit          3D

151158  0  0  1  0  0  0  0  0999 V2000
   -2.5080    2.0560   -2.2550 H   0  0  0  0  0  0  0  0  0  0  0  0
   -2.2610    1.8020   -1.1820 C   0  0  2  0  0  0  0  0  0  0  0  0
   -1.4650    0.6600   -1.0670 O   0  0  0  0  0  0  0  0  0  0  0  0
   -0.2170    0.7210   -1.7050 C   0  0  1  0  0  0  0  0  0  0  0  0
   -0.1660    1.5700   -2.4440 H   0  0  0  0  0  0  0  0  0  0  0  0
    0.9070    0.9190   -0.6680 C   0  0  0  0  0  0  0  0  0  0  0  0
    2.0890    0.2690   -1.3780 C   0  0  1  0  0  0  0  0  0  0  0  0
    2.3460    0.9210   -2.2590 H   0  0  0  0  0  0  0  0  0  0  0  0
    3.3640    0.0520   -0.5780 C   0  0  2  0  0  0  0  0  0  0  0  0
    3.1660   -0.5850    0.3190 H   0  0  0  0  0  0  0  0  0  0  0  0
    3.9170    1.3900   -0.0850 C   0  0  0  0  0  0  0  0  0  0  0  0
    5.2900    1.2400    0.4580 C   0  0  0  0  0  0  0  0  0  0  0  0
    6.0790    0.1930    0.2110 C   0  0  0  0  0  0  0  0  0  0  0  0
    7.4120    0.0900    0.8770 C   0  0  0  0  0  0  0  0  0  0  0  0
    8.5100   -0.2620   -0.1340 C   0  0  1  0  0  0  0  0  0  0  0  0
    8.6740    0.5920   -0.8420 H   0  0  0  0  0  0  0  0  0  0  0  0
    9.6930   -0.6200    0.5560 O   0  0  0  0  0  0  0  0  0  0  0  0
   10.4520    0.4310    1.0680 C   0  0  2  0  0  0  0  0  0  0  0  0
    9.8550    1.1800    1.6620 H   0  0  0  0  0  0  0  0  0  0  0  0
   11.0560    1.0100   -0.0630 O   0  0  0  0  0  0  0  0  0  0  0  0
   11.9290    2.0610    0.2650 C   0  0  2  0  0  0  0  0  0  0  0  0
   11.4110    2.8690    0.8520 H   0  0  0  0  0  0  0  0  0  0  0  0
   12.4090    2.6210   -1.0900 C   0  0  0  0  0  0  0  0  0  0  0  0
   11.3180    3.3050   -1.6350 O   0  0  0  0  0  0  0  0  0  0  0  0
   13.1240    1.4860    1.0710 C   0  0  1  0  0  0  0  0  0  0  0  0
   13.6900    0.7370    0.4520 H   0  0  0  0  0  0  0  0  0  0  0  0
   13.9100    2.5860    1.4070 O   0  0  0  0  0  0  0  0  0  0  0  0
   12.5750    0.8130    2.3570 C   0  0  2  0  0  0  0  0  0  0  0  0
   12.1070    1.5800    3.0340 H   0  0  0  0  0  0  0  0  0  0  0  0
   13.6860    0.2110    2.9520 O   0  0  0  0  0  0  0  0  0  0  0  0
   11.5410   -0.2590    1.9420 C   0  0  1  0  0  0  0  0  0  0  0  0
   12.0420   -1.0860    1.3700 H   0  0  0  0  0  0  0  0  0  0  0  0
   10.9760   -0.7100    3.1330 O   0  0  0  0  0  0  0  0  0  0  0  0
    8.1340   -1.5320   -0.9040 C   0  0  0  0  0  0  0  0  0  0  0  0
    6.8090   -1.3140   -1.6170 C   0  0  0  0  0  0  0  0  0  0  0  0
    5.6670   -0.9630   -0.6520 C   0  0  1  0  0  0  0  0  0  0  0  0
    5.3680   -2.1470    0.2700 C   0  0  0  0  0  0  0  0  0  0  0  0
    4.4150   -0.5970   -1.4930 C   0  0  1  0  0  0  0  0  0  0  0  0
    4.7150    0.1680   -2.2580 H   0  0  0  0  0  0  0  0  0  0  0  0
    3.8800   -1.8180   -2.2510 C   0  0  0  0  0  0  0  0  0  0  0  0
    2.5280   -1.5780   -2.9280 C   0  0  0  0  0  0  0  0  0  0  0  0
    1.5200   -1.0650   -1.8940 C   0  0  1  0  0  0  0  0  0  0  0  0
    1.3980   -2.1190   -0.7980 C   0  0  0  0  0  0  0  0  0  0  0  0
    0.1100   -0.6350   -2.4470 C   0  0  2  0  0  0  0  0  0  0  0  0
    0.3530   -0.3480   -3.7970 O   0  0  0  0  0  0  0  0  0  0  0  0
   -0.9800   -1.7370   -2.4100 C   0  0  2  0  0  0  0  0  0  0  0  0
   -0.5190   -2.6330   -2.9090 H   0  0  0  0  0  0  0  0  0  0  0  0
   -2.2140   -1.3420   -3.2220 C   0  0  0  0  0  0  0  0  0  0  0  0
   -1.4650   -2.1510   -1.0330 C   0  0  0  0  0  0  0  0  0  0  0  0
   -1.4320   -1.4270   -0.0640 O   0  0  0  0  0  0  0  0  0  0  0  0
   -2.0350   -3.5560   -0.9380 C   0  0  0  0  0  0  0  0  0  0  0  0
   -2.2220   -3.9740    0.5180 C   0  0  0  0  0  0  0  0  0  0  0  0
   -2.6880   -5.4270    0.6490 C   0  0  1  0  0  0  0  0  0  0  0  0
   -2.7030   -5.8170    2.1260 C   0  0  0  0  0  0  0  0  0  0  0  0
   -4.0820   -5.6140    0.0630 C   0  0  0  0  0  0  0  0  0  0  0  0
   -1.5140    2.8300   -0.5740 O   0  0  0  0  0  0  0  0  0  0  0  0
   -2.1990    4.0480   -0.5090 C   0  0  0  0  0  0  0  0  0  0  0  0
   -3.4920    3.9270    0.3290 C   0  0  2  0  0  0  0  0  0  0  0  0
   -4.0450    4.9050    0.3170 H   0  0  0  0  0  0  0  0  0  0  0  0
   -3.2160    3.5110    1.6280 O   0  0  0  0  0  0  0  0  0  0  0  0
   -4.3660    2.8130   -0.2950 C   0  0  2  0  0  0  0  0  0  0  0  0
   -4.6710    3.1260   -1.3300 H   0  0  0  0  0  0  0  0  0  0  0  0
   -5.4520    2.5600    0.5590 O   0  0  0  0  0  0  0  0  0  0  0  0
   -6.7010    2.9640    0.0850 C   0  0  2  0  0  0  0  0  0  0  0  0
   -6.9480    2.5500   -0.9350 H   0  0  0  0  0  0  0  0  0  0  0  0
   -6.6170    4.3730    0.0610 O   0  0  0  0  0  0  0  0  0  0  0  0
   -7.8270    4.9990   -0.2540 C   0  0  0  0  0  0  0  0  0  0  0  0
   -8.8780    4.6820    0.8310 C   0  0  1  0  0  0  0  0  0  0  0  0
   -8.5370    5.0580    1.8330 H   0  0  0  0  0  0  0  0  0  0  0  0
  -10.1130    5.2120    0.4560 O   0  0  0  0  0  0  0  0  0  0  0  0
   -9.0870    3.1480    0.8750 C   0  0  2  0  0  0  0  0  0  0  0  0
   -9.5080    2.7820   -0.1020 H   0  0  0  0  0  0  0  0  0  0  0  0
   -9.8970    2.7960    1.9500 O   0  0  0  0  0  0  0  0  0  0  0  0
   -7.7150    2.4910    1.1670 C   0  0  1  0  0  0  0  0  0  0  0  0
   -7.3470    2.7580    2.1960 H   0  0  0  0  0  0  0  0  0  0  0  0
   -7.8700    1.1130    0.9340 O   0  0  0  0  0  0  0  0  0  0  0  0
   -7.8920    0.2480    1.9880 C   0  0  0  0  0  0  0  0  0  0  0  0
   -7.7460    0.6310    3.1280 O   0  0  0  0  0  0  0  0  0  0  0  0
   -8.0860   -1.1360    1.5350 C   0  0  0  0  0  0  0  0  0  0  0  0
   -9.0110   -1.4460    0.5380 C   0  0  0  0  0  0  0  0  0  0  0  0
   -9.1850   -2.7610    0.1450 C   0  0  0  0  0  0  0  0  0  0  0  0
   -8.4190   -3.7630    0.7620 C   0  0  0  0  0  0  0  0  0  0  0  0
   -8.6730   -5.0110    0.2780 O   0  0  0  0  0  0  0  0  0  0  0  0
   -8.0790   -6.0970    0.9440 C   0  0  0  0  0  0  0  0  0  0  0  0
   -7.4910   -3.4600    1.7560 C   0  0  0  0  0  0  0  0  0  0  0  0
   -7.3320   -2.1340    2.1430 C   0  0  0  0  0  0  0  0  0  0  0  0
   -3.5390    1.5050   -0.3430 C   0  0  1  0  0  0  0  0  0  0  0  0
   -3.2630    1.1530    0.6890 H   0  0  0  0  0  0  0  0  0  0  0  0
   -4.2770    0.5830   -1.1090 O   0  0  0  0  0  0  0  0  0  0  0  0
   -4.7990   -0.5260   -0.5120 C   0  0  0  0  0  0  0  0  0  0  0  0
   -5.4380   -1.4200   -1.5290 C   0  0  0  0  0  0  0  0  0  0  0  0
   -4.7310   -0.7080    0.6850 O   0  0  0  0  0  0  0  0  0  0  0  0
    1.0660    1.9890   -0.4340 H   0  0  0  0  0  0  0  0  0  0  0  0
    0.6690    0.4550    0.3090 H   0  0  0  0  0  0  0  0  0  0  0  0
    3.9270    2.1550   -0.8910 H   0  0  0  0  0  0  0  0  0  0  0  0
    3.2500    1.8200    0.6930 H   0  0  0  0  0  0  0  0  0  0  0  0
    5.6230    2.0680    1.0910 H   0  0  0  0  0  0  0  0  0  0  0  0
    7.6700    1.0310    1.4090 H   0  0  0  0  0  0  0  0  0  0  0  0
    7.3640   -0.6680    1.6890 H   0  0  0  0  0  0  0  0  0  0  0  0
   13.2480    3.3380   -0.9360 H   0  0  0  0  0  0  0  0  0  0  0  0
   12.8040    1.8080   -1.7420 H   0  0  0  0  0  0  0  0  0  0  0  0
   11.2800    3.0910   -2.5720 H   0  0  0  0  0  0  0  0  0  0  0  0
   14.6810    2.2570    1.8820 H   0  0  0  0  0  0  0  0  0  0  0  0
   13.3880   -0.1870    3.7780 H   0  0  0  0  0  0  0  0  0  0  0  0
   10.3810   -1.4340    2.9160 H   0  0  0  0  0  0  0  0  0  0  0  0
    8.9320   -1.7870   -1.6340 H   0  0  0  0  0  0  0  0  0  0  0  0
    8.0930   -2.4130   -0.2290 H   0  0  0  0  0  0  0  0  0  0  0  0
    6.9280   -0.5150   -2.3790 H   0  0  0  0  0  0  0  0  0  0  0  0
    6.5560   -2.2240   -2.2010 H   0  0  0  0  0  0  0  0  0  0  0  0
    6.2400   -2.4770    0.8520 H   0  0  0  0  0  0  0  0  0  0  0  0
    4.5810   -1.9110    1.0020 H   0  0  0  0  0  0  0  0  0  0  0  0
    5.0230   -3.0320   -0.2880 H   0  0  0  0  0  0  0  0  0  0  0  0
    4.6150   -2.1380   -3.0220 H   0  0  0  0  0  0  0  0  0  0  0  0
    3.7990   -2.6970   -1.5670 H   0  0  0  0  0  0  0  0  0  0  0  0
    2.6640   -0.8720   -3.7750 H   0  0  0  0  0  0  0  0  0  0  0  0
    2.1590   -2.5100   -3.4050 H   0  0  0  0  0  0  0  0  0  0  0  0
    2.3770   -2.5200   -0.4750 H   0  0  0  0  0  0  0  0  0  0  0  0
    0.9310   -1.7490    0.1230 H   0  0  0  0  0  0  0  0  0  0  0  0
    0.8560   -3.0170   -1.1260 H   0  0  0  0  0  0  0  0  0  0  0  0
   -0.3950    0.1320   -4.1630 H   0  0  0  0  0  0  0  0  0  0  0  0
   -3.1040   -1.9520   -2.9860 H   0  0  0  0  0  0  0  0  0  0  0  0
   -2.5330   -0.3030   -3.0620 H   0  0  0  0  0  0  0  0  0  0  0  0
   -2.0570   -1.4670   -4.3040 H   0  0  0  0  0  0  0  0  0  0  0  0
   -3.0000   -3.5870   -1.4850 H   0  0  0  0  0  0  0  0  0  0  0  0
   -1.3810   -4.2780   -1.4700 H   0  0  0  0  0  0  0  0  0  0  0  0
   -1.2650   -3.8320    1.0660 H   0  0  0  0  0  0  0  0  0  0  0  0
   -2.9340   -3.2870    1.0250 H   0  0  0  0  0  0  0  0  0  0  0  0
   -1.9720   -6.1000    0.1090 H   0  0  0  0  0  0  0  0  0  0  0  0
   -3.3910   -5.1920    2.7150 H   0  0  0  0  0  0  0  0  0  0  0  0
   -3.0160   -6.8600    2.2760 H   0  0  0  0  0  0  0  0  0  0  0  0
   -1.7120   -5.7190    2.5930 H   0  0  0  0  0  0  0  0  0  0  0  0
   -4.8170   -4.9300    0.5130 H   0  0  0  0  0  0  0  0  0  0  0  0
   -4.1100   -5.4450   -1.0230 H   0  0  0  0  0  0  0  0  0  0  0  0
   -4.4610   -6.6360    0.2190 H   0  0  0  0  0  0  0  0  0  0  0  0
   -1.4610    4.7380   -0.0480 H   0  0  0  0  0  0  0  0  0  0  0  0
   -2.4230    4.4580   -1.5210 H   0  0  0  0  0  0  0  0  0  0  0  0
   -2.6520    4.1780    2.0310 H   0  0  0  0  0  0  0  0  0  0  0  0
   -7.5730    6.0790   -0.2890 H   0  0  0  0  0  0  0  0  0  0  0  0
   -8.1960    4.7280   -1.2690 H   0  0  0  0  0  0  0  0  0  0  0  0
  -10.0820    6.1610    0.6050 H   0  0  0  0  0  0  0  0  0  0  0  0
  -10.7820    3.1340    1.7690 H   0  0  0  0  0  0  0  0  0  0  0  0
   -9.6040   -0.6520    0.0690 H   0  0  0  0  0  0  0  0  0  0  0  0
   -9.9120   -3.0190   -0.6310 H   0  0  0  0  0  0  0  0  0  0  0  0
   -6.9810   -6.1220    0.8290 H   0  0  0  0  0  0  0  0  0  0  0  0
   -8.3320   -6.1500    2.0150 H   0  0  0  0  0  0  0  0  0  0  0  0
   -8.5060   -6.9760    0.4380 H   0  0  0  0  0  0  0  0  0  0  0  0
   -6.8840   -4.2240    2.2450 H   0  0  0  0  0  0  0  0  0  0  0  0
   -6.6070   -1.8750    2.9240 H   0  0  0  0  0  0  0  0  0  0  0  0
   -4.7440   -1.6560   -2.3570 H   0  0  0  0  0  0  0  0  0  0  0  0
   -5.7460   -2.3740   -1.0700 H   0  0  0  0  0  0  0  0  0  0  0  0
   -6.3370   -0.9540   -1.9630 H   0  0  0  0  0  0  0  0  0  0  0  0
  2  1  1  6
  2  3  1  0
  2 56  1  0
  2 87  1  0
  3  4  1  0
  4 44  1  0
  4  5  1  6
  4  6  1  0
  6  7  1  0
  6 93  1  0
  6 94  1  0
  7  8  1  6
  7 42  1  0
  7  9  1  0
  9 38  1  0
  9 11  1  0
  9 10  1  1
 11 95  1  0
 11 12  1  0
 11 96  1  0
 12 13  2  0
 12 97  1  0
 13 36  1  0
 13 14  1  0
 14 15  1  0
 14 98  1  0
 14 99  1  0
 15 34  1  0
 15 16  1  6
 15 17  1  0
 17 18  1  0
 18 20  1  0
 18 19  1  1
 18 31  1  0
 20 21  1  0
 21 23  1  0
 21 22  1  1
 21 25  1  0
 23101  1  0
 23 24  1  0
 23100  1  0
 24102  1  0
 25 26  1  6
 25 27  1  0
 25 28  1  0
 27103  1  0
 28 31  1  0
 28 30  1  0
 28 29  1  1
 30104  1  0
 31 32  1  6
 31 33  1  0
 33105  1  0
 34106  1  0
 34 35  1  0
 34107  1  0
 35108  1  0
 35109  1  0
 35 36  1  0
 36 38  1  0
 36 37  1  1
 37112  1  0
 37110  1  0
 37111  1  0
 38 39  1  6
 38 40  1  0
 40113  1  0
 40 41  1  0
 40114  1  0
 41115  1  0
 41116  1  0
 41 42  1  0
 42 44  1  0
 42 43  1  1
 43119  1  0
 43117  1  0
 43118  1  0
 44 45  1  6
 44 46  1  0
 45120  1  0
 46 48  1  0
 46 47  1  6
 46 49  1  0
 48123  1  0
 48122  1  0
 48121  1  0
 49 51  1  0
 49 50  2  0
 51124  1  0
 51125  1  0
 51 52  1  0
 52 53  1  0
 52127  1  0
 52126  1  0
 53 55  1  0
 53128  1  6
 53 54  1  0
 54130  1  0
 54131  1  0
 54129  1  0
 55133  1  0
 55134  1  0
 55132  1  0
 56 57  1  0
 57136  1  0
 57135  1  0
 57 58  1  0
 58 61  1  0
 58 59  1  1
 58 60  1  0
 60137  1  0
 61 62  1  6
 61 87  1  0
 61 63  1  0
 63 64  1  0
 64 65  1  6
 64 66  1  0
 64 74  1  0
 66 67  1  0
 67139  1  0
 67138  1  0
 67 68  1  0
 68 70  1  0
 68 71  1  0
 68 69  1  1
 70140  1  0
 71 72  1  6
 71 74  1  0
 71 73  1  0
 73141  1  0
 74 76  1  0
 74 75  1  1
 76 77  1  0
 77 79  1  0
 77 78  2  0
 79 80  2  0
 79 86  1  0
 80142  1  0
 80 81  1  0
 81143  1  0
 81 82  2  0
 82 83  1  0
 82 85  1  0
 83 84  1  0
 84146  1  0
 84144  1  0
 84145  1  0
 85 86  2  0
 85147  1  0
 86148  1  0
 87 89  1  0
 87 88  1  1
 89 90  1  0
 90 91  1  0
 90 92  2  0
 91149  1  0
 91151  1  0
 91150  1  0
M  END
>  <id>  (513) 
617

>  <scaffolds>  (513) 
['c1ccccc1', 'C1=C2CCCCC2C2CCC3CCCC3C2C1', 'C1=CCCCC1', 'C1=CCC2CCCCC2C1', 'C1=C2CCCCC2C2CCC3CC(OC4CCCCO4)CC3C2C1', 'C1CCOCC1', 'C1=C2CC(OC3CCCCO3)CCC2C2CCC3CCCC3C2C1', 'O=C(OC1CCCOC1OC1CCOC(OC2CC3CCC4C5CCC(OC6CCCCO6)CC5=CCC4C3C2)C1)c1ccccc1', 'C1=C2CC(OC3CCCCO3)CCC2C2CCC3CC(OC4CCCCO4)CC3C2C1', 'C1CCCCC1', 'O=C(OC1CCCOC1OC1CCOC(OC2CC3CCC4C5CCCCC5=CCC4C3C2)C1)c1ccccc1', 'C1=C2CCCCC2C2CCC3CC(OC4CC(OC5CCCCO5)CCO4)CC3C2C1', 'C1=C2CCCCC2CCC1', 'C1=C2CC(OC3CCCCO3)CCC2C2CCC3CC(OC4CC(OC5CCCCO5)CCO4)CC3C2C1']

>  <name>  (513) 
3[beta],16[beta],17[alpha]-trihydroxycholest-5-en-22-one 3-O-[beta]-D-glucopyranoside 16-O-{O-(2-O-4-methoxybenzoyl-[beta]-D-xylopyranosyl)-(1[to]3)-2-O-acetyl-[alpha]-L-arabinopyrano-side}

>  <formula>  (513) 
C53H78O20

>  <SMILES>  (513) 
[H][C@@]8(O[C@H]5C[C@@]4([H])[C@]3([H])CC=C2C[C@@H](O[C@]1([H])O[C@H](CO)[C@@H](O)[C@H](O)[C@H]1O)CC[C@]2(C)[C@@]3([H])CC[C@]4(C)[C@@]5(O)[C@H](C)C(=O)CCC(C)C)OC[C@H](O)[C@H](O[C@]6([H])OC[C@@H](O)[C@H](O)[C@H]6OC(=O)c7ccc(OC)cc7)[C@H]8OC(C)=O

>  <ChEMBL_id>  (513) 


>  <ZINC_id>  (513) 


>  <PubChem_id>  (513) 


>  <DrugBank_id>  (513) 


>  <CAS_no>  (513) 
183729-12-6

>  <references>  (513) 
[{'journal': {'name': 'Bioorganic & Medicinal Chemistry Letters', 'id': 28}, 'title': 'Cholestane glycosides with potent cytostatic activities on various tumor cells from Ornithogalum saundersiae bulbs', 'year': 1997, 'start_page': 633, 'volume': 7, 'issue': 5, 'doi': '10.1016/S0960-894X(97)00071-1', 'isbn': '', 'despositor': {'code': 'NFA', 'first_name': 'Ngonidzashe', 'last_name': 'Faya', 'id': 21}, 'refauthors_set': [{'author': {'first_name': 'Yoshihiro ', 'initials': 'Y', 'last_name': 'Mimaki', 'id': 643}, 'first_author': True, 'id': 890}, {'author': {'first_name': 'Minpei', 'initials': 'M', 'last_name': 'Kuroda', 'id': 644}, 'first_author': None, 'id': 1217}, {'author': {'first_name': 'Aiko', 'initials': 'A', 'last_name': 'Kameyama', 'id': 652}, 'first_author': None, 'id': 1218}, {'author': {'first_name': 'Yutaka', 'initials': 'Y', 'last_name': 'Sashida', 'id': 645}, 'first_author': None, 'id': 1219}, {'author': {'first_name': 'Kitaro ', 'initials': 'K', 'last_name': 'Oka', 'id': 642}, 'first_author': None, 'id': 1220}], 'id': 305}]

>  <classifications>  (513) 
[{'classification': 'Cholestane', 'id': 761}, {'classification': 'Glycoside', 'id': 781}, {'classification': 'Steroids and steroid derivatives (Classyfire)', 'id': 942}]

>  <molecular_mass>  (513) 
1035.17

$$$$
SANC00618_minRM1.pdb
     RDKit          3D

151158  0  0  1  0  0  0  0  0999 V2000
    2.5530    2.1180    2.3640 H   0  0  0  0  0  0  0  0  0  0  0  0
    2.3260    1.8590    1.2890 C   0  0  2  0  0  0  0  0  0  0  0  0
    1.5890    0.6790    1.1580 O   0  0  0  0  0  0  0  0  0  0  0  0
    0.3350    0.6640    1.7860 C   0  0  1  0  0  0  0  0  0  0  0  0
    0.2670    1.4460    2.5940 H   0  0  0  0  0  0  0  0  0  0  0  0
   -0.7920    0.9200    0.7660 C   0  0  0  0  0  0  0  0  0  0  0  0
   -1.9630    0.2090    1.4340 C   0  0  1  0  0  0  0  0  0  0  0  0
   -2.2240    0.7910    2.3610 H   0  0  0  0  0  0  0  0  0  0  0  0
   -3.2380    0.0330    0.6270 C   0  0  2  0  0  0  0  0  0  0  0  0
   -3.0300   -0.5430   -0.3100 H   0  0  0  0  0  0  0  0  0  0  0  0
   -3.8120    1.3930    0.2250 C   0  0  0  0  0  0  0  0  0  0  0  0
   -5.1830    1.2560   -0.3330 C   0  0  0  0  0  0  0  0  0  0  0  0
   -5.9470    0.1760   -0.1630 C   0  0  0  0  0  0  0  0  0  0  0  0
   -7.2700    0.0820   -0.8500 C   0  0  0  0  0  0  0  0  0  0  0  0
   -8.3670   -0.3410    0.1340 C   0  0  1  0  0  0  0  0  0  0  0  0
   -8.5470    0.4670    0.8910 H   0  0  0  0  0  0  0  0  0  0  0  0
   -9.5420   -0.6720   -0.5850 O   0  0  0  0  0  0  0  0  0  0  0  0
  -10.3060    0.4010   -1.0380 C   0  0  2  0  0  0  0  0  0  0  0  0
   -9.7100    1.1880   -1.5810 H   0  0  0  0  0  0  0  0  0  0  0  0
  -10.9250    0.9070    0.1190 O   0  0  0  0  0  0  0  0  0  0  0  0
  -11.8080    1.9660   -0.1540 C   0  0  2  0  0  0  0  0  0  0  0  0
  -11.2960    2.8130   -0.6890 H   0  0  0  0  0  0  0  0  0  0  0  0
  -12.3040    2.4350    1.2300 C   0  0  0  0  0  0  0  0  0  0  0  0
  -11.2220    3.1120    1.8080 O   0  0  0  0  0  0  0  0  0  0  0  0
  -12.9890    1.4260   -1.0000 C   0  0  1  0  0  0  0  0  0  0  0  0
  -13.5500    0.6340   -0.4320 H   0  0  0  0  0  0  0  0  0  0  0  0
  -13.7890    2.5330   -1.2770 O   0  0  0  0  0  0  0  0  0  0  0  0
  -12.4230    0.8380   -2.3190 C   0  0  2  0  0  0  0  0  0  0  0  0
  -11.9580    1.6500   -2.9440 H   0  0  0  0  0  0  0  0  0  0  0  0
  -13.5180    0.2670   -2.9640 O   0  0  0  0  0  0  0  0  0  0  0  0
  -11.3790   -0.2450   -1.9630 C   0  0  1  0  0  0  0  0  0  0  0  0
  -11.8760   -1.1120   -1.4480 H   0  0  0  0  0  0  0  0  0  0  0  0
  -10.7970   -0.6120   -3.1770 O   0  0  0  0  0  0  0  0  0  0  0  0
   -7.9780   -1.6540    0.8250 C   0  0  0  0  0  0  0  0  0  0  0  0
   -6.6550   -1.4750    1.5540 C   0  0  0  0  0  0  0  0  0  0  0  0
   -5.5150   -1.0280    0.6250 C   0  0  1  0  0  0  0  0  0  0  0  0
   -5.1820   -2.1370   -0.3760 C   0  0  0  0  0  0  0  0  0  0  0  0
   -4.2790   -0.6880    1.4980 C   0  0  1  0  0  0  0  0  0  0  0  0
   -4.5980    0.0310    2.2990 H   0  0  0  0  0  0  0  0  0  0  0  0
   -3.7360   -1.9380    2.2030 C   0  0  0  0  0  0  0  0  0  0  0  0
   -2.3650   -1.7480    2.8550 C   0  0  0  0  0  0  0  0  0  0  0  0
   -1.3800   -1.1540    1.8440 C   0  0  1  0  0  0  0  0  0  0  0  0
   -1.2860   -2.1220    0.6690 C   0  0  0  0  0  0  0  0  0  0  0  0
    0.0360   -0.7590    2.4080 C   0  0  2  0  0  0  0  0  0  0  0  0
   -0.1770   -0.6010    3.7840 O   0  0  0  0  0  0  0  0  0  0  0  0
    1.1240   -1.8460    2.2410 C   0  0  2  0  0  0  0  0  0  0  0  0
    0.6780   -2.7850    2.6680 H   0  0  0  0  0  0  0  0  0  0  0  0
    2.3860   -1.5280    3.0440 C   0  0  0  0  0  0  0  0  0  0  0  0
    1.5570   -2.1180    0.8120 C   0  0  0  0  0  0  0  0  0  0  0  0
    1.5520   -1.2750   -0.0580 O   0  0  0  0  0  0  0  0  0  0  0  0
    2.0430   -3.5280    0.5300 C   0  0  0  0  0  0  0  0  0  0  0  0
    2.0830   -3.8030   -0.9710 C   0  0  0  0  0  0  0  0  0  0  0  0
    2.3340   -5.2810   -1.2870 C   0  0  1  0  0  0  0  0  0  0  0  0
    2.2290   -5.4970   -2.7950 C   0  0  0  0  0  0  0  0  0  0  0  0
    3.7090   -5.7290   -0.8070 C   0  0  0  0  0  0  0  0  0  0  0  0
    1.5330    2.8510    0.6800 O   0  0  0  0  0  0  0  0  0  0  0  0
    2.1640    4.0970    0.5890 C   0  0  0  0  0  0  0  0  0  0  0  0
    3.4520    4.0190   -0.2640 C   0  0  2  0  0  0  0  0  0  0  0  0
    3.9590    5.0220   -0.2790 H   0  0  0  0  0  0  0  0  0  0  0  0
    3.1800    3.5620   -1.5500 O   0  0  0  0  0  0  0  0  0  0  0  0
    4.3830    2.9630    0.3770 C   0  0  2  0  0  0  0  0  0  0  0  0
    4.6800    3.3130    1.4030 H   0  0  0  0  0  0  0  0  0  0  0  0
    5.4700    2.7410   -0.4880 O   0  0  0  0  0  0  0  0  0  0  0  0
    6.7080    3.1980   -0.0220 C   0  0  2  0  0  0  0  0  0  0  0  0
    6.9610    2.8600    1.0240 H   0  0  0  0  0  0  0  0  0  0  0  0
    6.5840    4.6000   -0.0980 O   0  0  0  0  0  0  0  0  0  0  0  0
    7.7730    5.2830    0.1750 C   0  0  0  0  0  0  0  0  0  0  0  0
    8.8440    4.9170   -0.8740 C   0  0  1  0  0  0  0  0  0  0  0  0
    8.5050    5.2170   -1.9040 H   0  0  0  0  0  0  0  0  0  0  0  0
   10.0620    5.4990   -0.5310 O   0  0  0  0  0  0  0  0  0  0  0  0
    9.0920    3.3890   -0.8190 C   0  0  2  0  0  0  0  0  0  0  0  0
    9.5180    3.1010    0.1820 H   0  0  0  0  0  0  0  0  0  0  0  0
    9.9150    2.9920   -1.8730 O   0  0  0  0  0  0  0  0  0  0  0  0
    7.7400    2.6780   -1.0680 C   0  0  1  0  0  0  0  0  0  0  0  0
    7.3740    2.8610   -2.1150 H   0  0  0  0  0  0  0  0  0  0  0  0
    7.9390    1.3280   -0.7350 O   0  0  0  0  0  0  0  0  0  0  0  0
    7.9410    0.3720   -1.7050 C   0  0  0  0  0  0  0  0  0  0  0  0
    7.7420    0.6450   -2.8680 O   0  0  0  0  0  0  0  0  0  0  0  0
    8.2190   -0.9490   -1.1240 C   0  0  0  0  0  0  0  0  0  0  0  0
    7.6180   -2.0290   -1.6350 C   0  0  0  0  0  0  0  0  0  0  0  0
    7.8410   -3.3750   -1.1200 C   0  0  0  0  0  0  0  0  0  0  0  0
    8.6190   -3.6030    0.0150 C   0  0  0  0  0  0  0  0  0  0  0  0
    8.8140   -4.8970    0.4840 C   0  0  0  0  0  0  0  0  0  0  0  0
    8.2520   -5.9730   -0.1900 C   0  0  0  0  0  0  0  0  0  0  0  0
    7.4850   -5.7520   -1.3300 C   0  0  0  0  0  0  0  0  0  0  0  0
    7.2660   -4.4600   -1.7850 C   0  0  0  0  0  0  0  0  0  0  0  0
    3.6210    1.6180    0.4560 C   0  0  1  0  0  0  0  0  0  0  0  0
    3.3640    1.2290   -0.5690 H   0  0  0  0  0  0  0  0  0  0  0  0
    4.4150    0.7590    1.2410 O   0  0  0  0  0  0  0  0  0  0  0  0
    4.9550   -0.3610    0.6830 C   0  0  0  0  0  0  0  0  0  0  0  0
    5.7060   -1.1550    1.7080 C   0  0  0  0  0  0  0  0  0  0  0  0
    4.8100   -0.6410   -0.4910 O   0  0  0  0  0  0  0  0  0  0  0  0
   -0.9670    2.0000    0.6040 H   0  0  0  0  0  0  0  0  0  0  0  0
   -0.5460    0.5230   -0.2380 H   0  0  0  0  0  0  0  0  0  0  0  0
   -3.8400    2.0990    1.0850 H   0  0  0  0  0  0  0  0  0  0  0  0
   -3.1470    1.8880   -0.5160 H   0  0  0  0  0  0  0  0  0  0  0  0
   -5.5360    2.1210   -0.9090 H   0  0  0  0  0  0  0  0  0  0  0  0
   -7.5440    1.0430   -1.3380 H   0  0  0  0  0  0  0  0  0  0  0  0
   -7.1980   -0.6340   -1.6990 H   0  0  0  0  0  0  0  0  0  0  0  0
  -13.1640    3.1380    1.1140 H   0  0  0  0  0  0  0  0  0  0  0  0
  -12.6790    1.5780    1.8350 H   0  0  0  0  0  0  0  0  0  0  0  0
  -11.2560    2.9400    2.7550 H   0  0  0  0  0  0  0  0  0  0  0  0
  -14.5500    2.2210   -1.7790 H   0  0  0  0  0  0  0  0  0  0  0  0
  -13.2120   -0.0950   -3.8020 H   0  0  0  0  0  0  0  0  0  0  0  0
  -10.1930   -1.3400   -2.9920 H   0  0  0  0  0  0  0  0  0  0  0  0
   -8.7740   -1.9600    1.5380 H   0  0  0  0  0  0  0  0  0  0  0  0
   -7.9310   -2.4920    0.0970 H   0  0  0  0  0  0  0  0  0  0  0  0
   -6.7840   -0.7460    2.3840 H   0  0  0  0  0  0  0  0  0  0  0  0
   -6.3900   -2.4310    2.0560 H   0  0  0  0  0  0  0  0  0  0  0  0
   -6.0550   -2.4840   -0.9460 H   0  0  0  0  0  0  0  0  0  0  0  0
   -4.4390   -1.8160   -1.1210 H   0  0  0  0  0  0  0  0  0  0  0  0
   -4.7660   -3.0330    0.1160 H   0  0  0  0  0  0  0  0  0  0  0  0
   -4.4520   -2.2620    2.9880 H   0  0  0  0  0  0  0  0  0  0  0  0
   -3.7010   -2.8000    1.5000 H   0  0  0  0  0  0  0  0  0  0  0  0
   -2.4770   -1.1100    3.7560 H   0  0  0  0  0  0  0  0  0  0  0  0
   -1.9840   -2.7120    3.2490 H   0  0  0  0  0  0  0  0  0  0  0  0
   -2.2770   -2.4220    0.2860 H   0  0  0  0  0  0  0  0  0  0  0  0
   -0.7730   -1.7140   -0.2100 H   0  0  0  0  0  0  0  0  0  0  0  0
   -0.8090   -3.0750    0.9370 H   0  0  0  0  0  0  0  0  0  0  0  0
    0.5830   -0.1520    4.1710 H   0  0  0  0  0  0  0  0  0  0  0  0
    2.6820   -0.4700    3.0020 H   0  0  0  0  0  0  0  0  0  0  0  0
    2.2760   -1.7870    4.1070 H   0  0  0  0  0  0  0  0  0  0  0  0
    3.2710   -2.0890    2.6970 H   0  0  0  0  0  0  0  0  0  0  0  0
    3.0490   -3.6480    0.9820 H   0  0  0  0  0  0  0  0  0  0  0  0
    1.4060   -4.2750    1.0470 H   0  0  0  0  0  0  0  0  0  0  0  0
    1.1220   -3.4830   -1.4310 H   0  0  0  0  0  0  0  0  0  0  0  0
    2.8490   -3.1600   -1.4530 H   0  0  0  0  0  0  0  0  0  0  0  0
    1.5520   -5.9060   -0.7820 H   0  0  0  0  0  0  0  0  0  0  0  0
    2.9730   -4.9120   -3.3530 H   0  0  0  0  0  0  0  0  0  0  0  0
    2.3810   -6.5500   -3.0730 H   0  0  0  0  0  0  0  0  0  0  0  0
    1.2420   -5.2120   -3.1890 H   0  0  0  0  0  0  0  0  0  0  0  0
    3.7940   -5.7340    0.2890 H   0  0  0  0  0  0  0  0  0  0  0  0
    3.9440   -6.7540   -1.1320 H   0  0  0  0  0  0  0  0  0  0  0  0
    4.5170   -5.0880   -1.1880 H   0  0  0  0  0  0  0  0  0  0  0  0
    1.3900    4.7440    0.1230 H   0  0  0  0  0  0  0  0  0  0  0  0
    2.3800    4.5330    1.5910 H   0  0  0  0  0  0  0  0  0  0  0  0
    2.6080    4.2110   -1.9730 H   0  0  0  0  0  0  0  0  0  0  0  0
    7.4860    6.3530    0.1220 H   0  0  0  0  0  0  0  0  0  0  0  0
    8.1410    5.1000    1.2120 H   0  0  0  0  0  0  0  0  0  0  0  0
   10.0130    6.4330   -0.7470 H   0  0  0  0  0  0  0  0  0  0  0  0
   10.7910    3.3510   -1.7060 H   0  0  0  0  0  0  0  0  0  0  0  0
    8.9260   -0.9820   -0.2890 H   0  0  0  0  0  0  0  0  0  0  0  0
    6.9170   -1.9300   -2.4760 H   0  0  0  0  0  0  0  0  0  0  0  0
    9.0890   -2.7620    0.5380 H   0  0  0  0  0  0  0  0  0  0  0  0
    9.4170   -5.0680    1.3820 H   0  0  0  0  0  0  0  0  0  0  0  0
    8.4150   -6.9920    0.1740 H   0  0  0  0  0  0  0  0  0  0  0  0
    7.0570   -6.5980   -1.8750 H   0  0  0  0  0  0  0  0  0  0  0  0
    6.6450   -4.2980   -2.6720 H   0  0  0  0  0  0  0  0  0  0  0  0
    5.0020   -1.7730    2.2930 H   0  0  0  0  0  0  0  0  0  0  0  0
    6.4280   -1.8290    1.2240 H   0  0  0  0  0  0  0  0  0  0  0  0
    6.2660   -0.5270    2.4110 H   0  0  0  0  0  0  0  0  0  0  0  0
  2  1  1  1
  2 87  1  0
  2 56  1  0
  2  3  1  0
  3  4  1  0
  4  6  1  0
  4 44  1  0
  4  5  1  1
  6 94  1  0
  6 93  1  0
  6  7  1  0
  7  9  1  0
  7 42  1  0
  7  8  1  1
  9 10  1  6
  9 11  1  0
  9 38  1  0
 11 96  1  0
 11 12  1  0
 11 95  1  0
 12 97  1  0
 12 13  2  0
 13 14  1  0
 13 36  1  0
 14 99  1  0
 14 98  1  0
 14 15  1  0
 15 17  1  0
 15 34  1  0
 15 16  1  1
 17 18  1  0
 18 31  1  0
 18 19  1  6
 18 20  1  0
 20 21  1  0
 21 25  1  0
 21 22  1  6
 21 23  1  0
 23100  1  0
 23 24  1  0
 23101  1  0
 24102  1  0
 25 28  1  0
 25 27  1  0
 25 26  1  1
 27103  1  0
 28 30  1  0
 28 29  1  6
 28 31  1  0
 30104  1  0
 31 33  1  0
 31 32  1  1
 33105  1  0
 34107  1  0
 34106  1  0
 34 35  1  0
 35 36  1  0
 35109  1  0
 35108  1  0
 36 37  1  6
 36 38  1  0
 37111  1  0
 37110  1  0
 37112  1  0
 38 40  1  0
 38 39  1  1
 40114  1  0
 40 41  1  0
 40113  1  0
 41 42  1  0
 41116  1  0
 41115  1  0
 42 43  1  6
 42 44  1  0
 43118  1  0
 43117  1  0
 43119  1  0
 44 46  1  0
 44 45  1  1
 45120  1  0
 46 49  1  0
 46 47  1  1
 46 48  1  0
 48123  1  0
 48121  1  0
 48122  1  0
 49 50  2  0
 49 51  1  0
 51 52  1  0
 51124  1  0
 51125  1  0
 52127  1  0
 52126  1  0
 52 53  1  0
 53 54  1  0
 53 55  1  0
 53128  1  1
 54129  1  0
 54131  1  0
 54130  1  0
 55134  1  0
 55133  1  0
 55132  1  0
 56 57  1  0
 57 58  1  0
 57135  1  0
 57136  1  0
 58 60  1  0
 58 59  1  6
 58 61  1  0
 60137  1  0
 61 63  1  0
 61 87  1  0
 61 62  1  1
 63 64  1  0
 64 74  1  0
 64 66  1  0
 64 65  1  1
 66 67  1  0
 67 68  1  0
 67138  1  0
 67139  1  0
 68 69  1  6
 68 71  1  0
 68 70  1  0
 70140  1  0
 71 73  1  0
 71 74  1  0
 71 72  1  1
 73141  1  0
 74 75  1  6
 74 76  1  0
 76 77  1  0
 77 78  2  0
 77 79  1  0
 79 80  2  0
 79142  1  0
 80143  1  0
 80 81  1  0
 81 86  2  0
 81 82  1  0
 82 83  2  0
 82144  1  0
 83 84  1  0
 83145  1  0
 84 85  2  0
 84146  1  0
 85147  1  0
 85 86  1  0
 86148  1  0
 87 88  1  6
 87 89  1  0
 89 90  1  0
 90 92  2  0
 90 91  1  0
 91150  1  0
 91149  1  0
 91151  1  0
M  END
>  <id>  (514) 
618

>  <scaffolds>  (514) 
['c1ccccc1', 'C1=C2CCCCC2C2CCC3CCCC3C2C1', 'C1=CCCCC1', 'C1=CCC2CCCCC2C1', 'C1=C2CCCCC2C2CCC3CC(OC4CCCCO4)CC3C2C1', 'C1CCOCC1', 'C1=C2CC(OC3CCCCO3)CCC2C2CCC3CCCC3C2C1', 'C1=C2CC(OC3CCCCO3)CCC2C2CCC3CC(OC4CCCCO4)CC3C2C1', 'C1CCCCC1', 'O=C(C=Cc1ccccc1)OC1CCCOC1OC1CCOC(OC2CC3CCC4C5CCC(OC6CCCCO6)CC5=CCC4C3C2)C1', 'C1=C2CCCCC2C2CCC3CC(OC4CC(OC5CCCCO5)CCO4)CC3C2C1', 'C1=C2CCCCC2CCC1', 'C1=C2CC(OC3CCCCO3)CCC2C2CCC3CC(OC4CC(OC5CCCCO5)CCO4)CC3C2C1', 'O=C(C=Cc1ccccc1)OC1CCCOC1OC1CCOC(OC2CC3CCC4C5CCCCC5=CCC4C3C2)C1']

>  <name>  (514) 
3[beta],16[beta],17[alpha]-trihydroxycholest-5-en-22-one 3-O-[beta]-D-glucopyranoside 16-O-{O-(2-E-cinnamoyl-[beta]-D-xyopyranosyl)-(1[to]3)-2-O-acetyl-[alpha]-L-arabinopyranoside}

>  <formula>  (514) 
C54H78O19

>  <SMILES>  (514) 
[H][C@@]8(O[C@H]5C[C@@]4([H])[C@]3([H])CC=C2C[C@@H](O[C@]1([H])O[C@H](CO)[C@@H](O)[C@H](O)[C@H]1O)CC[C@]2(C)[C@@]3([H])CC[C@]4(C)[C@@]5(O)[C@H](C)C(=O)CCC(C)C)OC[C@H](O)[C@H](O[C@]6([H])OC[C@@H](O)[C@H](O)[C@H]6OC(=O)/C=C/c7ccccc7)[C@H]8OC(C)=O

>  <ChEMBL_id>  (514) 


>  <ZINC_id>  (514) 


>  <PubChem_id>  (514) 


>  <DrugBank_id>  (514) 


>  <CAS_no>  (514) 
183729-13-7

>  <references>  (514) 
[{'journal': {'name': 'Bioorganic & Medicinal Chemistry Letters', 'id': 28}, 'title': 'Cholestane glycosides with potent cytostatic activities on various tumor cells from Ornithogalum saundersiae bulbs', 'year': 1997, 'start_page': 633, 'volume': 7, 'issue': 5, 'doi': '10.1016/S0960-894X(97)00071-1', 'isbn': '', 'despositor': {'code': 'NFA', 'first_name': 'Ngonidzashe', 'last_name': 'Faya', 'id': 21}, 'refauthors_set': [{'author': {'first_name': 'Yoshihiro ', 'initials': 'Y', 'last_name': 'Mimaki', 'id': 643}, 'first_author': True, 'id': 890}, {'author': {'first_name': 'Minpei', 'initials': 'M', 'last_name': 'Kuroda', 'id': 644}, 'first_author': None, 'id': 1217}, {'author': {'first_name': 'Aiko', 'initials': 'A', 'last_name': 'Kameyama', 'id': 652}, 'first_author': None, 'id': 1218}, {'author': {'first_name': 'Yutaka', 'initials': 'Y', 'last_name': 'Sashida', 'id': 645}, 'first_author': None, 'id': 1219}, {'author': {'first_name': 'Kitaro ', 'initials': 'K', 'last_name': 'Oka', 'id': 642}, 'first_author': None, 'id': 1220}], 'id': 305}, {'journal': {'name': 'Chemical and Pharmaceutical Bulletin', 'id': 33}, 'title': 'Cholestane Glycosides from the Bulbs of Galtonia candicans and Their Cytotoxicity', 'year': 2001, 'start_page': 1042, 'volume': 49, 'issue': 8, 'doi': '10.1248/cpb.49.1042', 'isbn': '', 'despositor': {'code': 'NFA', 'first_name': 'Ngonidzashe', 'last_name': 'Faya', 'id': 21}, 'refauthors_set': [{'author': {'first_name': 'Minpei', 'initials': 'M', 'last_name': 'Kuroda', 'id': 644}, 'first_author': True, 'id': 1191}, {'author': {'first_name': 'Yoshihiro ', 'initials': 'Y', 'last_name': 'Mimaki', 'id': 643}, 'first_author': None, 'id': 1192}, {'author': {'first_name': 'Akihito ', 'initials': 'A', 'last_name': 'Yokosuka', 'id': 650}, 'first_author': None, 'id': 1193}, {'author': {'first_name': 'Yutaka', 'initials': 'Y', 'last_name': 'Sashida', 'id': 645}, 'first_author': None, 'id': 1194}], 'id': 339}]

>  <classifications>  (514) 
[{'classification': 'Cholestane', 'id': 761}, {'classification': 'Glycoside', 'id': 781}, {'classification': 'Steroids and steroid derivatives (Classyfire)', 'id': 942}]

>  <molecular_mass>  (514) 
1031.18

$$$$
SANC00619_minRM1.pdb
     RDKit          3D

 80 83  0  0  1  0  0  0  0  0999 V2000
    1.8860   -2.0160   -0.0390 H   0  0  0  0  0  0  0  0  0  0  0  0
    1.8870   -1.2370   -0.8460 C   0  0  2  0  0  0  0  0  0  0  0  0
    1.1310   -1.8050   -2.0460 C   0  0  0  0  0  0  0  0  0  0  0  0
   -0.2950   -2.1560   -1.6430 C   0  0  0  0  0  0  0  0  0  0  0  0
   -1.0100   -0.9320   -1.0800 C   0  0  1  0  0  0  0  0  0  0  0  0
   -1.0860   -0.1510   -1.8870 H   0  0  0  0  0  0  0  0  0  0  0  0
   -2.4000   -1.3130   -0.5880 C   0  0  2  0  0  0  0  0  0  0  0  0
   -2.2810   -2.0330    0.2660 H   0  0  0  0  0  0  0  0  0  0  0  0
   -3.3540   -1.9500   -1.5930 C   0  0  0  0  0  0  0  0  0  0  0  0
   -4.7500   -1.6660   -1.0100 C   0  0  0  0  0  0  0  0  0  0  0  0
   -4.5640   -0.6950    0.1790 C   0  0  2  0  0  0  0  0  0  0  0  0
   -4.4970   -1.2880    1.1280 H   0  0  0  0  0  0  0  0  0  0  0  0
   -5.7360    0.2820    0.3270 C   0  0  2  0  0  0  0  0  0  0  0  0
   -5.8520    0.8920   -0.6040 H   0  0  0  0  0  0  0  0  0  0  0  0
   -5.5060    1.2170    1.5100 C   0  0  0  0  0  0  0  0  0  0  0  0
   -7.0410   -0.4970    0.5600 C   0  0  0  0  0  0  0  0  0  0  0  0
   -8.2460    0.4410    0.5930 C   0  0  0  0  0  0  0  0  0  0  0  0
   -9.5280   -0.3370    0.8880 C   0  0  0  0  0  0  0  0  0  0  0  0
  -10.6990    0.5880    0.8960 C   0  0  0  0  0  0  0  0  0  0  0  0
  -11.7660    0.4120    0.1270 C   0  0  0  0  0  0  0  0  0  0  0  0
   -3.1780   -0.0710   -0.1060 C   0  0  2  0  0  0  0  0  0  0  0  0
   -3.2850    0.9910   -1.1960 C   0  0  0  0  0  0  0  0  0  0  0  0
   -2.4280    0.4830    1.1010 C   0  0  0  0  0  0  0  0  0  0  0  0
   -0.9900    0.8380    0.7180 C   0  0  0  0  0  0  0  0  0  0  0  0
   -0.2360   -0.3510    0.1150 C   0  0  2  0  0  0  0  0  0  0  0  0
   -0.1630   -1.1420    0.9090 H   0  0  0  0  0  0  0  0  0  0  0  0
    1.1990    0.0340   -0.3180 C   0  0  2  0  0  0  0  0  0  0  0  0
    1.1590    1.1230   -1.3860 C   0  0  0  0  0  0  0  0  0  0  0  0
    1.9790    0.5160    0.9140 C   0  0  0  0  0  0  0  0  0  0  0  0
    3.4740    0.7290    0.6830 C   0  0  2  0  0  0  0  0  0  0  0  0
    3.9850    0.9250    1.6680 H   0  0  0  0  0  0  0  0  0  0  0  0
    3.6780    1.8270   -0.1710 O   0  0  0  0  0  0  0  0  0  0  0  0
    4.2060    3.2750    0.1200 S   0  0  1  0  0  0  0  0  0  0  0  0
    3.7440    4.1060   -0.9100 O   0  0  0  0  0  0  0  0  0  0  0  0
    4.0720    3.5200    1.4930 O   0  0  0  0  0  0  0  0  0  0  0  0
    5.7060    3.0100   -0.1770 O   0  0  0  0  0  0  0  0  0  0  0  0
    4.1450   -0.4710   -0.0310 C   0  0  1  0  0  0  0  0  0  0  0  0
    5.1950   -0.2100   -0.3390 H   0  0  0  0  0  0  0  0  0  0  0  0
    4.1950   -1.4770    0.9490 O   0  0  0  0  0  0  0  0  0  0  0  0
    5.1610   -2.7020    1.0920 S   0  0  1  0  0  0  0  0  0  0  0  0
    4.7020   -3.4870    2.1570 O   0  0  0  0  0  0  0  0  0  0  0  0
    5.4660   -3.1680   -0.1940 O   0  0  0  0  0  0  0  0  0  0  0  0
    6.3990   -1.9310    1.6170 O   0  0  0  0  0  0  0  0  0  0  0  0
    3.3320   -0.9370   -1.2340 C   0  0  0  0  0  0  0  0  0  0  0  0
    1.1380   -1.1020   -2.9050 H   0  0  0  0  0  0  0  0  0  0  0  0
    1.6470   -2.7100   -2.4360 H   0  0  0  0  0  0  0  0  0  0  0  0
   -0.8460   -2.5590   -2.5190 H   0  0  0  0  0  0  0  0  0  0  0  0
   -0.2960   -2.9910   -0.9100 H   0  0  0  0  0  0  0  0  0  0  0  0
   -3.2340   -1.5240   -2.6090 H   0  0  0  0  0  0  0  0  0  0  0  0
   -3.1690   -3.0330   -1.7260 H   0  0  0  0  0  0  0  0  0  0  0  0
   -5.4220   -1.2530   -1.7890 H   0  0  0  0  0  0  0  0  0  0  0  0
   -5.2450   -2.6030   -0.6850 H   0  0  0  0  0  0  0  0  0  0  0  0
   -4.6160    1.8530    1.3800 H   0  0  0  0  0  0  0  0  0  0  0  0
   -6.3550    1.9010    1.6640 H   0  0  0  0  0  0  0  0  0  0  0  0
   -5.3670    0.6740    2.4560 H   0  0  0  0  0  0  0  0  0  0  0  0
   -7.1990   -1.2620   -0.2270 H   0  0  0  0  0  0  0  0  0  0  0  0
   -6.9790   -1.0790    1.5040 H   0  0  0  0  0  0  0  0  0  0  0  0
   -8.0960    1.2430    1.3490 H   0  0  0  0  0  0  0  0  0  0  0  0
   -8.3450    0.9830   -0.3710 H   0  0  0  0  0  0  0  0  0  0  0  0
   -9.6580   -1.1630    0.1560 H   0  0  0  0  0  0  0  0  0  0  0  0
   -9.4630   -0.8490    1.8740 H   0  0  0  0  0  0  0  0  0  0  0  0
  -10.6310    1.4320    1.5920 H   0  0  0  0  0  0  0  0  0  0  0  0
  -12.6230    1.0780    0.1380 H   0  0  0  0  0  0  0  0  0  0  0  0
  -11.8840   -0.4040   -0.5790 H   0  0  0  0  0  0  0  0  0  0  0  0
   -3.5820    1.9720   -0.7990 H   0  0  0  0  0  0  0  0  0  0  0  0
   -2.3350    1.1470   -1.7330 H   0  0  0  0  0  0  0  0  0  0  0  0
   -4.0130    0.7420   -1.9810 H   0  0  0  0  0  0  0  0  0  0  0  0
   -2.9420    1.3790    1.5130 H   0  0  0  0  0  0  0  0  0  0  0  0
   -2.4350   -0.2440    1.9410 H   0  0  0  0  0  0  0  0  0  0  0  0
   -0.9880    1.7120    0.0350 H   0  0  0  0  0  0  0  0  0  0  0  0
   -0.4600    1.2080    1.6240 H   0  0  0  0  0  0  0  0  0  0  0  0
    1.0670    2.1340   -0.9640 H   0  0  0  0  0  0  0  0  0  0  0  0
    2.0640    1.1400   -2.0160 H   0  0  0  0  0  0  0  0  0  0  0  0
    0.3100    1.0060   -2.0800 H   0  0  0  0  0  0  0  0  0  0  0  0
    1.5330    1.4480    1.3220 H   0  0  0  0  0  0  0  0  0  0  0  0
    1.8790   -0.2220    1.7410 H   0  0  0  0  0  0  0  0  0  0  0  0
    6.2210    3.0590   -0.9770 H   0  0  0  0  0  0  0  0  0  0  0  0
    6.7900   -1.8320    2.4810 H   0  0  0  0  0  0  0  0  0  0  0  0
    3.8090   -1.8200   -1.7120 H   0  0  0  0  0  0  0  0  0  0  0  0
    3.3700   -0.1420   -2.0130 H   0  0  0  0  0  0  0  0  0  0  0  0
  2  1  1  1
  2  3  1  0
  2 44  1  0
  2 27  1  0
  3 45  1  0
  3 46  1  0
  3  4  1  0
  4 47  1  0
  4  5  1  0
  4 48  1  0
  5  6  1  6
  5  7  1  0
  5 25  1  0
  7  9  1  0
  7 21  1  0
  7  8  1  1
  9 49  1  0
  9 50  1  0
  9 10  1  0
 10 51  1  0
 10 52  1  0
 10 11  1  0
 11 21  1  0
 11 13  1  0
 11 12  1  1
 13 14  1  6
 13 16  1  0
 13 15  1  0
 15 53  1  0
 15 54  1  0
 15 55  1  0
 16 56  1  0
 16 17  1  0
 16 57  1  0
 17 59  1  0
 17 18  1  0
 17 58  1  0
 18 60  1  0
 18 19  1  0
 18 61  1  0
 19 20  2  0
 19 62  1  0
 20 64  1  0
 20 63  1  0
 21 22  1  6
 21 23  1  0
 22 67  1  0
 22 66  1  0
 22 65  1  0
 23 24  1  0
 23 68  1  0
 23 69  1  0
 24 70  1  0
 24 25  1  0
 24 71  1  0
 25 27  1  0
 25 26  1  1
 27 28  1  6
 27 29  1  0
 28 74  1  0
 28 73  1  0
 28 72  1  0
 29 30  1  0
 29 75  1  0
 29 76  1  0
 30 32  1  0
 30 37  1  0
 30 31  1  1
 32 33  1  0
 33 34  1  6
 33 36  1  0
 33 35  1  0
 36 77  1  0
 37 44  1  0
 37 38  1  6
 37 39  1  0
 39 40  1  0
 40 42  1  6
 40 43  1  0
 40 41  1  0
 43 78  1  0
 44 80  1  0
 44 79  1  0
M  END
>  <id>  (515) 
619

>  <scaffolds>  (515) 
['C1CCC(C2CCCC2)CC1', 'C1CCCCC1', 'C1CCC2C(C1)CCC1C3CCCC3CCC21', 'C1CCC2CCCCC2C1']

>  <name>  (515) 
Halistanol disulfate B

>  <formula>  (515) 
C26H44O8S2

>  <SMILES>  (515) 
[H][C@@]34CC[C@@]2([H])[C@]1([H])CC[C@]([H])([C@H](C)CCCC=C)[C@@]1(C)CC[C@]2([H])[C@@]3(C)C[C@H](OS(=O)(=O)O)[C@@H](OS(=O)(=O)O)C4

>  <ChEMBL_id>  (515) 
CHEMBL462739

>  <ZINC_id>  (515) 


>  <PubChem_id>  (515) 
 177306

>  <DrugBank_id>  (515) 


>  <CAS_no>  (515) 
176666-83-4

>  <references>  (515) 
[{'journal': {'name': 'Journal of Natural Products', 'id': 5}, 'title': 'Halistanol Disulfate B, a Novel Sulfated Sterol from the Sponge Pachastrella sp.: Inhibitor of Endothelin Converting Enzyme', 'year': 1996, 'start_page': 606, 'volume': 59, 'issue': None, 'doi': '10.1021/np9601770', 'isbn': '', 'despositor': {'code': 'NFA', 'first_name': 'Ngonidzashe', 'last_name': 'Faya', 'id': 21}, 'refauthors_set': [{'author': {'first_name': 'Ashok', 'initials': 'AD', 'last_name': 'Patil', 'id': 811}, 'first_author': True, 'id': 1291}, {'author': {'first_name': 'Alan', 'initials': 'AJ', 'last_name': 'Freyer', 'id': 812}, 'first_author': False, 'id': 1292}, {'author': {'first_name': 'Ann', 'initials': 'A', 'last_name': 'Breen', 'id': 813}, 'first_author': False, 'id': 1293}, {'author': {'first_name': '', 'initials': 'B', 'last_name': 'Carte', 'id': 688}, 'first_author': False, 'id': 1294}, {'author': {'first_name': 'Randall', 'initials': 'RK', 'last_name': 'Johnson', 'id': 814}, 'first_author': False, 'id': 1295}], 'id': 374}]

>  <classifications>  (515) 
[{'classification': 'Sterol', 'id': 836}, {'classification': 'Steroids and steroid derivatives (Classyfire)', 'id': 942}]

>  <molecular_mass>  (515) 
548.75

$$$$
SANC00620_minRM1.pdb
     RDKit          3D

 58 61  0  0  1  0  0  0  0  0999 V2000
    0.6030   -0.0070    2.2830 H   0  0  0  0  0  0  0  0  0  0  0  0
    0.9820   -0.4090    1.3020 C   0  0  2  0  0  0  0  0  0  0  0  0
    0.0040   -1.5330    0.8270 C   0  0  2  0  0  0  0  0  0  0  0  0
   -0.0010   -2.4490    1.8840 O   0  0  0  0  0  0  0  0  0  0  0  0
    0.4970   -2.1980   -0.4370 C   0  0  0  0  0  0  0  0  0  0  0  0
    1.4760   -3.1730   -0.3670 C   0  0  0  0  0  0  0  0  0  0  0  0
    1.9950   -3.7370   -1.5390 C   0  0  0  0  0  0  0  0  0  0  0  0
    1.5380   -3.3490   -2.7790 C   0  0  0  0  0  0  0  0  0  0  0  0
    0.5290   -2.3690   -2.8520 C   0  0  0  0  0  0  0  0  0  0  0  0
    0.1280   -2.0290   -4.0870 O   0  0  0  0  0  0  0  0  0  0  0  0
   -0.0150   -1.8180   -1.6830 C   0  0  0  0  0  0  0  0  0  0  0  0
   -1.1630   -0.9360   -1.7760 C   0  0  0  0  0  0  0  0  0  0  0  0
   -1.5810   -0.5610   -2.8900 O   0  0  0  0  0  0  0  0  0  0  0  0
   -1.8840   -0.5840   -0.5680 C   0  0  0  0  0  0  0  0  0  0  0  0
   -3.1280    0.0570   -0.6610 C   0  0  0  0  0  0  0  0  0  0  0  0
   -3.6900    0.4310   -1.8220 O   0  0  0  0  0  0  0  0  0  0  0  0
   -3.8840    0.3250    0.4940 C   0  0  0  0  0  0  0  0  0  0  0  0
   -3.3500   -0.0050    1.7220 C   0  0  0  0  0  0  0  0  0  0  0  0
   -4.1320    0.2950    2.9740 C   0  0  0  0  0  0  0  0  0  0  0  0
   -4.8750   -0.8680    3.2110 O   0  0  0  0  0  0  0  0  0  0  0  0
   -2.0930   -0.6120    1.8310 C   0  0  0  0  0  0  0  0  0  0  0  0
   -1.3710   -0.9130    0.6900 C   0  0  0  0  0  0  0  0  0  0  0  0
    0.9500    0.5670    0.2920 O   0  0  0  0  0  0  0  0  0  0  0  0
    1.6340    1.7490    0.6320 C   0  0  2  0  0  0  0  0  0  0  0  0
    1.2270    2.2070    1.5750 H   0  0  0  0  0  0  0  0  0  0  0  0
    1.4440    2.6990   -0.5660 C   0  0  0  0  0  0  0  0  0  0  0  0
    0.1470    3.2370   -0.3960 O   0  0  0  0  0  0  0  0  0  0  0  0
   -0.2350    4.2150   -1.2600 C   0  0  0  0  0  0  0  0  0  0  0  0
   -1.6140    4.7130   -0.9770 C   0  0  0  0  0  0  0  0  0  0  0  0
    0.5210    4.5950   -2.1360 O   0  0  0  0  0  0  0  0  0  0  0  0
    3.1420    1.4290    0.7990 C   0  0  1  0  0  0  0  0  0  0  0  0
    3.5700    1.0690   -0.1750 H   0  0  0  0  0  0  0  0  0  0  0  0
    3.7530    2.5920    1.2740 O   0  0  0  0  0  0  0  0  0  0  0  0
    3.2970    0.3380    1.8850 C   0  0  2  0  0  0  0  0  0  0  0  0
    2.9680    0.7260    2.8870 H   0  0  0  0  0  0  0  0  0  0  0  0
    4.6180   -0.1130    1.9070 O   0  0  0  0  0  0  0  0  0  0  0  0
    2.4450   -0.8890    1.4650 C   0  0  1  0  0  0  0  0  0  0  0  0
    2.8450   -1.3000    0.4990 H   0  0  0  0  0  0  0  0  0  0  0  0
    2.4420   -1.8200    2.4980 O   0  0  0  0  0  0  0  0  0  0  0  0
   -0.6190   -3.1510    1.6520 H   0  0  0  0  0  0  0  0  0  0  0  0
    1.8580   -3.5230    0.5980 H   0  0  0  0  0  0  0  0  0  0  0  0
    2.7880   -4.4880   -1.4650 H   0  0  0  0  0  0  0  0  0  0  0  0
    1.9350   -3.7950   -3.6950 H   0  0  0  0  0  0  0  0  0  0  0  0
   -0.5860   -1.3560   -4.0660 H   0  0  0  0  0  0  0  0  0  0  0  0
   -3.0970    0.2300   -2.5870 H   0  0  0  0  0  0  0  0  0  0  0  0
   -4.8750    0.7800    0.4010 H   0  0  0  0  0  0  0  0  0  0  0  0
   -3.4560    0.5500    3.8250 H   0  0  0  0  0  0  0  0  0  0  0  0
   -4.7800    1.1950    2.8420 H   0  0  0  0  0  0  0  0  0  0  0  0
   -5.4000   -0.7090    4.0040 H   0  0  0  0  0  0  0  0  0  0  0  0
   -1.6950   -0.8470    2.8240 H   0  0  0  0  0  0  0  0  0  0  0  0
    2.2180    3.5000   -0.5580 H   0  0  0  0  0  0  0  0  0  0  0  0
    1.5320    2.1720   -1.5430 H   0  0  0  0  0  0  0  0  0  0  0  0
   -2.1120    4.1970   -0.1420 H   0  0  0  0  0  0  0  0  0  0  0  0
   -1.5870    5.7850   -0.7260 H   0  0  0  0  0  0  0  0  0  0  0  0
   -2.2520    4.6000   -1.8670 H   0  0  0  0  0  0  0  0  0  0  0  0
    4.5840    2.6930    0.8010 H   0  0  0  0  0  0  0  0  0  0  0  0
    5.1280    0.5180    2.4240 H   0  0  0  0  0  0  0  0  0  0  0  0
    3.3140   -2.2260    2.5200 H   0  0  0  0  0  0  0  0  0  0  0  0
  2  1  1  1
  2 23  1  0
  2  3  1  0
  2 37  1  0
  3  5  1  0
  3 22  1  0
  3  4  1  1
  4 40  1  0
  5 11  2  0
  5  6  1  0
  6  7  2  0
  6 41  1  0
  7  8  1  0
  7 42  1  0
  8 43  1  0
  8  9  2  0
  9 10  1  0
  9 11  1  0
 10 44  1  0
 11 12  1  0
 12 13  2  0
 12 14  1  0
 14 15  2  0
 14 22  1  0
 15 16  1  0
 15 17  1  0
 16 45  1  0
 17 46  1  0
 17 18  2  0
 18 21  1  0
 18 19  1  0
 19 48  1  0
 19 20  1  0
 19 47  1  0
 20 49  1  0
 21 22  2  0
 21 50  1  0
 23 24  1  0
 24 26  1  0
 24 31  1  0
 24 25  1  1
 26 52  1  0
 26 51  1  0
 26 27  1  0
 27 28  1  0
 28 30  2  0
 28 29  1  0
 29 55  1  0
 29 54  1  0
 29 53  1  0
 31 32  1  6
 31 33  1  0
 31 34  1  0
 33 56  1  0
 34 37  1  0
 34 36  1  0
 34 35  1  1
 36 57  1  0
 37 38  1  6
 37 39  1  0
 39 58  1  0
M  END
>  <id>  (516) 
620

>  <scaffolds>  (516) 
['c1ccccc1', 'C1CCOCC1', 'O=C(c1ccccc1)c1ccccc1', 'c1ccc(Cc2ccccc2)cc1', 'O=C1c2ccccc2C(C2CCCCO2)c2ccccc21']

>  <name>  (516) 
10-Hydroxyaloin B 6'-O-acetate

>  <formula>  (516) 
C23H24O11

>  <SMILES>  (516) 
[H][C@@]4([C@]3(O)c1cccc(O)c1C(=O)c2c(O)cc(CO)cc23)O[C@H](COC(C)=O)[C@@H](O)[C@H](O)[C@H]4O

>  <ChEMBL_id>  (516) 


>  <ZINC_id>  (516) 


>  <PubChem_id>  (516) 


>  <DrugBank_id>  (516) 


>  <CAS_no>  (516) 
201018-79-3

>  <references>  (516) 
[{'journal': {'name': 'Journal of Natural Products', 'id': 5}, 'title': "10-Hydroxyaloin B 6'-O-Acetate, an Oxanthrone from Aloe claviflora", 'year': 1998, 'start_page': 256, 'volume': 61, 'issue': None, 'doi': '10.1021/np970368i', 'isbn': '', 'despositor': {'code': 'NFA', 'first_name': 'Ngonidzashe', 'last_name': 'Faya', 'id': 21}, 'refauthors_set': [{'author': {'first_name': 'Ermias', 'initials': 'E', 'last_name': 'Dagne', 'id': 815}, 'first_author': True, 'id': 1352}, {'author': {'first_name': 'Daniel', 'initials': 'D', 'last_name': 'Bisrat', 'id': 816}, 'first_author': None, 'id': 1353}, {'author': {'first_name': 'Ben-Erik', 'initials': 'B', 'last_name': 'van Wyk', 'id': 635}, 'first_author': None, 'id': 1354}, {'author': {'first_name': 'Alvaro', 'initials': 'AM', 'last_name': 'Viljoen', 'id': 655}, 'first_author': None, 'id': 1355}], 'id': 375}]

>  <classifications>  (516) 
[{'classification': 'Oxanthrone', 'id': 802}, {'classification': 'Anthracenes (Classyfire)', 'id': 980}]

>  <molecular_mass>  (516) 
476.43

$$$$
SANC00621_minRM1.pdb
     RDKit          3D

 49 51  0  0  1  0  0  0  0  0999 V2000
    1.8250   -4.2570   -0.6650 C   0  0  0  0  0  0  0  0  0  0  0  0
    2.3780   -2.9420   -0.2660 C   0  0  0  0  0  0  0  0  0  0  0  0
    1.6450   -1.9320    0.2150 C   0  0  0  0  0  0  0  0  0  0  0  0
    2.2700   -0.6420    0.6380 C   0  0  0  0  0  0  0  0  0  0  0  0
    2.6900    0.2640   -0.5370 C   0  0  2  0  0  0  0  0  0  0  0  0
    3.8000    0.1340   -0.6660 H   0  0  0  0  0  0  0  0  0  0  0  0
    2.4550    1.7730   -0.2040 C   0  0  1  0  0  0  0  0  0  0  0  0
    1.3560    2.0370    0.8430 C   0  0  0  0  0  0  0  0  0  0  0  0
    1.6150    2.2880    2.0110 O   0  0  0  0  0  0  0  0  0  0  0  0
    0.0220    2.0790    0.5930 O   0  0  0  0  0  0  0  0  0  0  0  0
   -0.4880    1.7910   -0.6910 C   0  0  0  0  0  0  0  0  0  0  0  0
   -1.9080    1.4030   -0.4900 C   0  0  0  0  0  0  0  0  0  0  0  0
   -2.9220    1.8430   -1.2410 C   0  0  0  0  0  0  0  0  0  0  0  0
   -4.2280    1.2920   -0.7530 C   0  0  0  0  0  0  0  0  0  0  0  0
   -3.8930    0.3610    0.3800 N   0  0  0  0  0  0  0  0  0  0  0  0
   -2.4020    0.5160    0.6210 C   0  0  1  0  0  0  0  0  0  0  0  0
   -2.2630    1.0480    1.5980 H   0  0  0  0  0  0  0  0  0  0  0  0
   -1.8430   -0.9290    0.7070 C   0  0  1  0  0  0  0  0  0  0  0  0
   -1.8720   -1.2760    1.7760 H   0  0  0  0  0  0  0  0  0  0  0  0
   -2.7920   -1.7660   -0.1590 C   0  0  0  0  0  0  0  0  0  0  0  0
   -4.1440   -1.0780    0.0560 C   0  0  0  0  0  0  0  0  0  0  0  0
   -0.5150   -0.9460    0.2320 O   0  0  0  0  0  0  0  0  0  0  0  0
    0.1980   -2.0890    0.4360 C   0  0  0  0  0  0  0  0  0  0  0  0
   -0.3720   -3.1100    0.7800 O   0  0  0  0  0  0  0  0  0  0  0  0
    3.7630    2.3590    0.3670 C   0  0  0  0  0  0  0  0  0  0  0  0
    2.1220    2.4260   -1.3890 O   0  0  0  0  0  0  0  0  0  0  0  0
    2.0900   -0.1770   -1.8670 C   0  0  0  0  0  0  0  0  0  0  0  0
    1.5370   -4.8500    0.2200 H   0  0  0  0  0  0  0  0  0  0  0  0
    0.9220   -4.1710   -1.2900 H   0  0  0  0  0  0  0  0  0  0  0  0
    2.5460   -4.8630   -1.2330 H   0  0  0  0  0  0  0  0  0  0  0  0
    3.4630   -2.8210   -0.3810 H   0  0  0  0  0  0  0  0  0  0  0  0
    1.5920   -0.1470    1.3620 H   0  0  0  0  0  0  0  0  0  0  0  0
    3.1650   -0.8590    1.2650 H   0  0  0  0  0  0  0  0  0  0  0  0
   -0.4030    2.7040   -1.3260 H   0  0  0  0  0  0  0  0  0  0  0  0
    0.0480    0.9750   -1.2270 H   0  0  0  0  0  0  0  0  0  0  0  0
   -2.8790    2.5240   -2.0860 H   0  0  0  0  0  0  0  0  0  0  0  0
   -4.8700    2.0980   -0.3310 H   0  0  0  0  0  0  0  0  0  0  0  0
   -4.8240    0.8410   -1.5770 H   0  0  0  0  0  0  0  0  0  0  0  0
   -2.4870   -1.7610   -1.2250 H   0  0  0  0  0  0  0  0  0  0  0  0
   -2.8150   -2.8330    0.1290 H   0  0  0  0  0  0  0  0  0  0  0  0
   -4.6750   -1.5030    0.9390 H   0  0  0  0  0  0  0  0  0  0  0  0
   -4.8370   -1.2430   -0.7980 H   0  0  0  0  0  0  0  0  0  0  0  0
    4.5680    2.3630   -0.3830 H   0  0  0  0  0  0  0  0  0  0  0  0
    3.6490    3.3970    0.7140 H   0  0  0  0  0  0  0  0  0  0  0  0
    4.1200    1.7840    1.2340 H   0  0  0  0  0  0  0  0  0  0  0  0
    2.2080    3.3750   -1.2480 H   0  0  0  0  0  0  0  0  0  0  0  0
    0.9890   -0.1930   -1.8570 H   0  0  0  0  0  0  0  0  0  0  0  0
    2.3960    0.4620   -2.7090 H   0  0  0  0  0  0  0  0  0  0  0  0
    2.4160   -1.1900   -2.1480 H   0  0  0  0  0  0  0  0  0  0  0  0
  1 29  1  0
  1 30  1  0
  1  2  1  0
  1 28  1  0
  2 31  1  0
  2  3  2  0
  3 23  1  0
  3  4  1  0
  4  5  1  0
  4 33  1  0
  4 32  1  0
  5 27  1  0
  5  6  1  6
  5  7  1  0
  7 26  1  6
  7 25  1  0
  7  8  1  0
  8 10  1  0
  8  9  2  0
 10 11  1  0
 11 34  1  0
 11 35  1  0
 11 12  1  0
 12 13  2  0
 12 16  1  0
 13 36  1  0
 13 14  1  0
 14 38  1  0
 14 37  1  0
 15 14  1  0
 15 21  1  0
 15 16  1  0
 16 18  1  0
 16 17  1  1
 18 20  1  0
 18 22  1  0
 18 19  1  1
 20 39  1  0
 20 21  1  0
 20 40  1  0
 21 42  1  0
 21 41  1  0
 22 23  1  0
 23 24  2  0
 25 43  1  0
 25 44  1  0
 25 45  1  0
 26 46  1  0
 27 48  1  0
 27 49  1  0
 27 47  1  0
M  END
>  <id>  (517) 
621

>  <scaffolds>  (517) 
['O=C1CCCCC(=O)OC2CCN3CC=C(CO1)C23', 'C=C1CCCC(=O)OCC2=CCN3CCC(OC1=O)C23', 'C1CCNC1']

>  <name>  (517) 
Senecionine

>  <formula>  (517) 
C18H25NO5

>  <SMILES>  (517) 
C/C=C\1/C[C@H]([C@@](C(=O)OCC2=CCN3[C@H]2[C@@H](CC3)OC1=O)(C)O)C

>  <ChEMBL_id>  (517) 


>  <ZINC_id>  (517) 


>  <PubChem_id>  (517) 


>  <DrugBank_id>  (517) 


>  <CAS_no>  (517) 
130-01-8

>  <references>  (517) 
[{'journal': {'name': 'Phytochemistry', 'id': 10}, 'title': 'A re-investigation of the alkaloids of Senecio pterophorus', 'year': 1993, 'start_page': 1629, 'volume': 34, 'issue': 6, 'doi': '10.1016/S0031-9422(00)90859-8', 'isbn': '', 'despositor': {'code': 'TMM', 'first_name': 'Thommas', 'last_name': 'Musyoka', 'id': 22}, 'refauthors_set': [{'author': {'first_name': 'Richard', 'initials': 'J', 'last_name': 'Liddell', 'id': 819}, 'first_author': True, 'id': 1296}, {'author': {'first_name': 'Catherine', 'initials': 'CG', 'last_name': 'Logie', 'id': 446}, 'first_author': None, 'id': 1297}], 'id': 376}]

>  <classifications>  (517) 
[{'classification': 'Alkaloid', 'id': 738}, {'classification': 'Pyrrolizidine', 'id': 818}, {'classification': 'Macrolides and analogues (Classyfire)', 'id': 945}]

>  <molecular_mass>  (517) 
335.39

$$$$
SANC00622_minRM1.pdb
     RDKit          3D

 47 49  0  0  1  0  0  0  0  0999 V2000
    1.3520   -4.3070   -0.7760 C   0  0  0  0  0  0  0  0  0  0  0  0
    2.1090   -3.0780   -0.4350 C   0  0  0  0  0  0  0  0  0  0  0  0
    1.5660   -2.0130    0.1620 C   0  0  0  0  0  0  0  0  0  0  0  0
    2.3650   -0.8050    0.5270 C   0  0  0  0  0  0  0  0  0  0  0  0
    2.4140    0.2030   -0.5790 C   0  0  0  0  0  0  0  0  0  0  0  0
    2.4630   -0.1540   -1.8590 C   0  0  0  0  0  0  0  0  0  0  0  0
    2.5190    1.6410   -0.1290 C   0  0  1  0  0  0  0  0  0  0  0  0
    1.4340    1.9580    0.9110 C   0  0  0  0  0  0  0  0  0  0  0  0
    1.6800    2.1890    2.0830 O   0  0  0  0  0  0  0  0  0  0  0  0
    0.1150    2.0400    0.6140 O   0  0  0  0  0  0  0  0  0  0  0  0
   -0.3400    1.7880   -0.7020 C   0  0  0  0  0  0  0  0  0  0  0  0
   -1.7830    1.4560   -0.5690 C   0  0  0  0  0  0  0  0  0  0  0  0
   -2.7410    1.8620   -1.4060 C   0  0  0  0  0  0  0  0  0  0  0  0
   -4.0860    1.3820   -0.9490 C   0  0  0  0  0  0  0  0  0  0  0  0
   -3.8410    0.5370    0.2700 N   0  0  0  0  0  0  0  0  0  0  0  0
   -2.3590    0.6630    0.5720 C   0  0  1  0  0  0  0  0  0  0  0  0
   -2.2500    1.2480    1.5220 H   0  0  0  0  0  0  0  0  0  0  0  0
   -1.8400   -0.7850    0.7600 C   0  0  1  0  0  0  0  0  0  0  0  0
   -1.9040   -1.0660    1.8470 H   0  0  0  0  0  0  0  0  0  0  0  0
   -2.7850   -1.6470   -0.0870 C   0  0  0  0  0  0  0  0  0  0  0  0
   -4.1230   -0.9160    0.0560 C   0  0  0  0  0  0  0  0  0  0  0  0
   -0.5050   -0.8710    0.3100 O   0  0  0  0  0  0  0  0  0  0  0  0
    0.1520   -2.0320    0.5690 C   0  0  0  0  0  0  0  0  0  0  0  0
   -0.4260   -2.9650    1.1010 O   0  0  0  0  0  0  0  0  0  0  0  0
    3.9060    1.8610    0.4930 C   0  0  0  0  0  0  0  0  0  0  0  0
    2.3280    2.4720   -1.2340 O   0  0  0  0  0  0  0  0  0  0  0  0
    1.8820   -4.9370   -1.5060 H   0  0  0  0  0  0  0  0  0  0  0  0
    1.1860   -4.9260    0.1210 H   0  0  0  0  0  0  0  0  0  0  0  0
    0.3590   -4.1010   -1.2040 H   0  0  0  0  0  0  0  0  0  0  0  0
    3.1760   -3.0840   -0.6890 H   0  0  0  0  0  0  0  0  0  0  0  0
    1.9720   -0.3800    1.4770 H   0  0  0  0  0  0  0  0  0  0  0  0
    3.4090   -1.0980    0.7830 H   0  0  0  0  0  0  0  0  0  0  0  0
    2.4170   -1.1860   -2.1970 H   0  0  0  0  0  0  0  0  0  0  0  0
    2.5430    0.5390   -2.6920 H   0  0  0  0  0  0  0  0  0  0  0  0
   -0.1900    2.7050   -1.3190 H   0  0  0  0  0  0  0  0  0  0  0  0
    0.1870    0.9600   -1.2270 H   0  0  0  0  0  0  0  0  0  0  0  0
   -2.6330    2.4730   -2.2970 H   0  0  0  0  0  0  0  0  0  0  0  0
   -4.7260    2.2370   -0.6280 H   0  0  0  0  0  0  0  0  0  0  0  0
   -4.6510    0.8840   -1.7680 H   0  0  0  0  0  0  0  0  0  0  0  0
   -2.4540   -1.7040   -1.1440 H   0  0  0  0  0  0  0  0  0  0  0  0
   -2.8380   -2.6970    0.2570 H   0  0  0  0  0  0  0  0  0  0  0  0
   -4.6690   -1.2570    0.9660 H   0  0  0  0  0  0  0  0  0  0  0  0
   -4.8130   -1.1330   -0.7870 H   0  0  0  0  0  0  0  0  0  0  0  0
    4.7040    1.6630   -0.2370 H   0  0  0  0  0  0  0  0  0  0  0  0
    4.0440    2.8890    0.8610 H   0  0  0  0  0  0  0  0  0  0  0  0
    4.0810    1.2060    1.3580 H   0  0  0  0  0  0  0  0  0  0  0  0
    2.6270    3.3580   -1.0000 H   0  0  0  0  0  0  0  0  0  0  0  0
  1 27  1  0
  1 29  1  0
  1  2  1  0
  1 28  1  0
  2 30  1  0
  2  3  2  0
  3  4  1  0
  3 23  1  0
  4  5  1  0
  4 32  1  0
  4 31  1  0
  5  6  2  0
  5  7  1  0
  6 34  1  0
  6 33  1  0
  7 26  1  6
  7 25  1  0
  7  8  1  0
  8 10  1  0
  8  9  2  0
 10 11  1  0
 11 35  1  0
 11 36  1  0
 11 12  1  0
 12 13  2  0
 12 16  1  0
 13 37  1  0
 13 14  1  0
 14 39  1  0
 14 38  1  0
 15 14  1  0
 15 21  1  0
 15 16  1  0
 16 18  1  0
 16 17  1  1
 18 20  1  0
 18 22  1  0
 18 19  1  1
 20 40  1  0
 20 21  1  0
 20 41  1  0
 21 43  1  0
 21 42  1  0
 22 23  1  0
 23 24  2  0
 25 44  1  0
 25 45  1  0
 25 46  1  0
 26 47  1  0
M  END
>  <id>  (518) 
622

>  <scaffolds>  (518) 
['O=C1CCCCC(=O)OC2CCN3CC=C(CO1)C23', 'C=C1CCCC(=O)OCC2=CCN3CCC(OC1=O)C23', 'C1CCNC1']

>  <name>  (518) 
Seneciphylline

>  <formula>  (518) 
C18H23NO5

>  <SMILES>  (518) 
C/C=C\1/CC(=C)[C@@](C(=O)OCC2=CCN3[C@H]2[C@@H](CC3)OC1=O)(C)O

>  <ChEMBL_id>  (518) 


>  <ZINC_id>  (518) 


>  <PubChem_id>  (518) 


>  <DrugBank_id>  (518) 


>  <CAS_no>  (518) 
480-81-9

>  <references>  (518) 
[{'journal': {'name': 'Phytochemistry', 'id': 10}, 'title': 'A re-investigation of the alkaloids of Senecio pterophorus', 'year': 1993, 'start_page': 1629, 'volume': 34, 'issue': 6, 'doi': '10.1016/S0031-9422(00)90859-8', 'isbn': '', 'despositor': {'code': 'TMM', 'first_name': 'Thommas', 'last_name': 'Musyoka', 'id': 22}, 'refauthors_set': [{'author': {'first_name': 'Richard', 'initials': 'J', 'last_name': 'Liddell', 'id': 819}, 'first_author': True, 'id': 1296}, {'author': {'first_name': 'Catherine', 'initials': 'CG', 'last_name': 'Logie', 'id': 446}, 'first_author': None, 'id': 1297}], 'id': 376}]

>  <classifications>  (518) 
[{'classification': 'Alkaloid', 'id': 738}, {'classification': 'Pyrrolizidine', 'id': 818}]

>  <molecular_mass>  (518) 
333.38

$$$$
SANC00623_minRM1.pdb
     RDKit          3D

 47 49  0  0  1  0  0  0  0  0999 V2000
    3.6800    3.1250    0.4440 C   0  0  0  0  0  0  0  0  0  0  0  0
    2.2100    3.1230    0.2550 C   0  0  0  0  0  0  0  0  0  0  0  0
    1.5290    2.0600   -0.1890 C   0  0  0  0  0  0  0  0  0  0  0  0
    2.1520    0.7590   -0.5660 C   0  0  0  0  0  0  0  0  0  0  0  0
    2.2360   -0.2100    0.5720 C   0  0  0  0  0  0  0  0  0  0  0  0
    2.2660    0.1670    1.8450 C   0  0  0  0  0  0  0  0  0  0  0  0
    2.4010   -1.6500    0.1420 C   0  0  2  0  0  0  0  0  0  0  0  0
    1.2940   -2.0560   -0.8420 C   0  0  0  0  0  0  0  0  0  0  0  0
    1.5550   -2.5780   -1.9130 O   0  0  0  0  0  0  0  0  0  0  0  0
   -0.0340   -1.8530   -0.6480 O   0  0  0  0  0  0  0  0  0  0  0  0
   -0.5170   -1.6360    0.6610 C   0  0  0  0  0  0  0  0  0  0  0  0
   -1.9540   -1.2860    0.5120 C   0  0  0  0  0  0  0  0  0  0  0  0
   -2.9310   -1.7480    1.2980 C   0  0  0  0  0  0  0  0  0  0  0  0
   -4.2630   -1.2170    0.8600 C   0  0  0  0  0  0  0  0  0  0  0  0
   -3.9870   -0.2680   -0.2730 N   0  0  0  0  0  0  0  0  0  0  0  0
   -2.5050   -0.4030   -0.5750 C   0  0  1  0  0  0  0  0  0  0  0  0
   -2.3980   -0.9260   -1.5600 H   0  0  0  0  0  0  0  0  0  0  0  0
   -1.9620    1.0460   -0.6630 C   0  0  1  0  0  0  0  0  0  0  0  0
   -2.0280    1.4120   -1.7230 H   0  0  0  0  0  0  0  0  0  0  0  0
   -2.8840    1.8600    0.2530 C   0  0  0  0  0  0  0  0  0  0  0  0
   -4.2370    1.1640    0.0770 C   0  0  0  0  0  0  0  0  0  0  0  0
   -0.6200    1.0560   -0.2310 O   0  0  0  0  0  0  0  0  0  0  0  0
    0.0790    2.2090   -0.4090 C   0  0  0  0  0  0  0  0  0  0  0  0
   -0.4960    3.2370   -0.7220 O   0  0  0  0  0  0  0  0  0  0  0  0
    2.4530   -2.6780    1.2740 C   0  0  0  0  0  0  0  0  0  0  0  0
    3.6210   -1.6460   -0.5410 O   0  0  0  0  0  0  0  0  0  0  0  0
    4.0220    3.9750    1.0540 H   0  0  0  0  0  0  0  0  0  0  0  0
    4.0570    2.2150    0.9370 H   0  0  0  0  0  0  0  0  0  0  0  0
    4.2000    3.2030   -0.5250 H   0  0  0  0  0  0  0  0  0  0  0  0
    1.6940    4.0660    0.4810 H   0  0  0  0  0  0  0  0  0  0  0  0
    1.6020    0.3260   -1.4330 H   0  0  0  0  0  0  0  0  0  0  0  0
    3.1800    0.9140   -0.9700 H   0  0  0  0  0  0  0  0  0  0  0  0
    2.1600    1.2010    2.1640 H   0  0  0  0  0  0  0  0  0  0  0  0
    2.3890   -0.4950    2.6950 H   0  0  0  0  0  0  0  0  0  0  0  0
   -0.3950   -2.5680    1.2630 H   0  0  0  0  0  0  0  0  0  0  0  0
    0.0090   -0.8240    1.2120 H   0  0  0  0  0  0  0  0  0  0  0  0
   -2.8450   -2.4290    2.1390 H   0  0  0  0  0  0  0  0  0  0  0  0
   -4.9020   -2.0330    0.4510 H   0  0  0  0  0  0  0  0  0  0  0  0
   -4.8400   -0.7890    1.7080 H   0  0  0  0  0  0  0  0  0  0  0  0
   -2.5380    1.8420    1.3050 H   0  0  0  0  0  0  0  0  0  0  0  0
   -2.9250    2.9330   -0.0170 H   0  0  0  0  0  0  0  0  0  0  0  0
   -4.8030    1.5930   -0.7820 H   0  0  0  0  0  0  0  0  0  0  0  0
   -4.9010    1.3160    0.9550 H   0  0  0  0  0  0  0  0  0  0  0  0
    1.6030   -2.6140    1.9660 H   0  0  0  0  0  0  0  0  0  0  0  0
    2.4680   -3.7100    0.8900 H   0  0  0  0  0  0  0  0  0  0  0  0
    3.3650   -2.5600    1.8800 H   0  0  0  0  0  0  0  0  0  0  0  0
    3.7800   -2.5210   -0.9170 H   0  0  0  0  0  0  0  0  0  0  0  0
  1 29  1  0
  1  2  1  0
  1 28  1  0
  1 27  1  0
  2  3  2  0
  2 30  1  0
  3  4  1  0
  3 23  1  0
  4 31  1  0
  4 32  1  0
  4  5  1  0
  5  7  1  0
  5  6  2  0
  6 33  1  0
  6 34  1  0
  7  8  1  0
  7 26  1  6
  7 25  1  0
  8  9  2  0
  8 10  1  0
 10 11  1  0
 11 12  1  0
 11 36  1  0
 11 35  1  0
 12 16  1  0
 12 13  2  0
 13 14  1  0
 13 37  1  0
 14 38  1  0
 14 39  1  0
 15 14  1  0
 15 16  1  0
 15 21  1  0
 16 17  1  6
 16 18  1  0
 18 19  1  6
 18 22  1  0
 18 20  1  0
 20 41  1  0
 20 21  1  0
 20 40  1  0
 21 42  1  0
 21 43  1  0
 22 23  1  0
 23 24  2  0
 25 45  1  0
 25 46  1  0
 25 44  1  0
 26 47  1  0
M  END
>  <id>  (519) 
623

>  <scaffolds>  (519) 
['O=C1CCCCC(=O)OC2CCN3CC=C(CO1)C23', 'C=C1CCCC(=O)OCC2=CCN3CCC(OC1=O)C23', 'C1CCNC1']

>  <name>  (519) 
Spartioidine

>  <formula>  (519) 
C18H23NO5

>  <SMILES>  (519) 
C/C=C/1\CC(=C)[C@](C(=O)OCC2=CCN3[C@H]2[C@@H](CC3)OC1=O)(C)O

>  <ChEMBL_id>  (519) 


>  <ZINC_id>  (519) 


>  <PubChem_id>  (519) 


>  <DrugBank_id>  (519) 


>  <CAS_no>  (519) 
520-59-2

>  <references>  (519) 
[{'journal': {'name': 'Phytochemistry', 'id': 10}, 'title': 'A re-investigation of the alkaloids of Senecio pterophorus', 'year': 1993, 'start_page': 1629, 'volume': 34, 'issue': 6, 'doi': '10.1016/S0031-9422(00)90859-8', 'isbn': '', 'despositor': {'code': 'TMM', 'first_name': 'Thommas', 'last_name': 'Musyoka', 'id': 22}, 'refauthors_set': [{'author': {'first_name': 'Richard', 'initials': 'J', 'last_name': 'Liddell', 'id': 819}, 'first_author': True, 'id': 1296}, {'author': {'first_name': 'Catherine', 'initials': 'CG', 'last_name': 'Logie', 'id': 446}, 'first_author': None, 'id': 1297}], 'id': 376}]

>  <classifications>  (519) 
[{'classification': 'Alkaloid', 'id': 738}, {'classification': 'Pyrrolizidine', 'id': 818}]

>  <molecular_mass>  (519) 
333.38

$$$$
SANC00624_minRM1.pdb
     RDKit          3D

 52 54  0  0  1  0  0  0  0  0999 V2000
    4.7990   -1.5710    0.6100 C   0  0  0  0  0  0  0  0  0  0  0  0
    3.5230   -2.1990    0.2280 C   0  0  0  0  0  0  0  0  0  0  0  0
    2.3460   -1.5620    0.3020 C   0  0  0  0  0  0  0  0  0  0  0  0
    2.1900   -0.1660    0.8100 C   0  0  0  0  0  0  0  0  0  0  0  0
    2.5010    0.9180   -0.2390 C   0  0  2  0  0  0  0  0  0  0  0  0
    3.5910    1.1840   -0.1310 H   0  0  0  0  0  0  0  0  0  0  0  0
    1.6990    2.2360    0.0010 C   0  0  1  0  0  0  0  0  0  0  0  0
    0.4620    2.3330   -0.9000 C   0  0  0  0  0  0  0  0  0  0  0  0
    0.4410    2.8300   -2.0110 O   0  0  0  0  0  0  0  0  0  0  0  0
   -0.7580    1.9720   -0.3550 O   0  0  0  0  0  0  0  0  0  0  0  0
   -1.1410    0.6320   -0.5780 C   0  0  0  0  0  0  0  0  0  0  0  0
   -1.8610    0.1890    0.6960 C   0  0  1  0  0  0  0  0  0  0  0  0
   -1.2400    0.4450    1.5960 H   0  0  0  0  0  0  0  0  0  0  0  0
   -3.2390    0.8690    0.7280 C   0  0  1  0  0  0  0  0  0  0  0  0
   -3.2380    1.8580    0.2620 H   0  0  0  0  0  0  0  0  0  0  0  0
   -4.1610   -0.1200   -0.0450 C   0  0  0  0  0  0  0  0  0  0  0  0
   -3.5050   -1.4620   -0.0520 N   0  0  0  0  0  0  0  0  0  0  0  0
   -2.2490   -1.3090    0.7500 C   0  0  1  0  0  0  0  0  0  0  0  0
   -2.4930   -1.5720    1.8160 H   0  0  0  0  0  0  0  0  0  0  0  0
   -1.2570   -2.3370    0.1740 C   0  0  1  0  0  0  0  0  0  0  0  0
   -1.3560   -3.3330    0.6800 H   0  0  0  0  0  0  0  0  0  0  0  0
   -1.6310   -2.4490   -1.3110 C   0  0  0  0  0  0  0  0  0  0  0  0
   -3.0990   -1.9840   -1.3900 C   0  0  0  0  0  0  0  0  0  0  0  0
    0.0170   -1.8150    0.4750 O   0  0  0  0  0  0  0  0  0  0  0  0
    1.1390   -2.3120   -0.0990 C   0  0  0  0  0  0  0  0  0  0  0  0
    1.0770   -3.2750   -0.8370 O   0  0  0  0  0  0  0  0  0  0  0  0
   -3.5780    0.9450    2.0620 O   0  0  0  0  0  0  0  0  0  0  0  0
    1.2960    2.4560    1.4590 C   0  0  0  0  0  0  0  0  0  0  0  0
    2.5870    3.2340   -0.3970 O   0  0  0  0  0  0  0  0  0  0  0  0
    2.2960    0.4060   -1.6590 C   0  0  0  0  0  0  0  0  0  0  0  0
    4.8880   -0.5100    0.3060 H   0  0  0  0  0  0  0  0  0  0  0  0
    4.9600   -1.5670    1.6850 H   0  0  0  0  0  0  0  0  0  0  0  0
    5.6610   -2.0870    0.1580 H   0  0  0  0  0  0  0  0  0  0  0  0
    3.5900   -3.2410   -0.1200 H   0  0  0  0  0  0  0  0  0  0  0  0
    1.2020   -0.0090    1.2550 H   0  0  0  0  0  0  0  0  0  0  0  0
    2.8530   -0.0250    1.7010 H   0  0  0  0  0  0  0  0  0  0  0  0
   -1.7990    0.6010   -1.4670 H   0  0  0  0  0  0  0  0  0  0  0  0
   -0.2580    0.0050   -0.8390 H   0  0  0  0  0  0  0  0  0  0  0  0
   -5.1420   -0.2530    0.4530 H   0  0  0  0  0  0  0  0  0  0  0  0
   -4.3890    0.2920   -1.0650 H   0  0  0  0  0  0  0  0  0  0  0  0
   -0.9660   -1.8600   -1.9700 H   0  0  0  0  0  0  0  0  0  0  0  0
   -1.5130   -3.4870   -1.6810 H   0  0  0  0  0  0  0  0  0  0  0  0
   -3.7850   -2.8290   -1.6100 H   0  0  0  0  0  0  0  0  0  0  0  0
   -3.2440   -1.2760   -2.2360 H   0  0  0  0  0  0  0  0  0  0  0  0
   -4.4250    1.3930    2.1220 H   0  0  0  0  0  0  0  0  0  0  0  0
    2.1630    2.4720    2.1360 H   0  0  0  0  0  0  0  0  0  0  0  0
    0.7520    3.3980    1.6040 H   0  0  0  0  0  0  0  0  0  0  0  0
    0.6180    1.6560    1.8270 H   0  0  0  0  0  0  0  0  0  0  0  0
    2.1500    4.0800   -0.3160 H   0  0  0  0  0  0  0  0  0  0  0  0
    1.2990   -0.0410   -1.8050 H   0  0  0  0  0  0  0  0  0  0  0  0
    2.4180    1.1930   -2.4140 H   0  0  0  0  0  0  0  0  0  0  0  0
    3.0250   -0.3740   -1.9170 H   0  0  0  0  0  0  0  0  0  0  0  0
  1 33  1  0
  1  2  1  0
  1 31  1  0
  1 32  1  0
  2 34  1  0
  2  3  2  0
  3 25  1  0
  3  4  1  0
  4  5  1  0
  4 35  1  0
  4 36  1  0
  5 30  1  0
  5  6  1  6
  5  7  1  0
  7  8  1  0
  7 29  1  6
  7 28  1  0
  8  9  2  0
  8 10  1  0
 10 11  1  0
 11 37  1  0
 11 38  1  0
 11 12  1  0
 12 14  1  0
 12 18  1  0
 12 13  1  1
 14 16  1  0
 14 15  1  6
 14 27  1  0
 16 40  1  0
 16 39  1  0
 17 16  1  0
 17 23  1  0
 17 18  1  0
 18 20  1  0
 18 19  1  1
 20 22  1  0
 20 24  1  0
 20 21  1  1
 22 41  1  0
 22 42  1  0
 22 23  1  0
 23 44  1  0
 23 43  1  0
 24 25  1  0
 25 26  2  0
 27 45  1  0
 28 47  1  0
 28 48  1  0
 28 46  1  0
 29 49  1  0
 30 51  1  0
 30 52  1  0
 30 50  1  0
M  END
>  <id>  (520) 
624

>  <scaffolds>  (520) 
['C1CC2CCCN2C1', 'C1CCNC1']

>  <name>  (520) 
Rosmarinine

>  <formula>  (520) 
C18H27NO6

>  <SMILES>  (520) 
C/C=C/1\C[C@H]([C@@](C(=O)OC[C@H]2[C@@H](CN3[C@H]2[C@@H](CC3)OC1=O)O)(C)O)C

>  <ChEMBL_id>  (520) 


>  <ZINC_id>  (520) 


>  <PubChem_id>  (520) 


>  <DrugBank_id>  (520) 


>  <CAS_no>  (520) 
520-65-0

>  <references>  (520) 
[{'journal': {'name': 'Phytochemistry', 'id': 10}, 'title': 'A re-investigation of the alkaloids of Senecio pterophorus', 'year': 1993, 'start_page': 1629, 'volume': 34, 'issue': 6, 'doi': '10.1016/S0031-9422(00)90859-8', 'isbn': '', 'despositor': {'code': 'TMM', 'first_name': 'Thommas', 'last_name': 'Musyoka', 'id': 22}, 'refauthors_set': [{'author': {'first_name': 'Richard', 'initials': 'J', 'last_name': 'Liddell', 'id': 819}, 'first_author': True, 'id': 1296}, {'author': {'first_name': 'Catherine', 'initials': 'CG', 'last_name': 'Logie', 'id': 446}, 'first_author': None, 'id': 1297}], 'id': 376}]

>  <classifications>  (520) 
[{'classification': 'Alkaloid', 'id': 738}, {'classification': 'Pyrrolizidine', 'id': 818}, {'classification': 'Macrolides and analogues (Classyfire)', 'id': 945}]

>  <molecular_mass>  (520) 
353.41

$$$$
SANC00625_minRM1.pdb
     RDKit          3D

 52 54  0  0  1  0  0  0  0  0999 V2000
   -2.2730    4.2400    1.2060 C   0  0  0  0  0  0  0  0  0  0  0  0
   -0.9370    3.8480    0.6980 C   0  0  0  0  0  0  0  0  0  0  0  0
   -0.7020    2.7350   -0.0050 C   0  0  0  0  0  0  0  0  0  0  0  0
    0.6530    2.3960   -0.5360 C   0  0  0  0  0  0  0  0  0  0  0  0
    1.4570    1.5790    0.4310 C   0  0  0  0  0  0  0  0  0  0  0  0
    1.3850    1.7820    1.7430 C   0  0  0  0  0  0  0  0  0  0  0  0
    2.4330    0.6150   -0.2070 C   0  0  1  0  0  0  0  0  0  0  0  0
    1.7240   -0.2300   -1.2710 C   0  0  0  0  0  0  0  0  0  0  0  0
    1.8950   -0.0720   -2.4650 O   0  0  0  0  0  0  0  0  0  0  0  0
    0.8400   -1.2180   -0.9730 O   0  0  0  0  0  0  0  0  0  0  0  0
    0.4510   -1.4520    0.3640 C   0  0  0  0  0  0  0  0  0  0  0  0
   -0.8530   -2.1600    0.2780 C   0  0  0  0  0  0  0  0  0  0  0  0
   -1.2110   -3.2050    1.0300 C   0  0  0  0  0  0  0  0  0  0  0  0
   -2.5700   -3.7010    0.6350 C   0  0  0  0  0  0  0  0  0  0  0  0
   -3.0850   -2.7470   -0.4090 N   0  0  0  0  0  0  0  0  0  0  0  0
   -1.9210   -1.8250   -0.7280 C   0  0  1  0  0  0  0  0  0  0  0  0
   -1.5490   -2.0770   -1.7570 H   0  0  0  0  0  0  0  0  0  0  0  0
   -2.5010   -0.3890   -0.6900 C   0  0  1  0  0  0  0  0  0  0  0  0
   -2.8790   -0.1150   -1.7130 H   0  0  0  0  0  0  0  0  0  0  0  0
   -3.6590   -0.4740    0.3160 C   0  0  0  0  0  0  0  0  0  0  0  0
   -4.2100   -1.8820    0.0730 C   0  0  0  0  0  0  0  0  0  0  0  0
   -1.5050    0.5190   -0.2710 O   0  0  0  0  0  0  0  0  0  0  0  0
   -1.8130    1.8400   -0.3660 C   0  0  0  0  0  0  0  0  0  0  0  0
   -2.9260    2.1920   -0.7260 O   0  0  0  0  0  0  0  0  0  0  0  0
    3.5700    1.4180   -0.8440 C   0  0  0  0  0  0  0  0  0  0  0  0
    2.9460   -0.1970    0.8280 O   0  0  0  0  0  0  0  0  0  0  0  0
    3.8100   -1.2110    0.5390 C   0  0  0  0  0  0  0  0  0  0  0  0
    4.0140   -1.5540   -0.6060 O   0  0  0  0  0  0  0  0  0  0  0  0
    4.3950   -1.7920    1.7840 C   0  0  0  0  0  0  0  0  0  0  0  0
   -2.2170    5.0070    1.9950 H   0  0  0  0  0  0  0  0  0  0  0  0
   -2.8940    4.6560    0.3960 H   0  0  0  0  0  0  0  0  0  0  0  0
   -2.8450    3.3950    1.6290 H   0  0  0  0  0  0  0  0  0  0  0  0
   -0.1180    4.5430    0.9230 H   0  0  0  0  0  0  0  0  0  0  0  0
    0.5440    1.9060   -1.5280 H   0  0  0  0  0  0  0  0  0  0  0  0
    1.2220    3.3280   -0.7640 H   0  0  0  0  0  0  0  0  0  0  0  0
    0.7160    2.5050    2.2000 H   0  0  0  0  0  0  0  0  0  0  0  0
    1.9700    1.2570    2.4920 H   0  0  0  0  0  0  0  0  0  0  0  0
    1.2210   -2.0840    0.8620 H   0  0  0  0  0  0  0  0  0  0  0  0
    0.3420   -0.5330    0.9840 H   0  0  0  0  0  0  0  0  0  0  0  0
   -0.6400   -3.6910    1.8140 H   0  0  0  0  0  0  0  0  0  0  0  0
   -2.5010   -4.7010    0.1490 H   0  0  0  0  0  0  0  0  0  0  0  0
   -3.2370   -3.8470    1.5140 H   0  0  0  0  0  0  0  0  0  0  0  0
   -3.3090   -0.3440    1.3600 H   0  0  0  0  0  0  0  0  0  0  0  0
   -4.4230    0.3120    0.1650 H   0  0  0  0  0  0  0  0  0  0  0  0
   -4.9660   -1.8800   -0.7440 H   0  0  0  0  0  0  0  0  0  0  0  0
   -4.7540   -2.2760    0.9570 H   0  0  0  0  0  0  0  0  0  0  0  0
    4.1130    2.0080   -0.0920 H   0  0  0  0  0  0  0  0  0  0  0  0
    4.3070    0.7880   -1.3630 H   0  0  0  0  0  0  0  0  0  0  0  0
    3.1950    2.1200   -1.6040 H   0  0  0  0  0  0  0  0  0  0  0  0
    3.7630   -1.6460    2.6750 H   0  0  0  0  0  0  0  0  0  0  0  0
    4.5610   -2.8750    1.6690 H   0  0  0  0  0  0  0  0  0  0  0  0
    5.3710   -1.3250    1.9980 H   0  0  0  0  0  0  0  0  0  0  0  0
  1 31  1  0
  1  2  1  0
  1 32  1  0
  1 30  1  0
  2  3  2  0
  2 33  1  0
  3  4  1  0
  3 23  1  0
  4 34  1  0
  4 35  1  0
  4  5  1  0
  5  7  1  0
  5  6  2  0
  6 36  1  0
  6 37  1  0
  7  8  1  0
  7 25  1  0
  7 26  1  1
  8  9  2  0
  8 10  1  0
 10 11  1  0
 11 12  1  0
 11 38  1  0
 11 39  1  0
 12 16  1  0
 12 13  2  0
 13 14  1  0
 13 40  1  0
 14 41  1  0
 14 42  1  0
 15 14  1  0
 15 16  1  0
 15 21  1  0
 16 17  1  6
 16 18  1  0
 18 19  1  6
 18 22  1  0
 18 20  1  0
 20 21  1  0
 20 44  1  0
 20 43  1  0
 21 45  1  0
 21 46  1  0
 22 23  1  0
 23 24  2  0
 25 49  1  0
 25 48  1  0
 25 47  1  0
 26 27  1  0
 27 28  2  0
 27 29  1  0
 29 51  1  0
 29 52  1  0
 29 50  1  0
M  END
>  <id>  (521) 
625

>  <scaffolds>  (521) 
['O=C1CCCCC(=O)OC2CCN3CC=C(CO1)C23', 'C=C1CCCC(=O)OCC2=CCN3CCC(OC1=O)C23', 'C1CCNC1']

>  <name>  (521) 
Acetylseneciphylline

>  <formula>  (521) 
C20H25NO6

>  <SMILES>  (521) 
C/C=C\1/CC(=C)[C@@](C(=O)OCC2=CCN3[C@H]2[C@@H](CC3)OC1=O)(C)OC(=O)C

>  <ChEMBL_id>  (521) 


>  <ZINC_id>  (521) 


>  <PubChem_id>  (521) 


>  <DrugBank_id>  (521) 


>  <CAS_no>  (521) 
90341-45-0

>  <references>  (521) 
[{'journal': {'name': 'Phytochemistry', 'id': 10}, 'title': 'A re-investigation of the alkaloids of Senecio pterophorus', 'year': 1993, 'start_page': 1629, 'volume': 34, 'issue': 6, 'doi': '10.1016/S0031-9422(00)90859-8', 'isbn': '', 'despositor': {'code': 'TMM', 'first_name': 'Thommas', 'last_name': 'Musyoka', 'id': 22}, 'refauthors_set': [{'author': {'first_name': 'Richard', 'initials': 'J', 'last_name': 'Liddell', 'id': 819}, 'first_author': True, 'id': 1296}, {'author': {'first_name': 'Catherine', 'initials': 'CG', 'last_name': 'Logie', 'id': 446}, 'first_author': None, 'id': 1297}], 'id': 376}]

>  <classifications>  (521) 
[{'classification': 'Alkaloid', 'id': 738}, {'classification': 'Pyrrolizidine', 'id': 818}]

>  <molecular_mass>  (521) 
375.41

$$$$
SANC00626_minRM1.pdb
     RDKit          3D

 43 46  0  0  1  0  0  0  0  0999 V2000
   -0.4990    4.4430    0.2200 C   0  0  0  0  0  0  0  0  0  0  0  0
   -1.0200    3.1370    0.1730 O   0  0  0  0  0  0  0  0  0  0  0  0
   -0.1220    2.1210    0.0900 C   0  0  0  0  0  0  0  0  0  0  0  0
    1.2360    2.2340    0.1010 C   0  0  0  0  0  0  0  0  0  0  0  0
    2.0360    1.0510    0.0280 C   0  0  0  0  0  0  0  0  0  0  0  0
    3.4080    1.2540    0.0540 N   0  0  0  0  0  0  0  0  0  0  0  0
    4.1010    0.1180   -0.0220 C   0  0  0  0  0  0  0  0  0  0  0  0
    5.4750    0.0930   -0.0170 O   0  0  0  0  0  0  0  0  0  0  0  0
    5.8290   -1.2430   -0.1200 C   0  0  0  0  0  0  0  0  0  0  0  0
    4.7530   -2.0730   -0.1790 C   0  0  0  0  0  0  0  0  0  0  0  0
    3.5900   -1.2230   -0.1130 C   0  0  0  0  0  0  0  0  0  0  0  0
    2.2290   -1.3730   -0.1240 C   0  0  0  0  0  0  0  0  0  0  0  0
    1.6710   -2.6140   -0.2690 O   0  0  0  0  0  0  0  0  0  0  0  0
    1.4180   -3.2300    0.9760 C   0  0  0  0  0  0  0  0  0  0  0  0
    1.4110   -0.2170   -0.0580 C   0  0  0  0  0  0  0  0  0  0  0  0
   -0.0080   -0.3070   -0.0900 C   0  0  0  0  0  0  0  0  0  0  0  0
   -0.7570    0.8300   -0.0120 C   0  0  0  0  0  0  0  0  0  0  0  0
   -2.1140    0.9190   -0.0180 O   0  0  0  0  0  0  0  0  0  0  0  0
   -2.8280   -0.2920   -0.1700 C   0  0  0  0  0  0  0  0  0  0  0  0
   -4.2900    0.1030   -0.0560 C   0  0  1  0  0  0  0  0  0  0  0  0
   -5.1040   -0.2710   -1.1560 O   0  0  0  0  0  0  0  0  0  0  0  0
   -5.3300   -0.9830    0.0490 C   0  0  1  0  0  0  0  0  0  0  0  0
   -4.9300   -2.4320    0.0430 C   0  0  0  0  0  0  0  0  0  0  0  0
   -6.6250   -0.6900    0.7550 C   0  0  0  0  0  0  0  0  0  0  0  0
    0.1090    4.6350    1.1180 H   0  0  0  0  0  0  0  0  0  0  0  0
    0.0810    4.7130   -0.6790 H   0  0  0  0  0  0  0  0  0  0  0  0
   -1.4010    5.0720    0.2610 H   0  0  0  0  0  0  0  0  0  0  0  0
    1.7550    3.1960    0.1570 H   0  0  0  0  0  0  0  0  0  0  0  0
    6.9010   -1.4070   -0.1370 H   0  0  0  0  0  0  0  0  0  0  0  0
    4.7380   -3.1510   -0.2730 H   0  0  0  0  0  0  0  0  0  0  0  0
    2.3380   -3.4250    1.5510 H   0  0  0  0  0  0  0  0  0  0  0  0
    0.7260   -2.6520    1.6120 H   0  0  0  0  0  0  0  0  0  0  0  0
    0.9490   -4.1890    0.7120 H   0  0  0  0  0  0  0  0  0  0  0  0
   -0.4520   -1.3000   -0.1950 H   0  0  0  0  0  0  0  0  0  0  0  0
   -2.6010   -0.7740   -1.1490 H   0  0  0  0  0  0  0  0  0  0  0  0
   -2.5750   -1.0190    0.6360 H   0  0  0  0  0  0  0  0  0  0  0  0
   -4.4790    1.1120    0.3660 H   0  0  0  0  0  0  0  0  0  0  0  0
   -4.1530   -2.6650   -0.6990 H   0  0  0  0  0  0  0  0  0  0  0  0
   -4.5530   -2.7350    1.0290 H   0  0  0  0  0  0  0  0  0  0  0  0
   -5.7780   -3.0890   -0.1930 H   0  0  0  0  0  0  0  0  0  0  0  0
   -7.4350   -1.3610    0.4300 H   0  0  0  0  0  0  0  0  0  0  0  0
   -6.5100   -0.8170    1.8410 H   0  0  0  0  0  0  0  0  0  0  0  0
   -6.9830    0.3370    0.5820 H   0  0  0  0  0  0  0  0  0  0  0  0
  1 26  1  0
  1  2  1  0
  1 27  1  0
  1 25  1  0
  2  3  1  0
  3 17  2  0
  3  4  1  0
  4  5  2  0
  4 28  1  0
  5 15  1  0
  5  6  1  0
  6  7  2  0
  7 11  1  0
  7  8  1  0
  8  9  1  0
  9 10  2  0
  9 29  1  0
 10 30  1  0
 10 11  1  0
 11 12  2  0
 12 13  1  0
 12 15  1  0
 13 14  1  0
 14 33  1  0
 14 31  1  0
 14 32  1  0
 15 16  2  0
 16 34  1  0
 16 17  1  0
 17 18  1  0
 18 19  1  0
 19 35  1  0
 19 20  1  0
 19 36  1  0
 20 21  1  0
 20 22  1  0
 20 37  1  1
 21 22  1  0
 22 23  1  6
 22 24  1  0
 23 38  1  0
 23 40  1  0
 23 39  1  0
 24 41  1  0
 24 43  1  0
 24 42  1  0
M  END
>  <id>  (522) 
626

>  <scaffolds>  (522) 
['c1ccccc1', 'c1ccc2nc3occc3cc2c1', 'c1ccoc1', 'c1cc2cc3cc(OCC4CO4)ccc3nc2o1']

>  <name>  (522) 
Tecleanatalensine A

>  <formula>  (522) 
C18H19NO5

>  <SMILES>  (522) 
COc3cc2nc1occc1c(OC)c2cc3OCC4OC4(C)C

>  <ChEMBL_id>  (522) 


>  <ZINC_id>  (522) 


>  <PubChem_id>  (522) 


>  <DrugBank_id>  (522) 


>  <CAS_no>  (522) 
651737-86-9

>  <references>  (522) 
[{'journal': {'name': 'Phytochemistry', 'id': 10}, 'title': 'Furoquinoline alkaloids from the southern African Rutaceae Teclea natalensis', 'year': 2005, 'start_page': 703, 'volume': 66, 'issue': 6, 'doi': '10.1016/j.phytochem.2004.12.023', 'isbn': '', 'despositor': {'code': 'TMM', 'first_name': 'Thommas', 'last_name': 'Musyoka', 'id': 22}, 'refauthors_set': [{'author': {'first_name': 'Paul', 'initials': 'K', 'last_name': 'Tarus', 'id': 820}, 'first_author': True, 'id': 1298}, {'author': {'first_name': '', 'initials': 'PH', 'last_name': 'Coombes', 'id': 795}, 'first_author': None, 'id': 1299}, {'author': {'first_name': 'Neil', 'initials': 'NR', 'last_name': 'Crouch', 'id': 524}, 'first_author': None, 'id': 1300}, {'author': {'first_name': 'Dulcie', 'initials': 'DA', 'last_name': 'Mulholland', 'id': 525}, 'first_author': None, 'id': 1301}, {'author': {'first_name': '', 'initials': 'B', 'last_name': 'Moodley', 'id': 822}, 'first_author': None, 'id': 1302}], 'id': 377}]

>  <classifications>  (522) 
[{'classification': 'Alkaloid', 'id': 738}, {'classification': 'Furoquinoline', 'id': 780}, {'classification': 'Quinolines and derivatives (Classyfire)', 'id': 948}]

>  <molecular_mass>  (522) 
329.35

$$$$
SANC00627_minRM1.pdb
     RDKit          3D

 42 44  0  0  0  0  0  0  0  0999 V2000
   -5.0530   -2.4120   -0.9190 C   0  0  0  0  0  0  0  0  0  0  0  0
   -5.4360   -1.0960   -0.3340 C   0  0  0  0  0  0  0  0  0  0  0  0
   -4.5340   -0.2140    0.1100 C   0  0  0  0  0  0  0  0  0  0  0  0
   -3.0710   -0.5200    0.0670 C   0  0  0  0  0  0  0  0  0  0  0  0
   -2.4170    0.7000    0.3860 O   0  0  0  0  0  0  0  0  0  0  0  0
   -1.0650    0.7080    0.2310 C   0  0  0  0  0  0  0  0  0  0  0  0
   -0.2490   -0.3840    0.2000 C   0  0  0  0  0  0  0  0  0  0  0  0
    1.1560   -0.2070    0.0800 C   0  0  0  0  0  0  0  0  0  0  0  0
    1.6970    1.0980   -0.0190 C   0  0  0  0  0  0  0  0  0  0  0  0
    0.8290    2.2330    0.0220 C   0  0  0  0  0  0  0  0  0  0  0  0
   -0.5160    2.0370    0.1460 C   0  0  0  0  0  0  0  0  0  0  0  0
   -1.4710    3.0010    0.2020 O   0  0  0  0  0  0  0  0  0  0  0  0
   -1.0370    4.3360    0.1030 C   0  0  0  0  0  0  0  0  0  0  0  0
    3.0480    1.3840   -0.1560 N   0  0  0  0  0  0  0  0  0  0  0  0
    3.8070    0.2880   -0.1920 C   0  0  0  0  0  0  0  0  0  0  0  0
    3.3860   -1.0820   -0.0910 C   0  0  0  0  0  0  0  0  0  0  0  0
    2.0430   -1.3130    0.0430 C   0  0  0  0  0  0  0  0  0  0  0  0
    1.5570   -2.5920    0.0670 O   0  0  0  0  0  0  0  0  0  0  0  0
    1.4930   -3.1060    1.3800 C   0  0  0  0  0  0  0  0  0  0  0  0
    4.5960   -1.8630   -0.1830 C   0  0  0  0  0  0  0  0  0  0  0  0
    5.6110   -0.9670   -0.3270 C   0  0  0  0  0  0  0  0  0  0  0  0
    5.1740    0.3480   -0.3320 O   0  0  0  0  0  0  0  0  0  0  0  0
   -6.8950   -0.8120   -0.2770 C   0  0  0  0  0  0  0  0  0  0  0  0
   -4.3570   -2.9710   -0.2750 H   0  0  0  0  0  0  0  0  0  0  0  0
   -5.9140   -3.0770   -1.0890 H   0  0  0  0  0  0  0  0  0  0  0  0
   -4.5590   -2.2870   -1.8980 H   0  0  0  0  0  0  0  0  0  0  0  0
   -4.8290    0.7520    0.5350 H   0  0  0  0  0  0  0  0  0  0  0  0
   -2.8230   -1.3040    0.8210 H   0  0  0  0  0  0  0  0  0  0  0  0
   -2.7550   -0.9080   -0.9280 H   0  0  0  0  0  0  0  0  0  0  0  0
   -0.6360   -1.4050    0.2580 H   0  0  0  0  0  0  0  0  0  0  0  0
    1.2850    3.2250   -0.0530 H   0  0  0  0  0  0  0  0  0  0  0  0
   -1.9760    4.9100    0.1640 H   0  0  0  0  0  0  0  0  0  0  0  0
   -0.3760    4.6420    0.9310 H   0  0  0  0  0  0  0  0  0  0  0  0
   -0.5420    4.5640   -0.8570 H   0  0  0  0  0  0  0  0  0  0  0  0
    0.8390   -2.5130    2.0420 H   0  0  0  0  0  0  0  0  0  0  0  0
    1.0630   -4.1110    1.2540 H   0  0  0  0  0  0  0  0  0  0  0  0
    2.4860   -3.1950    1.8510 H   0  0  0  0  0  0  0  0  0  0  0  0
    4.6500   -2.9430   -0.1520 H   0  0  0  0  0  0  0  0  0  0  0  0
    6.6850   -1.0660   -0.4390 H   0  0  0  0  0  0  0  0  0  0  0  0
   -7.4230   -1.5480    0.3470 H   0  0  0  0  0  0  0  0  0  0  0  0
   -7.1390    0.1780    0.1270 H   0  0  0  0  0  0  0  0  0  0  0  0
   -7.3470   -0.8580   -1.2780 H   0  0  0  0  0  0  0  0  0  0  0  0
  1 26  1  0
  1 25  1  0
  1  2  1  0
  1 24  1  0
  2 23  1  0
  2  3  2  0
  3  4  1  0
  3 27  1  0
  4 29  1  0
  4  5  1  0
  4 28  1  0
  5  6  1  0
  6 11  2  0
  6  7  1  0
  7  8  2  0
  7 30  1  0
  8  9  1  0
  8 17  1  0
  9 14  1  0
  9 10  2  0
 10 31  1  0
 10 11  1  0
 11 12  1  0
 12 13  1  0
 13 34  1  0
 13 32  1  0
 13 33  1  0
 14 15  2  0
 15 22  1  0
 15 16  1  0
 16 20  1  0
 16 17  2  0
 17 18  1  0
 18 19  1  0
 19 36  1  0
 19 37  1  0
 19 35  1  0
 20 21  2  0
 20 38  1  0
 21 39  1  0
 21 22  1  0
 23 42  1  0
 23 41  1  0
 23 40  1  0
M  END
>  <id>  (523) 
627

>  <scaffolds>  (523) 
['c1ccccc1', 'c1ccc2nc3occc3cc2c1', 'c1ccoc1']

>  <name>  (523) 
Tecleanatalensine B

>  <formula>  (523) 
C18H19NO4

>  <SMILES>  (523) 
CC(=CCOc1cc2c(cc1OC)nc3c(c2OC)cco3)C

>  <ChEMBL_id>  (523) 


>  <ZINC_id>  (523) 


>  <PubChem_id>  (523) 


>  <DrugBank_id>  (523) 


>  <CAS_no>  (523) 
851770-81-5

>  <references>  (523) 
[{'journal': {'name': 'Phytochemistry', 'id': 10}, 'title': 'Furoquinoline alkaloids from the southern African Rutaceae Teclea natalensis', 'year': 2005, 'start_page': 703, 'volume': 66, 'issue': 6, 'doi': '10.1016/j.phytochem.2004.12.023', 'isbn': '', 'despositor': {'code': 'TMM', 'first_name': 'Thommas', 'last_name': 'Musyoka', 'id': 22}, 'refauthors_set': [{'author': {'first_name': 'Paul', 'initials': 'K', 'last_name': 'Tarus', 'id': 820}, 'first_author': True, 'id': 1298}, {'author': {'first_name': '', 'initials': 'PH', 'last_name': 'Coombes', 'id': 795}, 'first_author': None, 'id': 1299}, {'author': {'first_name': 'Neil', 'initials': 'NR', 'last_name': 'Crouch', 'id': 524}, 'first_author': None, 'id': 1300}, {'author': {'first_name': 'Dulcie', 'initials': 'DA', 'last_name': 'Mulholland', 'id': 525}, 'first_author': None, 'id': 1301}, {'author': {'first_name': '', 'initials': 'B', 'last_name': 'Moodley', 'id': 822}, 'first_author': None, 'id': 1302}], 'id': 377}]

>  <classifications>  (523) 
[{'classification': 'Alkaloid', 'id': 738}, {'classification': 'Furoquinoline', 'id': 780}, {'classification': 'Quinolines and derivatives (Classyfire)', 'id': 948}]

>  <molecular_mass>  (523) 
313.35

$$$$
SANC00628_minRM1.pdb
     RDKit          3D

 24 26  0  0  0  0  0  0  0  0999 V2000
    0.3970    3.1010   -0.7330 C   0  0  0  0  0  0  0  0  0  0  0  0
    0.2500    2.3550    0.4570 O   0  0  0  0  0  0  0  0  0  0  0  0
    0.2360    1.0090    0.2130 C   0  0  0  0  0  0  0  0  0  0  0  0
   -1.0040    0.3170    0.1230 C   0  0  0  0  0  0  0  0  0  0  0  0
   -2.2520    0.9870    0.2130 C   0  0  0  0  0  0  0  0  0  0  0  0
   -3.4160    0.2840    0.1180 C   0  0  0  0  0  0  0  0  0  0  0  0
   -3.3980   -1.1230   -0.0560 C   0  0  0  0  0  0  0  0  0  0  0  0
   -2.2180   -1.8000   -0.1410 C   0  0  0  0  0  0  0  0  0  0  0  0
   -0.9840   -1.0880   -0.0510 C   0  0  0  0  0  0  0  0  0  0  0  0
    0.1690   -1.8560   -0.1470 N   0  0  0  0  0  0  0  0  0  0  0  0
    1.2810   -1.1320   -0.0530 C   0  0  0  0  0  0  0  0  0  0  0  0
    1.3970    0.2930    0.1190 C   0  0  0  0  0  0  0  0  0  0  0  0
    2.8150    0.5590    0.1610 C   0  0  0  0  0  0  0  0  0  0  0  0
    3.4300   -0.6480    0.0210 C   0  0  0  0  0  0  0  0  0  0  0  0
    2.5330   -1.6970   -0.1200 O   0  0  0  0  0  0  0  0  0  0  0  0
    0.4050    4.1500   -0.3980 H   0  0  0  0  0  0  0  0  0  0  0  0
    1.3300    2.8850   -1.2760 H   0  0  0  0  0  0  0  0  0  0  0  0
   -0.4530    2.9630   -1.4260 H   0  0  0  0  0  0  0  0  0  0  0  0
   -2.2630    2.0700    0.3670 H   0  0  0  0  0  0  0  0  0  0  0  0
   -4.3830    0.7930    0.1740 H   0  0  0  0  0  0  0  0  0  0  0  0
   -4.3500   -1.6580   -0.1200 H   0  0  0  0  0  0  0  0  0  0  0  0
   -2.1940   -2.8870   -0.2770 H   0  0  0  0  0  0  0  0  0  0  0  0
    3.2790    1.5280    0.2850 H   0  0  0  0  0  0  0  0  0  0  0  0
    4.4650   -0.9740    0.0030 H   0  0  0  0  0  0  0  0  0  0  0  0
  1 18  1  0
  1 17  1  0
  1 16  1  0
  1  2  1  0
  2  3  1  0
  3 12  2  0
  3  4  1  0
  4  9  2  0
  4  5  1  0
  5  6  2  0
  5 19  1  0
  6  7  1  0
  6 20  1  0
  7  8  2  0
  7 21  1  0
  8 22  1  0
  8  9  1  0
  9 10  1  0
 10 11  2  0
 11 15  1  0
 11 12  1  0
 12 13  1  0
 13 14  2  0
 13 23  1  0
 14 15  1  0
 14 24  1  0
M  END
>  <id>  (524) 
628

>  <scaffolds>  (524) 
['c1ccccc1', 'c1ccc2nc3occc3cc2c1', 'c1ccoc1']

>  <name>  (524) 
Dictamnine

>  <formula>  (524) 
C12H9NO2

>  <SMILES>  (524) 
COc1c2ccccc2nc3c1cco3

>  <ChEMBL_id>  (524) 


>  <ZINC_id>  (524) 


>  <PubChem_id>  (524) 


>  <DrugBank_id>  (524) 


>  <CAS_no>  (524) 
484-29-7

>  <references>  (524) 
[{'journal': {'name': 'Phytochemistry', 'id': 10}, 'title': 'Furoquinoline alkaloids from the southern African Rutaceae Teclea natalensis', 'year': 2005, 'start_page': 703, 'volume': 66, 'issue': 6, 'doi': '10.1016/j.phytochem.2004.12.023', 'isbn': '', 'despositor': {'code': 'TMM', 'first_name': 'Thommas', 'last_name': 'Musyoka', 'id': 22}, 'refauthors_set': [{'author': {'first_name': 'Paul', 'initials': 'K', 'last_name': 'Tarus', 'id': 820}, 'first_author': True, 'id': 1298}, {'author': {'first_name': '', 'initials': 'PH', 'last_name': 'Coombes', 'id': 795}, 'first_author': None, 'id': 1299}, {'author': {'first_name': 'Neil', 'initials': 'NR', 'last_name': 'Crouch', 'id': 524}, 'first_author': None, 'id': 1300}, {'author': {'first_name': 'Dulcie', 'initials': 'DA', 'last_name': 'Mulholland', 'id': 525}, 'first_author': None, 'id': 1301}, {'author': {'first_name': '', 'initials': 'B', 'last_name': 'Moodley', 'id': 822}, 'first_author': None, 'id': 1302}], 'id': 377}]

>  <classifications>  (524) 
[{'classification': 'Alkaloid', 'id': 738}, {'classification': 'Furoquinoline', 'id': 780}, {'classification': 'Quinolines and derivatives (Classyfire)', 'id': 948}]

>  <molecular_mass>  (524) 
199.2

$$$$
SANC00629_minRM1.pdb
     RDKit          3D

 31 34  0  0  0  0  0  0  0  0999 V2000
   -2.1390    3.2200   -0.6950 C   0  0  0  0  0  0  0  0  0  0  0  0
   -1.7470    2.5200    0.4650 O   0  0  0  0  0  0  0  0  0  0  0  0
   -1.4770    1.2040    0.2120 C   0  0  0  0  0  0  0  0  0  0  0  0
   -2.4870    0.2790    0.1590 C   0  0  0  0  0  0  0  0  0  0  0  0
   -3.9270    0.2690    0.2450 C   0  0  0  0  0  0  0  0  0  0  0  0
   -4.3000   -1.0360    0.1380 C   0  0  0  0  0  0  0  0  0  0  0  0
   -3.2230   -1.8940   -0.0150 O   0  0  0  0  0  0  0  0  0  0  0  0
   -2.1050   -1.0950   -0.0020 C   0  0  0  0  0  0  0  0  0  0  0  0
   -0.8730   -1.5930   -0.1250 N   0  0  0  0  0  0  0  0  0  0  0  0
    0.1110   -0.6240   -0.0810 C   0  0  0  0  0  0  0  0  0  0  0  0
   -0.1330    0.7690    0.0900 C   0  0  0  0  0  0  0  0  0  0  0  0
    0.9360    1.7180    0.1370 C   0  0  0  0  0  0  0  0  0  0  0  0
    2.1850    1.2180    0.0070 C   0  0  0  0  0  0  0  0  0  0  0  0
    2.4580   -0.1730   -0.1630 C   0  0  0  0  0  0  0  0  0  0  0  0
    1.4680   -1.1010   -0.2260 C   0  0  0  0  0  0  0  0  0  0  0  0
    1.7520   -2.3950   -0.5340 O   0  0  0  0  0  0  0  0  0  0  0  0
    1.6350   -3.2720    0.5630 C   0  0  0  0  0  0  0  0  0  0  0  0
    3.8080   -0.3560   -0.2630 O   0  0  0  0  0  0  0  0  0  0  0  0
    4.4030    0.9370   -0.1640 C   0  0  0  0  0  0  0  0  0  0  0  0
    3.3700    1.9040    0.0120 O   0  0  0  0  0  0  0  0  0  0  0  0
   -1.3370    3.2650   -1.4500 H   0  0  0  0  0  0  0  0  0  0  0  0
   -3.0460    2.8040   -1.1630 H   0  0  0  0  0  0  0  0  0  0  0  0
   -2.3520    4.2380   -0.3330 H   0  0  0  0  0  0  0  0  0  0  0  0
   -4.5570    1.1390    0.3790 H   0  0  0  0  0  0  0  0  0  0  0  0
   -5.2590   -1.5440    0.1470 H   0  0  0  0  0  0  0  0  0  0  0  0
    0.7420    2.7850    0.2730 H   0  0  0  0  0  0  0  0  0  0  0  0
    1.8910   -4.2530    0.1360 H   0  0  0  0  0  0  0  0  0  0  0  0
    2.3430   -3.0320    1.3720 H   0  0  0  0  0  0  0  0  0  0  0  0
    0.6210   -3.3250    0.9890 H   0  0  0  0  0  0  0  0  0  0  0  0
    5.0860    0.9630    0.7140 H   0  0  0  0  0  0  0  0  0  0  0  0
    4.9580    1.1620   -1.0970 H   0  0  0  0  0  0  0  0  0  0  0  0
  1 21  1  0
  1 22  1  0
  1 23  1  0
  1  2  1  0
  2  3  1  0
  3 11  1  0
  3  4  2  0
  4  8  1  0
  4  5  1  0
  5  6  2  0
  5 24  1  0
  6  7  1  0
  6 25  1  0
  7  8  1  0
  8  9  2  0
  9 10  1  0
 10 15  2  0
 10 11  1  0
 11 12  2  0
 12 13  1  0
 12 26  1  0
 13 14  2  0
 13 20  1  0
 14 18  1  0
 14 15  1  0
 15 16  1  0
 16 17  1  0
 17 27  1  0
 17 29  1  0
 17 28  1  0
 18 19  1  0
 19 31  1  0
 19 20  1  0
 19 30  1  0
M  END
>  <id>  (525) 
629

>  <scaffolds>  (525) 
['c1ccccc1', 'c1ccc2nc3occc3cc2c1', 'c1ccoc1', 'c1cc2cc3cc4c(cc3nc2o1)OCO4', 'c1ccc2c(c1)OCO2']

>  <name>  (525) 
Flindersiamine

>  <formula>  (525) 
C14H11NO5

>  <SMILES>  (525) 
COc1c2ccoc2nc3c1cc4c(c3OC)OCO4

>  <ChEMBL_id>  (525) 


>  <ZINC_id>  (525) 


>  <PubChem_id>  (525) 


>  <DrugBank_id>  (525) 


>  <CAS_no>  (525) 
522-06-5

>  <references>  (525) 
[{'journal': {'name': 'Phytochemistry', 'id': 10}, 'title': 'Furoquinoline alkaloids from the southern African Rutaceae Teclea natalensis', 'year': 2005, 'start_page': 703, 'volume': 66, 'issue': 6, 'doi': '10.1016/j.phytochem.2004.12.023', 'isbn': '', 'despositor': {'code': 'TMM', 'first_name': 'Thommas', 'last_name': 'Musyoka', 'id': 22}, 'refauthors_set': [{'author': {'first_name': 'Paul', 'initials': 'K', 'last_name': 'Tarus', 'id': 820}, 'first_author': True, 'id': 1298}, {'author': {'first_name': '', 'initials': 'PH', 'last_name': 'Coombes', 'id': 795}, 'first_author': None, 'id': 1299}, {'author': {'first_name': 'Neil', 'initials': 'NR', 'last_name': 'Crouch', 'id': 524}, 'first_author': None, 'id': 1300}, {'author': {'first_name': 'Dulcie', 'initials': 'DA', 'last_name': 'Mulholland', 'id': 525}, 'first_author': None, 'id': 1301}, {'author': {'first_name': '', 'initials': 'B', 'last_name': 'Moodley', 'id': 822}, 'first_author': None, 'id': 1302}], 'id': 377}]

>  <classifications>  (525) 
[{'classification': 'Alkaloid', 'id': 738}, {'classification': 'Furoquinoline', 'id': 780}, {'classification': 'Quinolines and derivatives (Classyfire)', 'id': 948}]

>  <molecular_mass>  (525) 
273.24

$$$$
SANC00630_minRM1.pdb
     RDKit          3D

 18 18  0  0  0  0  0  0  0  0999 V2000
   -2.9460    1.1400    0.0350 C   0  0  0  0  0  0  0  0  0  0  0  0
   -2.1260   -0.1020   -0.1950 C   0  0  0  0  0  0  0  0  0  0  0  0
   -2.6690   -1.1620   -0.4480 O   0  0  0  0  0  0  0  0  0  0  0  0
   -0.6580    0.0010   -0.0680 C   0  0  0  0  0  0  0  0  0  0  0  0
   -0.0080    1.2360   -0.0640 C   0  0  0  0  0  0  0  0  0  0  0  0
    1.3700    1.3090    0.0590 C   0  0  0  0  0  0  0  0  0  0  0  0
    2.1010    0.1210    0.1640 C   0  0  0  0  0  0  0  0  0  0  0  0
    1.4730   -1.1260    0.1610 C   0  0  0  0  0  0  0  0  0  0  0  0
    0.0910   -1.1730    0.0510 C   0  0  0  0  0  0  0  0  0  0  0  0
    3.4420    0.2570    0.2610 O   0  0  0  0  0  0  0  0  0  0  0  0
   -2.6630    1.6620    0.9500 H   0  0  0  0  0  0  0  0  0  0  0  0
   -2.8470    1.8350   -0.8180 H   0  0  0  0  0  0  0  0  0  0  0  0
   -4.0180    0.9220    0.1200 H   0  0  0  0  0  0  0  0  0  0  0  0
   -0.5720    2.1710   -0.1580 H   0  0  0  0  0  0  0  0  0  0  0  0
    1.8950    2.2680    0.0730 H   0  0  0  0  0  0  0  0  0  0  0  0
    2.0400   -2.0570    0.2520 H   0  0  0  0  0  0  0  0  0  0  0  0
   -0.4110   -2.1510    0.0270 H   0  0  0  0  0  0  0  0  0  0  0  0
    3.8610   -0.6080    0.3660 H   0  0  0  0  0  0  0  0  0  0  0  0
  1 12  1  0
  1  2  1  0
  1 13  1  0
  1 11  1  0
  2  3  2  0
  2  4  1  0
  4  5  2  0
  4  9  1  0
  5 14  1  0
  5  6  1  0
  6 15  1  0
  6  7  2  0
  7  8  1  0
  7 10  1  0
  8  9  2  0
  8 16  1  0
  9 17  1  0
 10 18  1  0
M  END
>  <id>  (526) 
630

>  <scaffolds>  (526) 
['c1ccccc1']

>  <name>  (526) 
Acetophenone, 4'-hydroxy- (6CI,8CI)

>  <formula>  (526) 
C8H8O2

>  <SMILES>  (526) 
CC(=O)c1ccc(cc1)O

>  <ChEMBL_id>  (526) 


>  <ZINC_id>  (526) 


>  <PubChem_id>  (526) 


>  <DrugBank_id>  (526) 


>  <CAS_no>  (526) 
99-93-4

>  <references>  (526) 
[{'journal': {'name': 'Phytochemistry', 'id': 10}, 'title': 'New sesquiterpenes from Senecio oxyodontus', 'year': 1978, 'start_page': 1591, 'volume': 17, 'issue': 9, 'doi': '10.1016/S0031-9422(00)94649-1', 'isbn': '', 'despositor': {'code': 'TMM', 'first_name': 'Thommas', 'last_name': 'Musyoka', 'id': 22}, 'refauthors_set': [{'author': {'first_name': '', 'initials': 'F', 'last_name': 'Bohlmann', 'id': 709}, 'first_author': True, 'id': 1303}, {'author': {'first_name': '', 'initials': 'C', 'last_name': 'Zdero', 'id': 704}, 'first_author': None, 'id': 1304}], 'id': 378}]

>  <classifications>  (526) 
[{'classification': 'Sesquiterpene', 'id': 828}, {'classification': 'Terpenoid', 'id': 839}, {'classification': 'Organooxygen compounds (Classyfire)', 'id': 954}]

>  <molecular_mass>  (526) 
136.15

$$$$
SANC00631_minRM1.pdb
     RDKit          3D

 19 18  0  0  0  0  0  0  0  0999 V2000
   -7.7420   -0.1360   -0.0000 C   0  0  0  0  0  0  0  0  0  0  0  0
   -6.2710   -0.0910   -0.0000 C   0  0  0  0  0  0  0  0  0  0  0  0
   -5.0970   -0.0550    0.0000 C   0  0  0  0  0  0  0  0  0  0  0  0
   -3.7200   -0.0130   -0.0000 C   0  0  0  0  0  0  0  0  0  0  0  0
   -2.5470    0.0230    0.0000 C   0  0  0  0  0  0  0  0  0  0  0  0
   -1.1700    0.0640   -0.0000 C   0  0  0  0  0  0  0  0  0  0  0  0
    0.0020    0.1000   -0.0010 C   0  0  0  0  0  0  0  0  0  0  0  0
    1.3790    0.1420   -0.0000 C   0  0  0  0  0  0  0  0  0  0  0  0
    2.5520    0.1780    0.0000 C   0  0  0  0  0  0  0  0  0  0  0  0
    3.9290    0.2200    0.0000 C   0  0  0  0  0  0  0  0  0  0  0  0
    5.1020    0.2550   -0.0010 C   0  0  0  0  0  0  0  0  0  0  0  0
    6.5340    0.2990    0.0000 C   0  0  0  0  0  0  0  0  0  0  0  0
    7.2360   -0.8370   -0.0000 C   0  0  0  0  0  0  0  0  0  0  0  0
   -8.1360    0.8810   -0.0000 H   0  0  0  0  0  0  0  0  0  0  0  0
   -8.0890   -0.6600   -0.8900 H   0  0  0  0  0  0  0  0  0  0  0  0
   -8.0890   -0.6600    0.8900 H   0  0  0  0  0  0  0  0  0  0  0  0
    7.0450    1.2500    0.0000 H   0  0  0  0  0  0  0  0  0  0  0  0
    8.3160   -0.8040   -0.0000 H   0  0  0  0  0  0  0  0  0  0  0  0
    6.7250   -1.7880    0.0000 H   0  0  0  0  0  0  0  0  0  0  0  0
  1 15  1  0
  1 14  1  0
  1  2  1  0
  1 16  1  0
  2  3  3  0
  3  4  1  0
  4  5  3  0
  5  6  1  0
  6  7  3  0
  7  8  1  0
  8  9  3  0
  9 10  1  0
 10 11  3  0
 11 12  1  0
 12 13  2  0
 12 17  1  0
 13 18  1  0
 13 19  1  0
M  END
>  <id>  (527) 
631

>  <scaffolds>  (527) 
[]

>  <name>  (527) 
1-Tridecene-3,5,7,9,11-pentayne

>  <formula>  (527) 
C13H6

>  <SMILES>  (527) 
CC#CC#CC#CC#CC#CC=C

>  <ChEMBL_id>  (527) 


>  <ZINC_id>  (527) 


>  <PubChem_id>  (527) 


>  <DrugBank_id>  (527) 


>  <CAS_no>  (527) 
2060-59-5

>  <references>  (527) 
[{'journal': {'name': 'Phytochemistry', 'id': 10}, 'title': 'New sesquiterpenes from Senecio oxyodontus', 'year': 1978, 'start_page': 1591, 'volume': 17, 'issue': 9, 'doi': '10.1016/S0031-9422(00)94649-1', 'isbn': '', 'despositor': {'code': 'TMM', 'first_name': 'Thommas', 'last_name': 'Musyoka', 'id': 22}, 'refauthors_set': [{'author': {'first_name': '', 'initials': 'F', 'last_name': 'Bohlmann', 'id': 709}, 'first_author': True, 'id': 1303}, {'author': {'first_name': '', 'initials': 'C', 'last_name': 'Zdero', 'id': 704}, 'first_author': None, 'id': 1304}], 'id': 378}]

>  <classifications>  (527) 
[{'classification': 'Sesquiterpene', 'id': 828}, {'classification': 'Terpenoid', 'id': 839}, {'classification': 'Unsaturated hydrocarbons (Classyfire)', 'id': 991}]

>  <molecular_mass>  (527) 
162.19

$$$$
SANC00632_minRM1.pdb
     RDKit          3D

 39 39  0  0  1  0  0  0  0  0999 V2000
   -2.6760   -2.4980    0.0190 C   0  0  0  0  0  0  0  0  0  0  0  0
   -2.1290   -1.1590   -0.3380 C   0  0  0  0  0  0  0  0  0  0  0  0
   -2.9230   -0.0910   -0.4260 C   0  0  0  0  0  0  0  0  0  0  0  0
   -2.4470    1.2830   -0.7520 C   0  0  0  0  0  0  0  0  0  0  0  0
   -1.6220    1.8660    0.4010 C   0  0  0  0  0  0  0  0  0  0  0  0
   -0.1560    1.9690    0.1210 C   0  0  0  0  0  0  0  0  0  0  0  0
    0.3510    2.4080   -1.0270 C   0  0  0  0  0  0  0  0  0  0  0  0
    0.7080    1.7210    1.2750 C   0  0  0  0  0  0  0  0  0  0  0  0
    1.3970    0.6270    1.5840 C   0  0  0  0  0  0  0  0  0  0  0  0
    1.4680   -0.6860    0.8670 C   0  0  1  0  0  0  0  0  0  0  0  0
    2.0860   -1.3670    1.5170 H   0  0  0  0  0  0  0  0  0  0  0  0
    0.0750   -1.3290    0.7680 C   0  0  0  0  0  0  0  0  0  0  0  0
   -0.6530   -1.1230   -0.5610 C   0  0  0  0  0  0  0  0  0  0  0  0
    2.2050   -0.5570   -0.4730 C   0  0  1  0  0  0  0  0  0  0  0  0
    3.4890    0.2510   -0.3020 C   0  0  0  0  0  0  0  0  0  0  0  0
    2.5670   -1.9390   -1.0110 C   0  0  0  0  0  0  0  0  0  0  0  0
   -2.3690   -2.7920    1.0380 H   0  0  0  0  0  0  0  0  0  0  0  0
   -3.7770   -2.5440   -0.0030 H   0  0  0  0  0  0  0  0  0  0  0  0
   -2.3190   -3.2890   -0.6630 H   0  0  0  0  0  0  0  0  0  0  0  0
   -4.0000   -0.1830   -0.2490 H   0  0  0  0  0  0  0  0  0  0  0  0
   -1.9020    1.2810   -1.7190 H   0  0  0  0  0  0  0  0  0  0  0  0
   -3.3190    1.9430   -0.9570 H   0  0  0  0  0  0  0  0  0  0  0  0
   -1.9850    2.8860    0.6550 H   0  0  0  0  0  0  0  0  0  0  0  0
   -1.7970    1.2800    1.3290 H   0  0  0  0  0  0  0  0  0  0  0  0
   -0.2420    2.6950   -1.8890 H   0  0  0  0  0  0  0  0  0  0  0  0
    1.4160    2.5290   -1.1990 H   0  0  0  0  0  0  0  0  0  0  0  0
    0.7580    2.5930    1.9440 H   0  0  0  0  0  0  0  0  0  0  0  0
    2.0030    0.6550    2.5010 H   0  0  0  0  0  0  0  0  0  0  0  0
    0.1580   -2.4200    0.9650 H   0  0  0  0  0  0  0  0  0  0  0  0
   -0.5510   -0.9570    1.6090 H   0  0  0  0  0  0  0  0  0  0  0  0
   -0.3730   -1.9100   -1.2950 H   0  0  0  0  0  0  0  0  0  0  0  0
   -0.3170   -0.1900   -1.0610 H   0  0  0  0  0  0  0  0  0  0  0  0
    1.5420   -0.0290   -1.2080 H   0  0  0  0  0  0  0  0  0  0  0  0
    4.1450   -0.1620    0.4780 H   0  0  0  0  0  0  0  0  0  0  0  0
    4.0790    0.2820   -1.2300 H   0  0  0  0  0  0  0  0  0  0  0  0
    3.2920    1.2980   -0.0270 H   0  0  0  0  0  0  0  0  0  0  0  0
    1.7050   -2.6180   -1.0670 H   0  0  0  0  0  0  0  0  0  0  0  0
    2.9860   -1.8840   -2.0260 H   0  0  0  0  0  0  0  0  0  0  0  0
    3.3190   -2.4470   -0.3890 H   0  0  0  0  0  0  0  0  0  0  0  0
  1 19  1  0
  1  2  1  0
  1 18  1  0
  1 17  1  0
  2 13  1  0
  2  3  2  0
  3  4  1  0
  3 20  1  0
  4 21  1  0
  4 22  1  0
  4  5  1  0
  5  6  1  0
  5 23  1  0
  5 24  1  0
  6  7  2  0
  6  8  1  0
  7 25  1  0
  7 26  1  0
  8  9  2  0
  8 27  1  0
  9 10  1  0
  9 28  1  0
 10 14  1  0
 10 12  1  0
 10 11  1  1
 12 13  1  0
 12 29  1  0
 12 30  1  0
 13 31  1  0
 13 32  1  0
 14 33  1  6
 14 16  1  0
 14 15  1  0
 15 35  1  0
 15 36  1  0
 15 34  1  0
 16 38  1  0
 16 37  1  0
 16 39  1  0
M  END
>  <id>  (528) 
632

>  <scaffolds>  (528) 
['C=C1C=CCCCC=CCC1']

>  <name>  (528) 
1,6-Cyclodecadiene, 1-methyl-5-methylene-8-(1-methylethyl)-, (1E,6E,8S)

>  <formula>  (528) 
C15H24

>  <SMILES>  (528) 
C/C/1=C/CCC(=C)/C=C\[C@@H](CC1)C(C)C

>  <ChEMBL_id>  (528) 


>  <ZINC_id>  (528) 


>  <PubChem_id>  (528) 


>  <DrugBank_id>  (528) 


>  <CAS_no>  (528) 
23986-74-5

>  <references>  (528) 
[{'journal': {'name': 'Phytochemistry', 'id': 10}, 'title': 'New sesquiterpenes from Senecio oxyodontus', 'year': 1978, 'start_page': 1591, 'volume': 17, 'issue': 9, 'doi': '10.1016/S0031-9422(00)94649-1', 'isbn': '', 'despositor': {'code': 'TMM', 'first_name': 'Thommas', 'last_name': 'Musyoka', 'id': 22}, 'refauthors_set': [{'author': {'first_name': '', 'initials': 'F', 'last_name': 'Bohlmann', 'id': 709}, 'first_author': True, 'id': 1303}, {'author': {'first_name': '', 'initials': 'C', 'last_name': 'Zdero', 'id': 704}, 'first_author': None, 'id': 1304}], 'id': 378}]

>  <classifications>  (528) 
[{'classification': 'Sesquiterpene', 'id': 828}, {'classification': 'Terpenoid', 'id': 839}, {'classification': 'Phenol lipids (Classyfire)', 'id': 951}]

>  <molecular_mass>  (528) 
204.35

$$$$
SANC00633_minRM1.pdb
     RDKit          3D

 39 40  0  0  1  0  0  0  0  0999 V2000
    1.7080   -1.3720   -1.3240 C   0  0  0  0  0  0  0  0  0  0  0  0
    1.2890   -1.4200    0.1000 C   0  0  0  0  0  0  0  0  0  0  0  0
    2.0030   -0.8670    1.0880 C   0  0  0  0  0  0  0  0  0  0  0  0
    3.0650    0.1430    0.8360 C   0  0  0  0  0  0  0  0  0  0  0  0
    2.3920    1.5290    0.8730 C   0  0  0  0  0  0  0  0  0  0  0  0
    1.1930    1.5190   -0.0250 C   0  0  0  0  0  0  0  0  0  0  0  0
    0.0360    1.0130    0.4190 C   0  0  0  0  0  0  0  0  0  0  0  0
   -1.1470    0.8230   -0.4250 C   0  0  1  0  0  0  0  0  0  0  0  0
   -1.2650    1.6580   -1.1470 H   0  0  0  0  0  0  0  0  0  0  0  0
   -1.6310   -0.5390   -0.9120 C   0  0  2  0  0  0  0  0  0  0  0  0
   -2.0270   -0.5230   -1.9510 H   0  0  0  0  0  0  0  0  0  0  0  0
   -2.4460    0.2370    0.1110 C   0  0  1  0  0  0  0  0  0  0  0  0
   -2.5500   -0.2460    1.5270 C   0  0  0  0  0  0  0  0  0  0  0  0
   -3.7300    0.8750   -0.3490 C   0  0  0  0  0  0  0  0  0  0  0  0
   -1.0890   -1.9170   -0.6370 C   0  0  0  0  0  0  0  0  0  0  0  0
    0.0090   -2.1230    0.4050 C   0  0  0  0  0  0  0  0  0  0  0  0
    1.4170    2.0480   -1.3950 C   0  0  0  0  0  0  0  0  0  0  0  0
    1.0380   -0.7410   -1.9270 H   0  0  0  0  0  0  0  0  0  0  0  0
    2.7240   -0.9650   -1.4610 H   0  0  0  0  0  0  0  0  0  0  0  0
    1.7100   -2.3760   -1.7750 H   0  0  0  0  0  0  0  0  0  0  0  0
    1.7450   -1.0230    2.1400 H   0  0  0  0  0  0  0  0  0  0  0  0
    3.8770    0.0820    1.5890 H   0  0  0  0  0  0  0  0  0  0  0  0
    3.5740   -0.0170   -0.1400 H   0  0  0  0  0  0  0  0  0  0  0  0
    2.1110    1.7920    1.9160 H   0  0  0  0  0  0  0  0  0  0  0  0
    3.1180    2.3180    0.5840 H   0  0  0  0  0  0  0  0  0  0  0  0
   -0.0680    0.7220    1.4700 H   0  0  0  0  0  0  0  0  0  0  0  0
   -1.6940   -0.8580    1.8530 H   0  0  0  0  0  0  0  0  0  0  0  0
   -2.6230    0.5970    2.2300 H   0  0  0  0  0  0  0  0  0  0  0  0
   -3.4420   -0.8720    1.6770 H   0  0  0  0  0  0  0  0  0  0  0  0
   -4.5680    0.1620   -0.3250 H   0  0  0  0  0  0  0  0  0  0  0  0
   -4.0070    1.7260    0.2900 H   0  0  0  0  0  0  0  0  0  0  0  0
   -3.6820    1.2610   -1.3780 H   0  0  0  0  0  0  0  0  0  0  0  0
   -1.9640   -2.5420   -0.3400 H   0  0  0  0  0  0  0  0  0  0  0  0
   -0.7590   -2.3680   -1.6000 H   0  0  0  0  0  0  0  0  0  0  0  0
    0.2150   -3.2130    0.5030 H   0  0  0  0  0  0  0  0  0  0  0  0
   -0.3800   -1.8260    1.4070 H   0  0  0  0  0  0  0  0  0  0  0  0
    2.4250    1.8140   -1.7710 H   0  0  0  0  0  0  0  0  0  0  0  0
    0.7180    1.6600   -2.1510 H   0  0  0  0  0  0  0  0  0  0  0  0
    1.3180    3.1460   -1.4040 H   0  0  0  0  0  0  0  0  0  0  0  0
  1 18  1  0
  1 20  1  0
  1 19  1  0
  2  1  1  0
  2 16  1  0
  2  3  1  0
  3  4  1  0
  3 21  1  0
  4 23  1  0
  4  5  1  0
  4 22  1  0
  5  6  1  0
  5 25  1  0
  5 24  1  0
  6 17  1  0
  6  7  2  0
  7  8  1  0
  7 26  1  0
  8  9  1  6
  8 10  1  0
  8 12  1  0
 10 11  1  6
 10 15  1  0
 10 12  1  0
 12 14  1  6
 12 13  1  0
 13 29  1  0
 13 27  1  0
 13 28  1  0
 14 32  1  0
 14 30  1  0
 14 31  1  0
 15 34  1  0
 15 33  1  0
 15 16  1  0
 16 35  1  0
 16 36  1  0
 17 38  1  0
 17 37  1  0
 17 39  1  0
M  END
>  <id>  (529) 
633

>  <scaffolds>  (529) 
['C1=CCCC2CC2C=CCC1']

>  <name>  (529) 
Bicyclo[8.1.0]undeca-2,6-diene, 3,7,11,11-tetramethyl

>  <formula>  (529) 
C15H24

>  <SMILES>  (529) 
C/C/1=C\CC/C(=C/[C@H]2[C@H](C2(C)C)CC1)/C

>  <ChEMBL_id>  (529) 


>  <ZINC_id>  (529) 


>  <PubChem_id>  (529) 


>  <DrugBank_id>  (529) 


>  <CAS_no>  (529) 
67650-90-2

>  <references>  (529) 
[{'journal': {'name': 'Phytochemistry', 'id': 10}, 'title': 'New sesquiterpenes from Senecio oxyodontus', 'year': 1978, 'start_page': 1591, 'volume': 17, 'issue': 9, 'doi': '10.1016/S0031-9422(00)94649-1', 'isbn': '', 'despositor': {'code': 'TMM', 'first_name': 'Thommas', 'last_name': 'Musyoka', 'id': 22}, 'refauthors_set': [{'author': {'first_name': '', 'initials': 'F', 'last_name': 'Bohlmann', 'id': 709}, 'first_author': True, 'id': 1303}, {'author': {'first_name': '', 'initials': 'C', 'last_name': 'Zdero', 'id': 704}, 'first_author': None, 'id': 1304}], 'id': 378}]

>  <classifications>  (529) 
[{'classification': 'Sesquiterpene', 'id': 828}, {'classification': 'Terpenoid', 'id': 839}, {'classification': 'Phenol lipids (Classyfire)', 'id': 951}]

>  <molecular_mass>  (529) 
204.35

$$$$
SANC00634_minRM1.pdb
     RDKit          3D

 31 34  0  0  0  0  0  0  0  0999 V2000
    3.0670   -2.5950   -0.2430 C   0  0  0  0  0  0  0  0  0  0  0  0
    1.9890   -1.5890   -0.2900 N   0  0  0  0  0  0  0  0  0  0  0  0
    0.7730   -2.0210    0.4410 C   0  0  0  0  0  0  0  0  0  0  0  0
   -0.3480   -1.0580    0.2090 C   0  0  0  0  0  0  0  0  0  0  0  0
   -1.6600   -1.5570    0.2120 C   0  0  0  0  0  0  0  0  0  0  0  0
   -2.6480   -0.6300   -0.0040 C   0  0  0  0  0  0  0  0  0  0  0  0
   -2.3650    0.7320   -0.2150 C   0  0  0  0  0  0  0  0  0  0  0  0
   -1.0880    1.2290   -0.2130 C   0  0  0  0  0  0  0  0  0  0  0  0
   -0.0610    0.2920    0.0180 C   0  0  0  0  0  0  0  0  0  0  0  0
    1.3290    0.7220    0.0530 C   0  0  0  0  0  0  0  0  0  0  0  0
    2.3560   -0.2360   -0.0700 C   0  0  0  0  0  0  0  0  0  0  0  0
    3.6920    0.1860   -0.0740 C   0  0  0  0  0  0  0  0  0  0  0  0
    3.9960    1.5330    0.0530 C   0  0  0  0  0  0  0  0  0  0  0  0
    2.9860    2.4750    0.2000 C   0  0  0  0  0  0  0  0  0  0  0  0
    1.6610    2.0660    0.1980 C   0  0  0  0  0  0  0  0  0  0  0  0
   -3.5380    1.4140   -0.4100 O   0  0  0  0  0  0  0  0  0  0  0  0
   -4.5830    0.4490   -0.3110 C   0  0  0  0  0  0  0  0  0  0  0  0
   -4.0030   -0.8280   -0.0580 O   0  0  0  0  0  0  0  0  0  0  0  0
    3.5650   -2.7010    0.7400 H   0  0  0  0  0  0  0  0  0  0  0  0
    2.6750   -3.5910   -0.5170 H   0  0  0  0  0  0  0  0  0  0  0  0
    3.8440   -2.3610   -0.9920 H   0  0  0  0  0  0  0  0  0  0  0  0
    0.4980   -3.0410    0.0810 H   0  0  0  0  0  0  0  0  0  0  0  0
    0.9370   -2.1340    1.5430 H   0  0  0  0  0  0  0  0  0  0  0  0
   -1.8870   -2.6120    0.3710 H   0  0  0  0  0  0  0  0  0  0  0  0
   -0.8850    2.2880   -0.3840 H   0  0  0  0  0  0  0  0  0  0  0  0
    4.5200   -0.5210   -0.1760 H   0  0  0  0  0  0  0  0  0  0  0  0
    5.0420    1.8540    0.0430 H   0  0  0  0  0  0  0  0  0  0  0  0
    3.2340    3.5330    0.3140 H   0  0  0  0  0  0  0  0  0  0  0  0
    0.8710    2.8180    0.3120 H   0  0  0  0  0  0  0  0  0  0  0  0
   -5.2610    0.7210    0.5280 H   0  0  0  0  0  0  0  0  0  0  0  0
   -5.1510    0.4180   -1.2670 H   0  0  0  0  0  0  0  0  0  0  0  0
  1 21  1  0
  1 20  1  0
  1  2  1  0
  1 19  1  0
  2 11  1  0
  2  3  1  0
  3 22  1  0
  3  4  1  0
  3 23  1  0
  4  9  2  0
  4  5  1  0
  5  6  2  0
  5 24  1  0
  6  7  1  0
  6 18  1  0
  7 16  1  0
  7  8  2  0
  8 25  1  0
  8  9  1  0
  9 10  1  0
 10 11  2  0
 10 15  1  0
 11 12  1  0
 12 26  1  0
 12 13  2  0
 13 27  1  0
 13 14  1  0
 14 15  2  0
 14 28  1  0
 15 29  1  0
 16 17  1  0
 17 31  1  0
 17 18  1  0
 17 30  1  0
M  END
>  <id>  (530) 
634

>  <scaffolds>  (530) 
['c1ccccc1', 'c1ccc2c(c1)OCO2', 'c1ccc2c(c1)NCc1cc3c(cc1-2)OCO3']

>  <name>  (530) 
5,6-dihydrobicolorine

>  <formula>  (530) 
C15H13NO2

>  <SMILES>  (530) 
CN1Cc2cc3c(cc2-c4c1cccc4)OCO3

>  <ChEMBL_id>  (530) 


>  <ZINC_id>  (530) 


>  <PubChem_id>  (530) 


>  <DrugBank_id>  (530) 


>  <CAS_no>  (530) 
1805-78-3

>  <references>  (530) 
[{'journal': {'name': 'Phytochemistry', 'id': 10}, 'title': 'Alkaloids from Boophane flava', 'year': 1995, 'start_page': 307, 'volume': 40, 'issue': 1, 'doi': '10.1016/0031-9422(95)00191-9', 'isbn': '', 'despositor': {'code': 'TMM', 'first_name': 'Thommas', 'last_name': 'Musyoka', 'id': 22}, 'refauthors_set': [{'author': {'first_name': 'Frances', 'initials': 'F', 'last_name': 'Viladomat', 'id': 808}, 'first_author': True, 'id': 1305}, {'author': {'first_name': 'Jaume', 'initials': 'J', 'last_name': 'Bastida', 'id': 810}, 'first_author': None, 'id': 1306}, {'author': {'first_name': 'Carles', 'initials': 'C', 'last_name': 'Codina', 'id': 809}, 'first_author': None, 'id': 1307}, {'author': {'first_name': 'William', 'initials': 'WE', 'last_name': 'Campbell', 'id': 621}, 'first_author': None, 'id': 1308}, {'author': {'first_name': '', 'initials': 'S', 'last_name': 'Mathee', 'id': 800}, 'first_author': None, 'id': 1309}], 'id': 379}]

>  <classifications>  (530) 
[{'classification': 'Alkaloid', 'id': 738}, {'classification': 'Quinolines and derivatives (Classyfire)', 'id': 948}]

>  <molecular_mass>  (530) 
239.27

$$$$
SANC00635_minRM1.pdb
     RDKit          3D

 41 46  0  0  1  0  0  0  0  0999 V2000
    4.3880   -0.4830    2.4790 C   0  0  0  0  0  0  0  0  0  0  0  0
    3.3060   -0.9170    1.7020 O   0  0  0  0  0  0  0  0  0  0  0  0
    3.4780   -0.7330    0.3150 C   0  0  2  0  0  0  0  0  0  0  0  0
    4.5380   -0.9220   -0.0140 H   0  0  0  0  0  0  0  0  0  0  0  0
    3.0510    0.6790   -0.1010 C   0  0  0  0  0  0  0  0  0  0  0  0
    1.5570    0.8500    0.1490 C   0  0  2  0  0  0  0  0  0  0  0  0
    1.3460    0.6200    1.2270 H   0  0  0  0  0  0  0  0  0  0  0  0
    0.7060   -0.0270   -0.8030 C   0  0  2  0  0  0  0  0  0  0  0  0
    0.7480    0.7480   -2.1350 C   0  0  0  0  0  0  0  0  0  0  0  0
    1.0010    2.2070   -1.7060 C   0  0  0  0  0  0  0  0  0  0  0  0
    1.1120    2.2420   -0.2090 N   0  0  0  0  0  0  0  0  0  0  0  0
   -0.2370    2.4290    0.3990 C   0  0  0  0  0  0  0  0  0  0  0  0
   -1.1650    1.2590    0.2240 C   0  0  0  0  0  0  0  0  0  0  0  0
   -0.7180    0.0530   -0.3180 C   0  0  0  0  0  0  0  0  0  0  0  0
   -1.5880   -1.0400   -0.4720 C   0  0  0  0  0  0  0  0  0  0  0  0
   -2.8770   -0.8570   -0.0430 C   0  0  0  0  0  0  0  0  0  0  0  0
   -3.3200    0.3560    0.5140 C   0  0  0  0  0  0  0  0  0  0  0  0
   -2.4890    1.4360    0.6620 C   0  0  0  0  0  0  0  0  0  0  0  0
   -4.6450    0.2480    0.8460 O   0  0  0  0  0  0  0  0  0  0  0  0
   -5.0410   -1.0740    0.4850 C   0  0  0  0  0  0  0  0  0  0  0  0
   -3.9150   -1.7500   -0.0730 O   0  0  0  0  0  0  0  0  0  0  0  0
    1.2430   -1.4330   -0.8970 C   0  0  2  0  0  0  0  0  0  0  0  0
    0.4710   -2.2260   -1.0010 H   0  0  0  0  0  0  0  0  0  0  0  0
    2.5850   -1.7910   -0.3170 C   0  0  1  0  0  0  0  0  0  0  0  0
    2.7810   -2.8200    0.0420 H   0  0  0  0  0  0  0  0  0  0  0  0
    2.3910   -1.6270   -1.7100 O   0  0  0  0  0  0  0  0  0  0  0  0
    4.0710   -0.6730    3.5160 H   0  0  0  0  0  0  0  0  0  0  0  0
    5.3160   -1.0490    2.2860 H   0  0  0  0  0  0  0  0  0  0  0  0
    4.6120    0.5910    2.3730 H   0  0  0  0  0  0  0  0  0  0  0  0
    3.6230    1.4520    0.4530 H   0  0  0  0  0  0  0  0  0  0  0  0
    3.3250    0.8440   -1.1640 H   0  0  0  0  0  0  0  0  0  0  0  0
    1.5340    0.3840   -2.8230 H   0  0  0  0  0  0  0  0  0  0  0  0
   -0.1880    0.6320   -2.7140 H   0  0  0  0  0  0  0  0  0  0  0  0
    1.9560    2.6030   -2.1160 H   0  0  0  0  0  0  0  0  0  0  0  0
    0.2260    2.8990   -2.0990 H   0  0  0  0  0  0  0  0  0  0  0  0
   -0.0930    2.6330    1.4870 H   0  0  0  0  0  0  0  0  0  0  0  0
   -0.7010    3.3620    0.0010 H   0  0  0  0  0  0  0  0  0  0  0  0
   -1.2620   -1.9890   -0.9080 H   0  0  0  0  0  0  0  0  0  0  0  0
   -2.8350    2.3770    1.0930 H   0  0  0  0  0  0  0  0  0  0  0  0
   -5.3890   -1.6170    1.3910 H   0  0  0  0  0  0  0  0  0  0  0  0
   -5.8550   -1.0240   -0.2700 H   0  0  0  0  0  0  0  0  0  0  0  0
  1  2  1  0
  1 28  1  0
  1 29  1  0
  1 27  1  0
  2  3  1  0
  3 24  1  0
  3  5  1  0
  3  4  1  1
  5 31  1  0
  5  6  1  0
  5 30  1  0
  6  8  1  0
  6 11  1  0
  6  7  1  1
  8  9  1  6
  8 22  1  0
  8 14  1  0
  9 32  1  0
  9 33  1  0
  9 10  1  0
 10 34  1  0
 10 35  1  0
 11 10  1  0
 11 12  1  0
 12 37  1  0
 12 13  1  0
 12 36  1  0
 13 14  2  0
 13 18  1  0
 14 15  1  0
 15 38  1  0
 15 16  2  0
 16 21  1  0
 16 17  1  0
 17 18  2  0
 17 19  1  0
 18 39  1  0
 19 20  1  0
 20 41  1  0
 20 21  1  0
 20 40  1  0
 22 26  1  0
 22 23  1  6
 22 24  1  0
 24 26  1  0
 24 25  1  6
M  END
>  <id>  (531) 
635

>  <scaffolds>  (531) 
['c1ccccc1', 'c1c2c(cc3c1OCO3)C13CCN(C2)C1CCC1OC13', 'C1CCCCC1', 'c1ccc(C23CCCCC2NCC3)cc1', 'C1CCNC1', 'c1ccc2c(c1)OCO2', 'c1c2c(cc3c1OCO3)C13CCCCC1N(CC3)C2']

>  <name>  (531) 
Augustine

>  <formula>  (531) 
C17H19NO4

>  <SMILES>  (531) 
CO[C@@H]1C[C@@H]2[C@@]3(CCN2Cc4c3cc5c(c4)OCO5)[C@@H]6[C@H]1O6

>  <ChEMBL_id>  (531) 


>  <ZINC_id>  (531) 


>  <PubChem_id>  (531) 


>  <DrugBank_id>  (531) 


>  <CAS_no>  (531) 
79659-60-2

>  <references>  (531) 
[{'journal': {'name': 'Phytochemistry', 'id': 10}, 'title': 'Alkaloids from Boophane flava', 'year': 1995, 'start_page': 307, 'volume': 40, 'issue': 1, 'doi': '10.1016/0031-9422(95)00191-9', 'isbn': '', 'despositor': {'code': 'TMM', 'first_name': 'Thommas', 'last_name': 'Musyoka', 'id': 22}, 'refauthors_set': [{'author': {'first_name': 'Frances', 'initials': 'F', 'last_name': 'Viladomat', 'id': 808}, 'first_author': True, 'id': 1305}, {'author': {'first_name': 'Jaume', 'initials': 'J', 'last_name': 'Bastida', 'id': 810}, 'first_author': None, 'id': 1306}, {'author': {'first_name': 'Carles', 'initials': 'C', 'last_name': 'Codina', 'id': 809}, 'first_author': None, 'id': 1307}, {'author': {'first_name': 'William', 'initials': 'WE', 'last_name': 'Campbell', 'id': 621}, 'first_author': None, 'id': 1308}, {'author': {'first_name': '', 'initials': 'S', 'last_name': 'Mathee', 'id': 800}, 'first_author': None, 'id': 1309}], 'id': 379}]

>  <classifications>  (531) 
[{'classification': 'Alkaloid', 'id': 738}, {'classification': 'Amaryllidaceae', 'id': 741}, {'classification': 'Amaryllidaceae alkaloids (Classyfire)', 'id': 971}]

>  <molecular_mass>  (531) 
301.34

$$$$
SANC00636_minRM1.pdb
     RDKit          3D

 41 45  0  0  1  0  0  0  0  0999 V2000
    3.7510   -3.1830    0.2610 C   0  0  0  0  0  0  0  0  0  0  0  0
    3.5620   -1.9240    0.8440 O   0  0  0  0  0  0  0  0  0  0  0  0
    2.5190   -1.1620    0.2920 C   0  0  1  0  0  0  0  0  0  0  0  0
    2.3830    0.0440    1.2420 C   0  0  0  0  0  0  0  0  0  0  0  0
    1.8640    1.2960    0.5300 C   0  0  1  0  0  0  0  0  0  0  0  0
    1.2030    1.0120   -0.7930 C   0  0  0  0  0  0  0  0  0  0  0  0
    1.6550    0.0940   -1.6330 C   0  0  0  0  0  0  0  0  0  0  0  0
    2.8250   -0.7310   -1.1680 C   0  0  1  0  0  0  0  0  0  0  0  0
    3.9980    0.0250   -1.1170 O   0  0  0  0  0  0  0  0  0  0  0  0
   -0.0120    1.8820   -0.9060 C   0  0  2  0  0  0  0  0  0  0  0  0
    0.2480    2.9480    0.1880 C   0  0  0  0  0  0  0  0  0  0  0  0
    0.8710    2.1390    1.2970 N   0  0  0  0  0  0  0  0  0  0  0  0
   -0.2180    1.3170    1.9010 C   0  0  0  0  0  0  0  0  0  0  0  0
   -1.2170    0.7430    0.9340 C   0  0  0  0  0  0  0  0  0  0  0  0
   -1.1520    1.0360   -0.4260 C   0  0  0  0  0  0  0  0  0  0  0  0
   -2.0910    0.5430   -1.3460 C   0  0  0  0  0  0  0  0  0  0  0  0
   -3.0770   -0.2490   -0.8160 C   0  0  0  0  0  0  0  0  0  0  0  0
   -3.1470   -0.5490    0.5580 C   0  0  0  0  0  0  0  0  0  0  0  0
   -2.2360   -0.0690    1.4630 C   0  0  0  0  0  0  0  0  0  0  0  0
   -4.2300   -1.3550    0.7920 O   0  0  0  0  0  0  0  0  0  0  0  0
   -4.8530   -1.5670   -0.4730 C   0  0  0  0  0  0  0  0  0  0  0  0
   -4.1150   -0.8610   -1.4690 O   0  0  0  0  0  0  0  0  0  0  0  0
    4.4100   -3.7130    0.9670 H   0  0  0  0  0  0  0  0  0  0  0  0
    2.8260   -3.7730    0.1360 H   0  0  0  0  0  0  0  0  0  0  0  0
    4.2650   -3.1310   -0.7140 H   0  0  0  0  0  0  0  0  0  0  0  0
    1.5550   -1.7430    0.2730 H   0  0  0  0  0  0  0  0  0  0  0  0
    1.7430   -0.2470    2.1050 H   0  0  0  0  0  0  0  0  0  0  0  0
    3.3630    0.2850    1.7130 H   0  0  0  0  0  0  0  0  0  0  0  0
    2.7430    1.9750    0.3410 H   0  0  0  0  0  0  0  0  0  0  0  0
    1.2110   -0.1170   -2.6050 H   0  0  0  0  0  0  0  0  0  0  0  0
    2.9540   -1.6290   -1.8310 H   0  0  0  0  0  0  0  0  0  0  0  0
    4.1370    0.3930   -1.9950 H   0  0  0  0  0  0  0  0  0  0  0  0
   -0.1700    2.3140   -1.9160 H   0  0  0  0  0  0  0  0  0  0  0  0
    0.9510    3.7410   -0.1460 H   0  0  0  0  0  0  0  0  0  0  0  0
   -0.6670    3.4860    0.5100 H   0  0  0  0  0  0  0  0  0  0  0  0
    0.2270    0.5020    2.5230 H   0  0  0  0  0  0  0  0  0  0  0  0
   -0.7470    1.9770    2.6290 H   0  0  0  0  0  0  0  0  0  0  0  0
   -2.0410    0.7720   -2.4110 H   0  0  0  0  0  0  0  0  0  0  0  0
   -2.2980   -0.3020    2.5270 H   0  0  0  0  0  0  0  0  0  0  0  0
   -4.8510   -2.6540   -0.7100 H   0  0  0  0  0  0  0  0  0  0  0  0
   -5.8960   -1.1830   -0.4420 H   0  0  0  0  0  0  0  0  0  0  0  0
  1 25  1  0
  1 24  1  0
  1  2  1  0
  1 23  1  0
  2  3  1  0
  3  8  1  0
  3 26  1  6
  3  4  1  0
  4  5  1  0
  4 28  1  0
  4 27  1  0
  5  6  1  0
  5 29  1  6
  5 12  1  0
  6  7  2  0
  6 10  1  0
  7 30  1  0
  7  8  1  0
  8 31  1  6
  8  9  1  0
  9 32  1  0
 10 33  1  6
 10 15  1  0
 10 11  1  0
 11 34  1  0
 11 35  1  0
 12 11  1  0
 12 13  1  0
 13 14  1  0
 13 36  1  0
 13 37  1  0
 14 15  2  0
 14 19  1  0
 15 16  1  0
 16 38  1  0
 16 17  2  0
 17 22  1  0
 17 18  1  0
 18 20  1  0
 18 19  2  0
 19 39  1  0
 20 21  1  0
 21 22  1  0
 21 40  1  0
 21 41  1  0
M  END
>  <id>  (532) 
636

>  <scaffolds>  (532) 
['c1ccccc1', 'C1=CCCCC1', 'C1=C2C3CN(Cc4cc5c(cc43)OCO5)C2CCC1', 'C1CCNC1', 'c1ccc2c(c1)OCO2']

>  <name>  (532) 
Montabuphine

>  <formula>  (532) 
C17H19NO4

>  <SMILES>  (532) 
COC1CC2C(=CC1O)C3CN2Cc4c3cc5c(c4)OCO5

>  <ChEMBL_id>  (532) 


>  <ZINC_id>  (532) 


>  <PubChem_id>  (532) 


>  <DrugBank_id>  (532) 


>  <CAS_no>  (532) 
168611-77-6

>  <references>  (532) 
[{'journal': {'name': 'Phytochemistry', 'id': 10}, 'title': 'Alkaloids from Boophane flava', 'year': 1995, 'start_page': 307, 'volume': 40, 'issue': 1, 'doi': '10.1016/0031-9422(95)00191-9', 'isbn': '', 'despositor': {'code': 'TMM', 'first_name': 'Thommas', 'last_name': 'Musyoka', 'id': 22}, 'refauthors_set': [{'author': {'first_name': 'Frances', 'initials': 'F', 'last_name': 'Viladomat', 'id': 808}, 'first_author': True, 'id': 1305}, {'author': {'first_name': 'Jaume', 'initials': 'J', 'last_name': 'Bastida', 'id': 810}, 'first_author': None, 'id': 1306}, {'author': {'first_name': 'Carles', 'initials': 'C', 'last_name': 'Codina', 'id': 809}, 'first_author': None, 'id': 1307}, {'author': {'first_name': 'William', 'initials': 'WE', 'last_name': 'Campbell', 'id': 621}, 'first_author': None, 'id': 1308}, {'author': {'first_name': '', 'initials': 'S', 'last_name': 'Mathee', 'id': 800}, 'first_author': None, 'id': 1309}], 'id': 379}]

>  <classifications>  (532) 
[{'classification': 'Alkaloid', 'id': 738}, {'classification': 'Montanine', 'id': 796}, {'classification': 'Benzazepines (Classyfire)', 'id': 992}]

>  <molecular_mass>  (532) 
301.34

$$$$
SANC00637_minRM1.pdb
     RDKit          3D

 42 45  0  0  1  0  0  0  0  0999 V2000
    4.4980    1.5960    0.1140 C   0  0  0  0  0  0  0  0  0  0  0  0
    3.1370    1.0100    0.2200 N   0  0  0  0  0  0  0  0  0  0  0  0
    3.2220   -0.4490    0.5120 C   0  0  0  0  0  0  0  0  0  0  0  0
    1.9740   -0.9200    1.2650 C   0  0  0  0  0  0  0  0  0  0  0  0
    0.7240   -1.0120    0.3880 C   0  0  1  0  0  0  0  0  0  0  0  0
    0.9820   -1.8350   -0.8290 C   0  0  0  0  0  0  0  0  0  0  0  0
    0.1290   -2.7160   -1.3360 C   0  0  0  0  0  0  0  0  0  0  0  0
   -1.1860   -3.0200   -0.6840 C   0  0  1  0  0  0  0  0  0  0  0  0
   -1.5040   -4.0710   -0.9370 H   0  0  0  0  0  0  0  0  0  0  0  0
   -1.0410   -2.8830    0.8340 C   0  0  0  0  0  0  0  0  0  0  0  0
   -0.4990   -1.5170    1.2340 C   0  0  2  0  0  0  0  0  0  0  0  0
   -0.2560   -1.5220    2.3290 H   0  0  0  0  0  0  0  0  0  0  0  0
   -1.5600   -0.5720    1.0880 O   0  0  0  0  0  0  0  0  0  0  0  0
   -1.0710    0.4960    0.3990 C   0  0  0  0  0  0  0  0  0  0  0  0
    0.2540    0.3500   -0.0140 C   0  0  0  0  0  0  0  0  0  0  0  0
    0.9060    1.3900   -0.6440 C   0  0  0  0  0  0  0  0  0  0  0  0
    0.1850    2.5570   -0.9030 C   0  0  0  0  0  0  0  0  0  0  0  0
   -1.1490    2.6930   -0.5280 C   0  0  0  0  0  0  0  0  0  0  0  0
   -1.7980    1.6590    0.1460 C   0  0  0  0  0  0  0  0  0  0  0  0
   -3.0790    1.6580    0.6100 O   0  0  0  0  0  0  0  0  0  0  0  0
   -3.8470    2.8010    0.3340 C   0  0  0  0  0  0  0  0  0  0  0  0
    2.3490    1.2860   -1.0200 C   0  0  0  0  0  0  0  0  0  0  0  0
   -2.1940   -2.1340   -1.0770 O   0  0  0  0  0  0  0  0  0  0  0  0
    4.4350    2.6840   -0.0590 H   0  0  0  0  0  0  0  0  0  0  0  0
    5.0360    1.4770    1.0710 H   0  0  0  0  0  0  0  0  0  0  0  0
    5.1470    1.1780   -0.6780 H   0  0  0  0  0  0  0  0  0  0  0  0
    3.4030   -1.0870   -0.3920 H   0  0  0  0  0  0  0  0  0  0  0  0
    4.1090   -0.6550    1.1590 H   0  0  0  0  0  0  0  0  0  0  0  0
    2.1810   -1.9180    1.7110 H   0  0  0  0  0  0  0  0  0  0  0  0
    1.7830   -0.2470    2.1280 H   0  0  0  0  0  0  0  0  0  0  0  0
    1.9500   -1.6660   -1.3190 H   0  0  0  0  0  0  0  0  0  0  0  0
    0.3600   -3.2730   -2.2490 H   0  0  0  0  0  0  0  0  0  0  0  0
   -2.0180   -3.0650    1.3320 H   0  0  0  0  0  0  0  0  0  0  0  0
   -0.3640   -3.6770    1.2120 H   0  0  0  0  0  0  0  0  0  0  0  0
    0.6710    3.3980   -1.4050 H   0  0  0  0  0  0  0  0  0  0  0  0
   -1.6620    3.6290   -0.7640 H   0  0  0  0  0  0  0  0  0  0  0  0
   -3.4590    3.7140    0.8160 H   0  0  0  0  0  0  0  0  0  0  0  0
   -3.9800    2.9920   -0.7440 H   0  0  0  0  0  0  0  0  0  0  0  0
   -4.8280    2.5610    0.7720 H   0  0  0  0  0  0  0  0  0  0  0  0
    2.6940    2.2340   -1.4990 H   0  0  0  0  0  0  0  0  0  0  0  0
    2.4760    0.5330   -1.8360 H   0  0  0  0  0  0  0  0  0  0  0  0
   -2.0470   -1.9050   -1.9990 H   0  0  0  0  0  0  0  0  0  0  0  0
  1 26  1  0
  1 24  1  0
  1  2  1  0
  1 25  1  0
  2 22  1  0
  2  3  1  0
  3 27  1  0
  3 28  1  0
  3  4  1  0
  4  5  1  0
  4 29  1  0
  4 30  1  0
  5  6  1  6
  5 15  1  0
  5 11  1  0
  6  7  2  0
  6 31  1  0
  7 32  1  0
  7  8  1  0
  8 23  1  0
  8  9  1  1
  8 10  1  0
 10 34  1  0
 10 11  1  0
 10 33  1  0
 11 13  1  0
 11 12  1  1
 13 14  1  0
 14 15  2  0
 14 19  1  0
 15 16  1  0
 16 22  1  0
 16 17  2  0
 17 35  1  0
 17 18  1  0
 18 36  1  0
 18 19  2  0
 19 20  1  0
 20 21  1  0
 21 38  1  0
 21 39  1  0
 21 37  1  0
 22 41  1  0
 22 40  1  0
 23 42  1  0
M  END
>  <id>  (533) 
637

>  <scaffolds>  (533) 
['c1ccccc1', 'C1=CCCCC1', 'C1=CC23CCNCc4cccc(c42)OC3CC1']

>  <name>  (533) 
Galanthamine

>  <formula>  (533) 
C17H21NO3

>  <SMILES>  (533) 
CN1CC[C@@]23C=C[C@@H](C[C@@H]2Oc4c3c(ccc4OC)C1)O

>  <ChEMBL_id>  (533) 


>  <ZINC_id>  (533) 


>  <PubChem_id>  (533) 


>  <DrugBank_id>  (533) 


>  <CAS_no>  (533) 
357-70-0

>  <references>  (533) 
[{'journal': {'name': 'Fitoterapia', 'id': 35}, 'title': 'Alkaloids from Cyrtanthus elatus', 'year': 2001, 'start_page': 444, 'volume': 72, 'issue': 4, 'doi': '10.1016/S0367-326X(00)00313-0', 'isbn': '', 'despositor': {'code': 'TMM', 'first_name': 'Thommas', 'last_name': 'Musyoka', 'id': 22}, 'refauthors_set': [{'author': {'first_name': '', 'initials': 'MR', 'last_name': 'Herrera ', 'id': 823}, 'first_author': True, 'id': 1310}, {'author': {'first_name': '', 'initials': 'AK', 'last_name': 'Machocho', 'id': 824}, 'first_author': None, 'id': 1311}, {'author': {'first_name': 'Jerald', 'initials': 'JJ', 'last_name': 'Nair', 'id': 620}, 'first_author': None, 'id': 1312}, {'author': {'first_name': 'William', 'initials': 'WE', 'last_name': 'Campbell', 'id': 621}, 'first_author': None, 'id': 1313}, {'author': {'first_name': '', 'initials': 'R', 'last_name': 'Brun', 'id': 825}, 'first_author': None, 'id': 1314}, {'author': {'first_name': 'Frances', 'initials': 'F', 'last_name': 'Viladomat', 'id': 808}, 'first_author': None, 'id': 1315}, {'author': {'first_name': 'Carles', 'initials': 'C', 'last_name': 'Codina', 'id': 809}, 'first_author': None, 'id': 1316}, {'author': {'first_name': 'Jaume', 'initials': 'J', 'last_name': 'Bastida', 'id': 810}, 'first_author': None, 'id': 1317}], 'id': 380}]

>  <classifications>  (533) 
[{'classification': 'Alkaloid', 'id': 738}, {'classification': 'Isoquinoline', 'id': 790}, {'classification': 'Amaryllidaceae alkaloids (Classyfire)', 'id': 971}]

>  <molecular_mass>  (533) 
287.35

$$$$
SANC00638_minRM1.pdb
     RDKit          3D

 40 44  0  0  1  0  0  0  0  0999 V2000
    2.5350   -1.4850    0.1040 C   0  0  0  0  0  0  0  0  0  0  0  0
    1.1550   -1.2610   -0.0580 C   0  0  0  0  0  0  0  0  0  0  0  0
    0.6310    0.0170   -0.2420 C   0  0  0  0  0  0  0  0  0  0  0  0
    1.4580    1.1530   -0.2590 C   0  0  0  0  0  0  0  0  0  0  0  0
    2.8000    0.9220   -0.0980 C   0  0  0  0  0  0  0  0  0  0  0  0
    3.3290   -0.3690    0.0760 C   0  0  0  0  0  0  0  0  0  0  0  0
    4.6920   -0.2900    0.2060 O   0  0  0  0  0  0  0  0  0  0  0  0
    5.0190    1.0960    0.1390 C   0  0  0  0  0  0  0  0  0  0  0  0
    3.8200    1.8380   -0.0770 O   0  0  0  0  0  0  0  0  0  0  0  0
   -0.8460    0.1220   -0.4410 C   0  0  1  0  0  0  0  0  0  0  0  0
   -1.0570   -0.2160   -1.4920 H   0  0  0  0  0  0  0  0  0  0  0  0
   -1.5040   -0.8310    0.5740 C   0  0  1  0  0  0  0  0  0  0  0  0
   -1.1590   -0.5860    1.6120 H   0  0  0  0  0  0  0  0  0  0  0  0
   -3.0380   -0.8340    0.4700 C   0  0  2  0  0  0  0  0  0  0  0  0
   -3.4540   -1.3350    1.3860 H   0  0  0  0  0  0  0  0  0  0  0  0
   -3.3140   -1.7380   -0.7370 C   0  0  0  0  0  0  0  0  0  0  0  0
   -2.0960   -2.6790   -0.8130 C   0  0  0  0  0  0  0  0  0  0  0  0
   -1.1560   -2.2470    0.2690 N   0  0  0  0  0  0  0  0  0  0  0  0
    0.2770   -2.4760   -0.0330 C   0  0  0  0  0  0  0  0  0  0  0  0
   -3.6520    0.5520    0.3970 C   0  0  0  0  0  0  0  0  0  0  0  0
   -2.9410    1.4670   -0.6030 C   0  0  2  0  0  0  0  0  0  0  0  0
   -3.0990    1.1070   -1.6570 H   0  0  0  0  0  0  0  0  0  0  0  0
   -1.4200    1.5370   -0.3010 C   0  0  1  0  0  0  0  0  0  0  0  0
   -0.9400    2.2340   -1.0450 H   0  0  0  0  0  0  0  0  0  0  0  0
   -1.1770    1.9470    1.0090 O   0  0  0  0  0  0  0  0  0  0  0  0
   -3.3820    2.7890   -0.4770 O   0  0  0  0  0  0  0  0  0  0  0  0
    2.9510   -2.4840    0.2460 H   0  0  0  0  0  0  0  0  0  0  0  0
    1.0800    2.1690   -0.3790 H   0  0  0  0  0  0  0  0  0  0  0  0
    5.4850    1.4140    1.0970 H   0  0  0  0  0  0  0  0  0  0  0  0
    5.7200    1.2720   -0.7040 H   0  0  0  0  0  0  0  0  0  0  0  0
   -4.2630   -2.2960   -0.6270 H   0  0  0  0  0  0  0  0  0  0  0  0
   -3.4440   -1.1680   -1.6770 H   0  0  0  0  0  0  0  0  0  0  0  0
   -2.3660   -3.7370   -0.6080 H   0  0  0  0  0  0  0  0  0  0  0  0
   -1.6670   -2.6900   -1.8430 H   0  0  0  0  0  0  0  0  0  0  0  0
    0.4380   -3.0390   -0.9850 H   0  0  0  0  0  0  0  0  0  0  0  0
    0.6180   -3.1730    0.7720 H   0  0  0  0  0  0  0  0  0  0  0  0
   -4.7320    0.4710    0.1480 H   0  0  0  0  0  0  0  0  0  0  0  0
   -3.6270    1.0200    1.4070 H   0  0  0  0  0  0  0  0  0  0  0  0
   -1.5180    2.8420    1.1070 H   0  0  0  0  0  0  0  0  0  0  0  0
   -4.3360    2.7980   -0.6010 H   0  0  0  0  0  0  0  0  0  0  0  0
  1  2  2  0
  1  6  1  0
  1 27  1  0
  2  3  1  0
  2 19  1  0
  3 10  1  0
  3  4  2  0
  4 28  1  0
  4  5  1  0
  5  9  1  0
  5  6  2  0
  6  7  1  0
  7  8  1  0
  8 30  1  0
  8  9  1  0
  8 29  1  0
 10 11  1  6
 10 23  1  0
 10 12  1  0
 12 18  1  0
 12 14  1  0
 12 13  1  1
 14 16  1  0
 14 20  1  0
 14 15  1  1
 16 32  1  0
 16 17  1  0
 16 31  1  0
 17 34  1  0
 17 33  1  0
 18 17  1  0
 18 19  1  0
 19 35  1  0
 19 36  1  0
 20 21  1  0
 20 37  1  0
 20 38  1  0
 21 22  1  6
 21 26  1  0
 21 23  1  0
 23 24  1  6
 23 25  1  0
 25 39  1  0
 26 40  1  0
M  END
>  <id>  (534) 
638

>  <scaffolds>  (534) 
['c1ccccc1', 'C1CCCCC1', 'c1c2c(cc3c1OCO3)C1CCCC3CCN(C2)C31', 'C1CCNC1', 'c1ccc2c(c1)OCO2']

>  <name>  (534) 
Zephyranthine

>  <formula>  (534) 
C16H19NO4

>  <SMILES>  (534) 
c1c2c(cc3c1OCO3)[C@H]4[C@H]5[C@H](CCN5C2)C[C@H]([C@H]4O)O

>  <ChEMBL_id>  (534) 


>  <ZINC_id>  (534) 


>  <PubChem_id>  (534) 


>  <DrugBank_id>  (534) 


>  <CAS_no>  (534) 
2030-55-9

>  <references>  (534) 
[{'journal': {'name': 'Fitoterapia', 'id': 35}, 'title': 'Alkaloids from Cyrtanthus elatus', 'year': 2001, 'start_page': 444, 'volume': 72, 'issue': 4, 'doi': '10.1016/S0367-326X(00)00313-0', 'isbn': '', 'despositor': {'code': 'TMM', 'first_name': 'Thommas', 'last_name': 'Musyoka', 'id': 22}, 'refauthors_set': [{'author': {'first_name': '', 'initials': 'MR', 'last_name': 'Herrera ', 'id': 823}, 'first_author': True, 'id': 1310}, {'author': {'first_name': '', 'initials': 'AK', 'last_name': 'Machocho', 'id': 824}, 'first_author': None, 'id': 1311}, {'author': {'first_name': 'Jerald', 'initials': 'JJ', 'last_name': 'Nair', 'id': 620}, 'first_author': None, 'id': 1312}, {'author': {'first_name': 'William', 'initials': 'WE', 'last_name': 'Campbell', 'id': 621}, 'first_author': None, 'id': 1313}, {'author': {'first_name': '', 'initials': 'R', 'last_name': 'Brun', 'id': 825}, 'first_author': None, 'id': 1314}, {'author': {'first_name': 'Frances', 'initials': 'F', 'last_name': 'Viladomat', 'id': 808}, 'first_author': None, 'id': 1315}, {'author': {'first_name': 'Carles', 'initials': 'C', 'last_name': 'Codina', 'id': 809}, 'first_author': None, 'id': 1316}, {'author': {'first_name': 'Jaume', 'initials': 'J', 'last_name': 'Bastida', 'id': 810}, 'first_author': None, 'id': 1317}], 'id': 380}]

>  <classifications>  (534) 
[{'classification': 'Alkaloid', 'id': 738}, {'classification': 'Amaryllidaceae', 'id': 741}, {'classification': 'Amaryllidaceae alkaloids (Classyfire)', 'id': 971}]

>  <molecular_mass>  (534) 
289.33

$$$$
SANC00639_minRM1.pdb
     RDKit          3D

 42 46  0  0  1  0  0  0  0  0999 V2000
    3.9090   -2.4410   -1.8750 C   0  0  0  0  0  0  0  0  0  0  0  0
    3.4890   -1.1360   -1.5810 O   0  0  0  0  0  0  0  0  0  0  0  0
    3.5560   -0.7950   -0.2140 C   0  0  1  0  0  0  0  0  0  0  0  0
    4.6140   -0.8910    0.1590 H   0  0  0  0  0  0  0  0  0  0  0  0
    3.1210    0.6760   -0.1460 C   0  0  0  0  0  0  0  0  0  0  0  0
    1.6160    0.7600   -0.3730 C   0  0  1  0  0  0  0  0  0  0  0  0
    1.3940    0.3750   -1.4040 H   0  0  0  0  0  0  0  0  0  0  0  0
    0.8380   -0.0210    0.7140 C   0  0  2  0  0  0  0  0  0  0  0  0
    1.4540   -1.3350    1.0230 C   0  0  0  0  0  0  0  0  0  0  0  0
    2.6660   -1.6840    0.6050 C   0  0  0  0  0  0  0  0  0  0  0  0
   -0.5990   -0.0870    0.2710 C   0  0  0  0  0  0  0  0  0  0  0  0
   -1.3850   -1.2100    0.5830 C   0  0  0  0  0  0  0  0  0  0  0  0
   -2.6980   -1.1550    0.1890 C   0  0  0  0  0  0  0  0  0  0  0  0
   -3.2400   -0.0410   -0.4790 C   0  0  0  0  0  0  0  0  0  0  0  0
   -2.4880    1.0620   -0.7860 C   0  0  0  0  0  0  0  0  0  0  0  0
   -1.1380    1.0110   -0.3970 C   0  0  0  0  0  0  0  0  0  0  0  0
   -0.2840    2.2120   -0.7680 C   0  0  1  0  0  0  0  0  0  0  0  0
   -0.7820    3.1680   -0.4310 H   0  0  0  0  0  0  0  0  0  0  0  0
    1.1060    2.1600   -0.1970 N   0  0  0  0  0  0  0  0  0  0  0  0
    1.0390    2.3480    1.2860 C   0  0  0  0  0  0  0  0  0  0  0  0
    0.8380    0.9470    1.9350 C   0  0  2  0  0  0  0  0  0  0  0  0
   -0.1280    0.8890    2.5030 H   0  0  0  0  0  0  0  0  0  0  0  0
    1.9060    0.5970    2.7590 O   0  0  0  0  0  0  0  0  0  0  0  0
   -0.1030    2.3210   -2.1510 O   0  0  0  0  0  0  0  0  0  0  0  0
   -4.5680   -0.2650   -0.7340 O   0  0  0  0  0  0  0  0  0  0  0  0
   -4.8580   -1.5670   -0.2290 C   0  0  0  0  0  0  0  0  0  0  0  0
   -3.6730   -2.0990    0.3650 O   0  0  0  0  0  0  0  0  0  0  0  0
    3.1570   -3.2020   -1.5940 H   0  0  0  0  0  0  0  0  0  0  0  0
    4.0220   -2.4520   -2.9700 H   0  0  0  0  0  0  0  0  0  0  0  0
    4.8750   -2.7250   -1.4110 H   0  0  0  0  0  0  0  0  0  0  0  0
    3.4380    1.0970    0.8300 H   0  0  0  0  0  0  0  0  0  0  0  0
    3.6570    1.2880   -0.9020 H   0  0  0  0  0  0  0  0  0  0  0  0
    0.8660   -2.0020    1.6660 H   0  0  0  0  0  0  0  0  0  0  0  0
    3.0830   -2.6610    0.8680 H   0  0  0  0  0  0  0  0  0  0  0  0
   -0.9840   -2.0800    1.1080 H   0  0  0  0  0  0  0  0  0  0  0  0
   -2.9160    1.9300   -1.2930 H   0  0  0  0  0  0  0  0  0  0  0  0
    1.9910    2.8320    1.5970 H   0  0  0  0  0  0  0  0  0  0  0  0
    0.2530    3.0670    1.6030 H   0  0  0  0  0  0  0  0  0  0  0  0
    1.9030    1.2100    3.5010 H   0  0  0  0  0  0  0  0  0  0  0  0
   -0.7000    1.7070   -2.5990 H   0  0  0  0  0  0  0  0  0  0  0  0
   -5.6600   -1.4980    0.5380 H   0  0  0  0  0  0  0  0  0  0  0  0
   -5.1820   -2.2270   -1.0650 H   0  0  0  0  0  0  0  0  0  0  0  0
  1 29  1  0
  1 28  1  0
  1  2  1  0
  1 30  1  0
  2  3  1  0
  3  5  1  0
  3  4  1  1
  3 10  1  0
  5 32  1  0
  5  6  1  0
  5 31  1  0
  6  7  1  6
  6 19  1  0
  6  8  1  0
  8 11  1  0
  8  9  1  1
  8 21  1  0
  9 10  2  0
  9 33  1  0
 10 34  1  0
 11 16  2  0
 11 12  1  0
 12 13  2  0
 12 35  1  0
 13 14  1  0
 13 27  1  0
 14 15  2  0
 14 25  1  0
 15 36  1  0
 15 16  1  0
 16 17  1  0
 17 24  1  0
 17 18  1  1
 17 19  1  0
 19 20  1  0
 20 37  1  0
 20 38  1  0
 20 21  1  0
 21 22  1  1
 21 23  1  0
 23 39  1  0
 24 40  1  0
 25 26  1  0
 26 42  1  0
 26 27  1  0
 26 41  1  0
M  END
>  <id>  (535) 
639

>  <scaffolds>  (535) 
['c1ccccc1', 'C1=CC23CCN(Cc4cc5c(cc42)OCO5)C3CC1', 'C1=CCCCC1', 'C1CCNC1', 'C1=CC23CCN(Cc4ccccc42)C3CC1', 'c1ccc2c(c1)OCO2']

>  <name>  (535) 
Haemanthidine

>  <formula>  (535) 
C17H19NO5

>  <SMILES>  (535) 
CO[C@H]1C[C@H]2[C@]3(C=C1)c4cc5c(cc4[C@@H](N2C[C@@H]3O)O)OCO5

>  <ChEMBL_id>  (535) 


>  <ZINC_id>  (535) 


>  <PubChem_id>  (535) 


>  <DrugBank_id>  (535) 


>  <CAS_no>  (535) 
466-73-9

>  <references>  (535) 
[{'journal': {'name': 'Fitoterapia', 'id': 35}, 'title': 'Alkaloids from Cyrtanthus elatus', 'year': 2001, 'start_page': 444, 'volume': 72, 'issue': 4, 'doi': '10.1016/S0367-326X(00)00313-0', 'isbn': '', 'despositor': {'code': 'TMM', 'first_name': 'Thommas', 'last_name': 'Musyoka', 'id': 22}, 'refauthors_set': [{'author': {'first_name': '', 'initials': 'MR', 'last_name': 'Herrera ', 'id': 823}, 'first_author': True, 'id': 1310}, {'author': {'first_name': '', 'initials': 'AK', 'last_name': 'Machocho', 'id': 824}, 'first_author': None, 'id': 1311}, {'author': {'first_name': 'Jerald', 'initials': 'JJ', 'last_name': 'Nair', 'id': 620}, 'first_author': None, 'id': 1312}, {'author': {'first_name': 'William', 'initials': 'WE', 'last_name': 'Campbell', 'id': 621}, 'first_author': None, 'id': 1313}, {'author': {'first_name': '', 'initials': 'R', 'last_name': 'Brun', 'id': 825}, 'first_author': None, 'id': 1314}, {'author': {'first_name': 'Frances', 'initials': 'F', 'last_name': 'Viladomat', 'id': 808}, 'first_author': None, 'id': 1315}, {'author': {'first_name': 'Carles', 'initials': 'C', 'last_name': 'Codina', 'id': 809}, 'first_author': None, 'id': 1316}, {'author': {'first_name': 'Jaume', 'initials': 'J', 'last_name': 'Bastida', 'id': 810}, 'first_author': None, 'id': 1317}], 'id': 380}]

>  <classifications>  (535) 
[{'classification': 'Alkaloid', 'id': 738}, {'classification': 'Amaryllidaceae', 'id': 741}, {'classification': 'Amaryllidaceae alkaloids (Classyfire)', 'id': 971}]

>  <molecular_mass>  (535) 
317.34

$$$$
SANC00640_minRM1.pdb
     RDKit          3D

 41 45  0  0  1  0  0  0  0  0999 V2000
   -3.8540   -2.8570    1.1550 C   0  0  0  0  0  0  0  0  0  0  0  0
   -3.4320   -1.5260    1.2640 O   0  0  0  0  0  0  0  0  0  0  0  0
   -3.5330   -0.7800    0.0710 C   0  0  1  0  0  0  0  0  0  0  0  0
   -4.5960   -0.7720   -0.3010 H   0  0  0  0  0  0  0  0  0  0  0  0
   -3.1210    0.6500    0.4540 C   0  0  0  0  0  0  0  0  0  0  0  0
   -1.6180    0.6740    0.7020 C   0  0  1  0  0  0  0  0  0  0  0  0
   -1.3920   -0.0130    1.5610 H   0  0  0  0  0  0  0  0  0  0  0  0
   -0.8300    0.2790   -0.5690 C   0  0  2  0  0  0  0  0  0  0  0  0
   -1.4350   -0.8780   -1.2780 C   0  0  0  0  0  0  0  0  0  0  0  0
   -2.6430   -1.3520   -0.9940 C   0  0  0  0  0  0  0  0  0  0  0  0
    0.6020    0.0790   -0.1540 C   0  0  0  0  0  0  0  0  0  0  0  0
    1.3960   -0.8900   -0.7880 C   0  0  0  0  0  0  0  0  0  0  0  0
    2.6980   -0.9730   -0.3650 C   0  0  0  0  0  0  0  0  0  0  0  0
    3.2200   -0.1360    0.6380 C   0  0  0  0  0  0  0  0  0  0  0  0
    2.4580    0.8170    1.2630 C   0  0  0  0  0  0  0  0  0  0  0  0
    1.1210    0.9100    0.8400 C   0  0  0  0  0  0  0  0  0  0  0  0
    0.2580    1.9210    1.5430 C   0  0  0  0  0  0  0  0  0  0  0  0
   -1.1180    2.0650    0.9820 N   0  0  0  0  0  0  0  0  0  0  0  0
   -1.0560    2.7070   -0.3690 C   0  0  0  0  0  0  0  0  0  0  0  0
   -0.8370    1.5820   -1.4230 C   0  0  2  0  0  0  0  0  0  0  0  0
    0.1320    1.7110   -1.9730 H   0  0  0  0  0  0  0  0  0  0  0  0
   -1.9000    1.5020   -2.3210 O   0  0  0  0  0  0  0  0  0  0  0  0
    4.5390   -0.4420    0.8460 O   0  0  0  0  0  0  0  0  0  0  0  0
    4.8480   -1.5080   -0.0500 C   0  0  0  0  0  0  0  0  0  0  0  0
    3.6800   -1.8210   -0.8060 O   0  0  0  0  0  0  0  0  0  0  0  0
   -4.8720   -2.9710    0.7440 H   0  0  0  0  0  0  0  0  0  0  0  0
   -3.1680   -3.4820    0.5570 H   0  0  0  0  0  0  0  0  0  0  0  0
   -3.8520   -3.2320    2.1900 H   0  0  0  0  0  0  0  0  0  0  0  0
   -3.4400    1.3440   -0.3490 H   0  0  0  0  0  0  0  0  0  0  0  0
   -3.6670    0.9950    1.3570 H   0  0  0  0  0  0  0  0  0  0  0  0
   -0.8380   -1.3060   -2.0920 H   0  0  0  0  0  0  0  0  0  0  0  0
   -3.0560   -2.1960   -1.5550 H   0  0  0  0  0  0  0  0  0  0  0  0
    1.0070   -1.5450   -1.5710 H   0  0  0  0  0  0  0  0  0  0  0  0
    2.8660    1.4630    2.0430 H   0  0  0  0  0  0  0  0  0  0  0  0
    0.1480    1.6330    2.6160 H   0  0  0  0  0  0  0  0  0  0  0  0
    0.7610    2.9160    1.5720 H   0  0  0  0  0  0  0  0  0  0  0  0
   -2.0140    3.2520   -0.5200 H   0  0  0  0  0  0  0  0  0  0  0  0
   -0.2760    3.4950   -0.4410 H   0  0  0  0  0  0  0  0  0  0  0  0
   -1.8800    2.3030   -2.8540 H   0  0  0  0  0  0  0  0  0  0  0  0
    5.6610   -1.1890   -0.7390 H   0  0  0  0  0  0  0  0  0  0  0  0
    5.1660   -2.4010    0.5310 H   0  0  0  0  0  0  0  0  0  0  0  0
  1 27  1  0
  1 26  1  0
  1  2  1  0
  1 28  1  0
  2  3  1  0
  3 10  1  0
  3  4  1  6
  3  5  1  0
  5 29  1  0
  5  6  1  0
  5 30  1  0
  6  8  1  0
  6 18  1  0
  6  7  1  1
  8 20  1  0
  8  9  1  6
  8 11  1  0
  9 31  1  0
  9 10  2  0
 10 32  1  0
 11 12  2  0
 11 16  1  0
 12 33  1  0
 12 13  1  0
 13 25  1  0
 13 14  2  0
 14 23  1  0
 14 15  1  0
 15 16  2  0
 15 34  1  0
 16 17  1  0
 17 36  1  0
 17 35  1  0
 18 17  1  0
 18 19  1  0
 19 20  1  0
 19 37  1  0
 19 38  1  0
 20 22  1  0
 20 21  1  6
 22 39  1  0
 23 24  1  0
 24 25  1  0
 24 40  1  0
 24 41  1  0
M  END
>  <id>  (536) 
640

>  <scaffolds>  (536) 
['c1ccccc1', 'C1=CC23CCN(Cc4cc5c(cc42)OCO5)C3CC1', 'C1=CCCCC1', 'C1CCNC1', 'C1=CC23CCN(Cc4ccccc42)C3CC1', 'c1ccc2c(c1)OCO2']

>  <name>  (536) 
Haemanthamine

>  <formula>  (536) 
C17H19NO4

>  <SMILES>  (536) 
CO[C@H]1C[C@H]2[C@]3(C=C1)c4cc5c(cc4C[N@]2C[C@@H]3O)OCO5

>  <ChEMBL_id>  (536) 


>  <ZINC_id>  (536) 


>  <PubChem_id>  (536) 


>  <DrugBank_id>  (536) 


>  <CAS_no>  (536) 
466-75-1

>  <references>  (536) 
[{'journal': {'name': 'Fitoterapia', 'id': 35}, 'title': 'Alkaloids from Cyrtanthus elatus', 'year': 2001, 'start_page': 444, 'volume': 72, 'issue': 4, 'doi': '10.1016/S0367-326X(00)00313-0', 'isbn': '', 'despositor': {'code': 'TMM', 'first_name': 'Thommas', 'last_name': 'Musyoka', 'id': 22}, 'refauthors_set': [{'author': {'first_name': '', 'initials': 'MR', 'last_name': 'Herrera ', 'id': 823}, 'first_author': True, 'id': 1310}, {'author': {'first_name': '', 'initials': 'AK', 'last_name': 'Machocho', 'id': 824}, 'first_author': None, 'id': 1311}, {'author': {'first_name': 'Jerald', 'initials': 'JJ', 'last_name': 'Nair', 'id': 620}, 'first_author': None, 'id': 1312}, {'author': {'first_name': 'William', 'initials': 'WE', 'last_name': 'Campbell', 'id': 621}, 'first_author': None, 'id': 1313}, {'author': {'first_name': '', 'initials': 'R', 'last_name': 'Brun', 'id': 825}, 'first_author': None, 'id': 1314}, {'author': {'first_name': 'Frances', 'initials': 'F', 'last_name': 'Viladomat', 'id': 808}, 'first_author': None, 'id': 1315}, {'author': {'first_name': 'Carles', 'initials': 'C', 'last_name': 'Codina', 'id': 809}, 'first_author': None, 'id': 1316}, {'author': {'first_name': 'Jaume', 'initials': 'J', 'last_name': 'Bastida', 'id': 810}, 'first_author': None, 'id': 1317}], 'id': 380}]

>  <classifications>  (536) 
[{'classification': 'Alkaloid', 'id': 738}, {'classification': 'Amaryllidaceae', 'id': 741}, {'classification': 'Amaryllidaceae alkaloids (Classyfire)', 'id': 971}]

>  <molecular_mass>  (536) 
301.34

$$$$
SANC00641_minRM1.pdb
     RDKit          3D

 30 32  0  0  1  0  0  0  0  0999 V2000
    5.0530   -0.3050    0.2030 C   0  0  0  0  0  0  0  0  0  0  0  0
    4.2120   -1.1810   -0.4720 C   0  0  0  0  0  0  0  0  0  0  0  0
    2.9080   -0.8070   -0.7700 C   0  0  0  0  0  0  0  0  0  0  0  0
    2.4470    0.4520   -0.4000 C   0  0  0  0  0  0  0  0  0  0  0  0
    3.2870    1.3300    0.2790 C   0  0  0  0  0  0  0  0  0  0  0  0
    4.5890    0.9500    0.5780 C   0  0  0  0  0  0  0  0  0  0  0  0
    1.0460    0.8540   -0.7180 C   0  0  0  0  0  0  0  0  0  0  0  0
    0.1140    0.3710    0.3980 C   0  0  1  0  0  0  0  0  0  0  0  0
   -1.2990    0.8460    0.1850 C   0  0  0  0  0  0  0  0  0  0  0  0
   -1.8180    2.1110    0.1410 C   0  0  0  0  0  0  0  0  0  0  0  0
   -3.2020    2.2410   -0.0840 C   0  0  0  0  0  0  0  0  0  0  0  0
   -4.0190    1.1420   -0.2540 C   0  0  0  0  0  0  0  0  0  0  0  0
   -3.4630   -0.1560   -0.2050 C   0  0  0  0  0  0  0  0  0  0  0  0
   -2.1070   -0.2900    0.0120 C   0  0  0  0  0  0  0  0  0  0  0  0
   -1.2390   -1.4610    0.1150 C   0  0  0  0  0  0  0  0  0  0  0  0
   -1.4660   -2.6490    0.0360 O   0  0  0  0  0  0  0  0  0  0  0  0
    0.0520   -1.0540    0.3490 O   0  0  0  0  0  0  0  0  0  0  0  0
   -4.3210   -1.1760   -0.3810 O   0  0  0  0  0  0  0  0  0  0  0  0
    6.0780   -0.6040    0.4420 H   0  0  0  0  0  0  0  0  0  0  0  0
    4.5760   -2.1700   -0.7670 H   0  0  0  0  0  0  0  0  0  0  0  0
    2.2440   -1.5070   -1.2870 H   0  0  0  0  0  0  0  0  0  0  0  0
    2.9300    2.3180    0.5800 H   0  0  0  0  0  0  0  0  0  0  0  0
    5.2510    1.6420    1.1080 H   0  0  0  0  0  0  0  0  0  0  0  0
    0.9500    1.9550   -0.8280 H   0  0  0  0  0  0  0  0  0  0  0  0
    0.7250    0.4490   -1.7020 H   0  0  0  0  0  0  0  0  0  0  0  0
    0.5030    0.6460    1.4110 H   0  0  0  0  0  0  0  0  0  0  0  0
   -1.1910    2.9940    0.2760 H   0  0  0  0  0  0  0  0  0  0  0  0
   -3.6360    3.2460   -0.1270 H   0  0  0  0  0  0  0  0  0  0  0  0
   -5.0930    1.2610   -0.4260 H   0  0  0  0  0  0  0  0  0  0  0  0
   -3.8470   -2.0160   -0.3230 H   0  0  0  0  0  0  0  0  0  0  0  0
  1  2  2  0
  1 19  1  0
  1  6  1  0
  2  3  1  0
  2 20  1  0
  3 21  1  0
  3  4  2  0
  4  7  1  0
  4  5  1  0
  5  6  2  0
  5 22  1  0
  6 23  1  0
  7 25  1  0
  7 24  1  0
  7  8  1  0
  8  9  1  0
  8 17  1  0
  8 26  1  1
  9 14  2  0
  9 10  1  0
 10 11  2  0
 10 27  1  0
 11 12  1  0
 11 28  1  0
 12 29  1  0
 12 13  2  0
 13 18  1  0
 13 14  1  0
 14 15  1  0
 15 16  2  0
 15 17  1  0
 18 30  1  0
M  END
>  <id>  (537) 
641

>  <scaffolds>  (537) 
['c1ccccc1', 'c1ccc(CCc2ccccc2)cc1', 'O=C(OCCc1ccccc1)c1ccccc1']

>  <name>  (537) 
Typhaphthalide

>  <formula>  (537) 
C15H12O3

>  <SMILES>  (537) 
c1ccc(cc1)CC2c3cccc(c3C(=O)O2)O

>  <ChEMBL_id>  (537) 


>  <ZINC_id>  (537) 


>  <PubChem_id>  (537) 
 5322183

>  <DrugBank_id>  (537) 


>  <CAS_no>  (537) 
502612-12-6

>  <references>  (537) 
[{'journal': {'name': 'Phytochemistry', 'id': 10}, 'title': 'Typhaphthalide and typharin, two phenolic compounds from Typha capensis', 'year': 2002, 'start_page': 955, 'volume': 61, 'issue': 8, 'doi': '10.1016/S0031-9422(02)00439-9', 'isbn': '', 'despositor': {'code': 'TMM', 'first_name': 'Thommas', 'last_name': 'Musyoka', 'id': 22}, 'refauthors_set': [{'author': {'first_name': 'Francis', 'initials': 'O', 'last_name': 'Shode', 'id': 828}, 'first_author': True, 'id': 1325}, {'author': {'first_name': 'Abdul', 'initials': 'S', 'last_name': 'Mahomed', 'id': 829}, 'first_author': None, 'id': 1326}, {'author': {'first_name': '', 'initials': 'CB', 'last_name': 'Rogers', 'id': 804}, 'first_author': None, 'id': 1327}], 'id': 382}]

>  <classifications>  (537) 
[{'classification': 'Phenol', 'id': 805}, {'classification': 'Benzofurans (Classyfire)', 'id': 985}]

>  <molecular_mass>  (537) 
240.25

$$$$
SANC00642_minRM1.pdb
     RDKit          3D

 34 36  0  0  1  0  0  0  0  0999 V2000
   -6.4250    0.1340    0.3520 C   0  0  0  0  0  0  0  0  0  0  0  0
   -6.0490   -0.0480   -0.9740 C   0  0  0  0  0  0  0  0  0  0  0  0
   -4.7050   -0.1030   -1.3160 C   0  0  0  0  0  0  0  0  0  0  0  0
   -3.7230    0.0080   -0.3300 C   0  0  0  0  0  0  0  0  0  0  0  0
   -4.1070    0.1480    1.0030 C   0  0  0  0  0  0  0  0  0  0  0  0
   -5.4530    0.2100    1.3420 C   0  0  0  0  0  0  0  0  0  0  0  0
   -2.3170   -0.0230   -0.7160 C   0  0  0  0  0  0  0  0  0  0  0  0
   -1.3190   -0.0420    0.1700 C   0  0  0  0  0  0  0  0  0  0  0  0
    0.1190   -0.0260   -0.2600 C   0  0  1  0  0  0  0  0  0  0  0  0
    0.7990    1.2480    0.2620 C   0  0  0  0  0  0  0  0  0  0  0  0
    2.2730    1.1610    0.0780 C   0  0  0  0  0  0  0  0  0  0  0  0
    3.0630    2.2810   -0.0890 C   0  0  0  0  0  0  0  0  0  0  0  0
    4.4510    2.1340   -0.2200 C   0  0  0  0  0  0  0  0  0  0  0  0
    5.0510    0.8940   -0.1710 C   0  0  0  0  0  0  0  0  0  0  0  0
    4.2360   -0.2410    0.0110 C   0  0  0  0  0  0  0  0  0  0  0  0
    2.8500   -0.1070    0.1190 C   0  0  0  0  0  0  0  0  0  0  0  0
    2.0310   -1.2870    0.3190 C   0  0  0  0  0  0  0  0  0  0  0  0
    2.4920   -2.4120    0.5220 O   0  0  0  0  0  0  0  0  0  0  0  0
    0.6690   -1.2010    0.3250 O   0  0  0  0  0  0  0  0  0  0  0  0
    4.8760   -1.4300    0.0790 O   0  0  0  0  0  0  0  0  0  0  0  0
   -7.4830    0.2300    0.6140 H   0  0  0  0  0  0  0  0  0  0  0  0
   -6.8140   -0.1470   -1.7490 H   0  0  0  0  0  0  0  0  0  0  0  0
   -4.4240   -0.2280   -2.3670 H   0  0  0  0  0  0  0  0  0  0  0  0
   -3.3510    0.2020    1.7940 H   0  0  0  0  0  0  0  0  0  0  0  0
   -5.7480    0.2840    2.3930 H   0  0  0  0  0  0  0  0  0  0  0  0
   -2.1160   -0.0280   -1.7940 H   0  0  0  0  0  0  0  0  0  0  0  0
   -1.4910   -0.0720    1.2500 H   0  0  0  0  0  0  0  0  0  0  0  0
    0.2430   -0.1050   -1.3730 H   0  0  0  0  0  0  0  0  0  0  0  0
    0.3690    2.1270   -0.2610 H   0  0  0  0  0  0  0  0  0  0  0  0
    0.5780    1.4170    1.3380 H   0  0  0  0  0  0  0  0  0  0  0  0
    2.6190    3.2780   -0.1180 H   0  0  0  0  0  0  0  0  0  0  0  0
    5.0700    3.0290   -0.3540 H   0  0  0  0  0  0  0  0  0  0  0  0
    6.1340    0.7800   -0.2690 H   0  0  0  0  0  0  0  0  0  0  0  0
    4.2430   -2.1420    0.2920 H   0  0  0  0  0  0  0  0  0  0  0  0
  1  2  2  0
  1 21  1  0
  1  6  1  0
  2 22  1  0
  2  3  1  0
  3 23  1  0
  3  4  2  0
  4  7  1  0
  4  5  1  0
  5  6  2  0
  5 24  1  0
  6 25  1  0
  7 26  1  0
  7  8  2  0
  8  9  1  0
  8 27  1  0
  9 28  1  6
  9 10  1  0
  9 19  1  0
 10 29  1  0
 10 11  1  0
 10 30  1  0
 11 12  2  0
 11 16  1  0
 12 13  1  0
 12 31  1  0
 13 32  1  0
 13 14  2  0
 14 33  1  0
 14 15  1  0
 15 20  1  0
 15 16  2  0
 16 17  1  0
 17 19  1  0
 17 18  2  0
 20 34  1  0
M  END
>  <id>  (538) 
642

>  <scaffolds>  (538) 
['c1ccccc1', 'O=C1OC(C=Cc2ccccc2)Cc2ccccc21']

>  <name>  (538) 
Typharin

>  <formula>  (538) 
C17H14O3

>  <SMILES>  (538) 
c1ccc(cc1)/C=C/C2Cc3cccc(c3C(=O)O2)O

>  <ChEMBL_id>  (538) 


>  <ZINC_id>  (538) 


>  <PubChem_id>  (538) 
 5322184

>  <DrugBank_id>  (538) 


>  <CAS_no>  (538) 
502612-13-7

>  <references>  (538) 
[{'journal': {'name': 'Phytochemistry', 'id': 10}, 'title': 'Typhaphthalide and typharin, two phenolic compounds from Typha capensis', 'year': 2002, 'start_page': 955, 'volume': 61, 'issue': 8, 'doi': '10.1016/S0031-9422(02)00439-9', 'isbn': '', 'despositor': {'code': 'TMM', 'first_name': 'Thommas', 'last_name': 'Musyoka', 'id': 22}, 'refauthors_set': [{'author': {'first_name': 'Francis', 'initials': 'O', 'last_name': 'Shode', 'id': 828}, 'first_author': True, 'id': 1325}, {'author': {'first_name': 'Abdul', 'initials': 'S', 'last_name': 'Mahomed', 'id': 829}, 'first_author': None, 'id': 1326}, {'author': {'first_name': '', 'initials': 'CB', 'last_name': 'Rogers', 'id': 804}, 'first_author': None, 'id': 1327}], 'id': 382}]

>  <classifications>  (538) 
[{'classification': 'Isocoumarin', 'id': 789}, {'classification': 'Phenol', 'id': 805}, {'classification': 'Benzopyrans (Classyfire)', 'id': 966}]

>  <molecular_mass>  (538) 
266.29

$$$$
SANC00643_minRM1.pdb
     RDKit          3D

 34 36  0  0  1  0  0  0  0  0999 V2000
   -2.4470   -0.6480   -0.6740 C   0  0  0  0  0  0  0  0  0  0  0  0
   -3.7850   -0.9600   -0.8790 C   0  0  0  0  0  0  0  0  0  0  0  0
   -4.7340   -0.4890    0.0280 C   0  0  0  0  0  0  0  0  0  0  0  0
   -4.3720    0.3140    1.1130 C   0  0  0  0  0  0  0  0  0  0  0  0
   -3.0310    0.5990    1.3090 C   0  0  0  0  0  0  0  0  0  0  0  0
   -2.0690    0.1210    0.4210 C   0  0  0  0  0  0  0  0  0  0  0  0
   -0.6300    0.4730    0.6570 C   0  0  2  0  0  0  0  0  0  0  0  0
   -0.4500    0.7410    1.7340 H   0  0  0  0  0  0  0  0  0  0  0  0
   -0.1840    1.6520   -0.2370 C   0  0  1  0  0  0  0  0  0  0  0  0
   -0.8550    2.5390   -0.0710 H   0  0  0  0  0  0  0  0  0  0  0  0
    1.2670    1.9940    0.1420 C   0  0  0  0  0  0  0  0  0  0  0  0
    2.0830    0.7540    0.2060 C   0  0  0  0  0  0  0  0  0  0  0  0
    3.4800    0.7820    0.1720 C   0  0  0  0  0  0  0  0  0  0  0  0
    4.2510   -0.3810    0.1310 C   0  0  0  0  0  0  0  0  0  0  0  0
    3.5820   -1.6050    0.1360 C   0  0  0  0  0  0  0  0  0  0  0  0
    2.1930   -1.6970    0.2070 C   0  0  0  0  0  0  0  0  0  0  0  0
    1.4700   -0.5030    0.2570 C   0  0  0  0  0  0  0  0  0  0  0  0
    0.1250   -0.6810    0.3440 O   0  0  0  0  0  0  0  0  0  0  0  0
    4.2360   -2.7900    0.0780 O   0  0  0  0  0  0  0  0  0  0  0  0
    4.2120    1.9210    0.1590 O   0  0  0  0  0  0  0  0  0  0  0  0
   -0.2780    1.1820   -1.5450 O   0  0  0  0  0  0  0  0  0  0  0  0
   -6.0660   -0.7240   -0.1100 O   0  0  0  0  0  0  0  0  0  0  0  0
   -1.6940   -1.0170   -1.3790 H   0  0  0  0  0  0  0  0  0  0  0  0
   -4.0820   -1.5600   -1.7430 H   0  0  0  0  0  0  0  0  0  0  0  0
   -5.1350    0.7070    1.7900 H   0  0  0  0  0  0  0  0  0  0  0  0
   -2.7400    1.1940    2.1810 H   0  0  0  0  0  0  0  0  0  0  0  0
    1.6830    2.7180   -0.5940 H   0  0  0  0  0  0  0  0  0  0  0  0
    1.2880    2.5270    1.1160 H   0  0  0  0  0  0  0  0  0  0  0  0
    5.3410   -0.3200    0.0970 H   0  0  0  0  0  0  0  0  0  0  0  0
    1.6860   -2.6640    0.2150 H   0  0  0  0  0  0  0  0  0  0  0  0
    5.1790   -2.6290    0.0900 H   0  0  0  0  0  0  0  0  0  0  0  0
    3.6510    2.6800    0.3430 H   0  0  0  0  0  0  0  0  0  0  0  0
    0.0560    1.8680   -2.1300 H   0  0  0  0  0  0  0  0  0  0  0  0
   -6.1590   -1.6010   -0.5120 H   0  0  0  0  0  0  0  0  0  0  0  0
  1 23  1  0
  1  2  2  0
  1  6  1  0
  2 24  1  0
  2  3  1  0
  3 22  1  0
  3  4  2  0
  4  5  1  0
  4 25  1  0
  5  6  2  0
  5 26  1  0
  6  7  1  0
  7  9  1  0
  7 18  1  0
  7  8  1  1
  9 21  1  0
  9 10  1  6
  9 11  1  0
 11 27  1  0
 11 12  1  0
 11 28  1  0
 12 13  2  0
 12 17  1  0
 13 14  1  0
 13 20  1  0
 14 29  1  0
 14 15  2  0
 15 19  1  0
 15 16  1  0
 16 30  1  0
 16 17  2  0
 17 18  1  0
 19 31  1  0
 20 32  1  0
 21 33  1  0
 22 34  1  0
M  END
>  <id>  (539) 
643

>  <scaffolds>  (539) 
['c1ccccc1', 'c1ccc(C2CCc3ccccc3O2)cc1']

>  <name>  (539) 
Afzelechin

>  <formula>  (539) 
C15H14O5

>  <SMILES>  (539) 
c1cc(ccc1[C@@H]2[C@@H](Cc3c(cc(cc3O2)O)O)O)O

>  <ChEMBL_id>  (539) 
CHEMBL159303

>  <ZINC_id>  (539) 


>  <PubChem_id>  (539) 
 443639

>  <DrugBank_id>  (539) 


>  <CAS_no>  (539) 
2545-00-8

>  <references>  (539) 
[{'journal': {'name': 'Phytochemistry', 'id': 10}, 'title': 'Typhaphthalide and typharin, two phenolic compounds from Typha capensis', 'year': 2002, 'start_page': 955, 'volume': 61, 'issue': 8, 'doi': '10.1016/S0031-9422(02)00439-9', 'isbn': '', 'despositor': {'code': 'TMM', 'first_name': 'Thommas', 'last_name': 'Musyoka', 'id': 22}, 'refauthors_set': [{'author': {'first_name': 'Francis', 'initials': 'O', 'last_name': 'Shode', 'id': 828}, 'first_author': True, 'id': 1325}, {'author': {'first_name': 'Abdul', 'initials': 'S', 'last_name': 'Mahomed', 'id': 829}, 'first_author': None, 'id': 1326}, {'author': {'first_name': '', 'initials': 'CB', 'last_name': 'Rogers', 'id': 804}, 'first_author': None, 'id': 1327}], 'id': 382}]

>  <classifications>  (539) 
[{'classification': 'Flavonoids', 'id': 776}, {'classification': 'Flavonoids (Classyfire)', 'id': 941}]

>  <molecular_mass>  (539) 
274.27

$$$$
SANC00644_minRM1.pdb
     RDKit          3D

 61 66  0  0  1  0  0  0  0  0999 V2000
    1.4160    1.7430   -3.4780 C   0  0  0  0  0  0  0  0  0  0  0  0
    1.0570    1.4600   -2.0970 N   0  0  0  0  0  0  0  0  0  0  0  0
    2.0160    1.6460   -0.9920 C   0  0  1  0  0  0  0  0  0  0  0  0
    3.0170    1.2340   -1.2840 H   0  0  0  0  0  0  0  0  0  0  0  0
    2.1570    3.1340   -0.6480 C   0  0  0  0  0  0  0  0  0  0  0  0
    2.9860    3.3040    0.6290 C   0  0  1  0  0  0  0  0  0  0  0  0
    3.0060    4.3930    0.9160 H   0  0  0  0  0  0  0  0  0  0  0  0
    2.4040    2.4950    1.7480 C   0  0  0  0  0  0  0  0  0  0  0  0
    1.6610    1.4150    1.5370 C   0  0  0  0  0  0  0  0  0  0  0  0
    1.3560    0.8610    0.1850 C   0  0  2  0  0  0  0  0  0  0  0  0
    1.8390   -0.5580    0.1580 C   0  0  0  0  0  0  0  0  0  0  0  0
    3.2220   -0.7630    0.3470 C   0  0  0  0  0  0  0  0  0  0  0  0
    3.6530   -2.0580    0.2470 C   0  0  0  0  0  0  0  0  0  0  0  0
    2.7720   -3.1310    0.0070 C   0  0  0  0  0  0  0  0  0  0  0  0
    1.4250   -2.9500   -0.1250 C   0  0  0  0  0  0  0  0  0  0  0  0
    0.9690   -1.6170   -0.0450 C   0  0  0  0  0  0  0  0  0  0  0  0
   -0.5010   -1.4020   -0.2290 C   0  0  0  0  0  0  0  0  0  0  0  0
   -0.9450   -0.1320    0.4040 N   0  0  0  0  0  0  0  0  0  0  0  0
   -0.1610    1.0040   -0.1140 C   0  0  2  0  0  0  0  0  0  0  0  0
   -0.5420    1.9480    0.3630 H   0  0  0  0  0  0  0  0  0  0  0  0
   -0.2200    1.1730   -1.6400 C   0  0  0  0  0  0  0  0  0  0  0  0
   -1.2060    1.0600   -2.3540 O   0  0  0  0  0  0  0  0  0  0  0  0
   -2.4110    0.0780    0.1670 C   0  0  0  0  0  0  0  0  0  0  0  0
   -3.2070   -0.6150    1.2860 C   0  0  0  0  0  0  0  0  0  0  0  0
   -4.6570   -0.4260    0.9760 C   0  0  0  0  0  0  0  0  0  0  0  0
   -5.4050    0.5550    1.6230 C   0  0  0  0  0  0  0  0  0  0  0  0
   -6.7270    0.7810    1.2660 C   0  0  0  0  0  0  0  0  0  0  0  0
   -7.2870    0.0140    0.2400 C   0  0  0  0  0  0  0  0  0  0  0  0
   -6.5610   -0.9930   -0.3990 C   0  0  0  0  0  0  0  0  0  0  0  0
   -5.2450   -1.2090   -0.0140 C   0  0  0  0  0  0  0  0  0  0  0  0
   -8.5870    0.2780   -0.0530 O   0  0  0  0  0  0  0  0  0  0  0  0
    3.4820   -4.3000   -0.0600 O   0  0  0  0  0  0  0  0  0  0  0  0
    4.8520   -3.9410    0.1070 C   0  0  0  0  0  0  0  0  0  0  0  0
    4.9330   -2.5370    0.3420 O   0  0  0  0  0  0  0  0  0  0  0  0
    4.2760    2.8330    0.3060 O   0  0  0  0  0  0  0  0  0  0  0  0
    5.2580    3.1770    1.2380 C   0  0  0  0  0  0  0  0  0  0  0  0
    0.6050    1.4510   -4.1680 H   0  0  0  0  0  0  0  0  0  0  0  0
    1.6250    2.8150   -3.6510 H   0  0  0  0  0  0  0  0  0  0  0  0
    2.3230    1.1840   -3.7730 H   0  0  0  0  0  0  0  0  0  0  0  0
    2.6210    3.6870   -1.4910 H   0  0  0  0  0  0  0  0  0  0  0  0
    1.1660    3.6150   -0.5030 H   0  0  0  0  0  0  0  0  0  0  0  0
    2.6150    2.8480    2.7620 H   0  0  0  0  0  0  0  0  0  0  0  0
    1.2110    0.8550    2.3670 H   0  0  0  0  0  0  0  0  0  0  0  0
    3.9090    0.0610    0.5640 H   0  0  0  0  0  0  0  0  0  0  0  0
    0.7470   -3.7880   -0.2860 H   0  0  0  0  0  0  0  0  0  0  0  0
   -0.7290   -1.4800   -1.3240 H   0  0  0  0  0  0  0  0  0  0  0  0
   -1.0760   -2.2300    0.2470 H   0  0  0  0  0  0  0  0  0  0  0  0
   -2.6640    1.1640    0.1660 H   0  0  0  0  0  0  0  0  0  0  0  0
   -2.7620   -0.2790   -0.8320 H   0  0  0  0  0  0  0  0  0  0  0  0
   -2.9660   -1.6950    1.3670 H   0  0  0  0  0  0  0  0  0  0  0  0
   -2.9330   -0.2020    2.2800 H   0  0  0  0  0  0  0  0  0  0  0  0
   -4.9530    1.1640    2.4120 H   0  0  0  0  0  0  0  0  0  0  0  0
   -7.3250    1.5470    1.7690 H   0  0  0  0  0  0  0  0  0  0  0  0
   -7.0080   -1.6010   -1.1930 H   0  0  0  0  0  0  0  0  0  0  0  0
   -4.6690   -2.0040   -0.4960 H   0  0  0  0  0  0  0  0  0  0  0  0
   -8.7390    0.0250   -0.9850 H   0  0  0  0  0  0  0  0  0  0  0  0
    5.2730   -4.4900    0.9760 H   0  0  0  0  0  0  0  0  0  0  0  0
    5.4120   -4.1950   -0.8180 H   0  0  0  0  0  0  0  0  0  0  0  0
    5.3970    4.2660    1.3430 H   0  0  0  0  0  0  0  0  0  0  0  0
    5.0790    2.7530    2.2400 H   0  0  0  0  0  0  0  0  0  0  0  0
    6.1840    2.7410    0.8300 H   0  0  0  0  0  0  0  0  0  0  0  0
  1 37  1  0
  1 39  1  0
  1 38  1  0
  1  2  1  0
  2 21  1  0
  2  3  1  0
  3  4  1  6
  3  5  1  0
  3 10  1  0
  5 40  1  0
  5 41  1  0
  5  6  1  0
  6 35  1  0
  6  7  1  1
  6  8  1  0
  8  9  2  0
  8 42  1  0
  9 43  1  0
 10  9  1  1
 10 19  1  0
 10 11  1  0
 11 16  2  0
 11 12  1  0
 12 13  2  0
 12 44  1  0
 13 14  1  0
 13 34  1  0
 14 15  2  0
 14 32  1  0
 15 45  1  0
 15 16  1  0
 16 17  1  0
 17 46  1  0
 17 47  1  0
 17 18  1  0
 18 19  1  0
 18 23  1  0
 19 21  1  0
 19 20  1  1
 21 22  2  0
 23 49  1  0
 23 48  1  0
 23 24  1  0
 24 25  1  0
 24 50  1  0
 24 51  1  0
 25 30  2  0
 25 26  1  0
 26 27  2  0
 26 52  1  0
 27 28  1  0
 27 53  1  0
 28 29  2  0
 28 31  1  0
 29 54  1  0
 29 30  1  0
 30 55  1  0
 31 56  1  0
 32 33  1  0
 33 58  1  0
 33 34  1  0
 33 57  1  0
 35 36  1  0
 36 61  1  0
 36 59  1  0
 36 60  1  0
M  END
>  <id>  (540) 
644

>  <scaffolds>  (540) 
['c1ccccc1', 'C1=CCCCC1', 'C1CCNC1', 'c1ccc(CCNCc2ccccc2)cc1', 'c1ccc2c(c1)OCO2', 'O=C1NC2CCC=CC23c2cc4c(cc2CN(CCc2ccccc2)C13)OCO4']

>  <name>  (540) 
Obliquine

>  <formula>  (540) 
C26H28N2O5

>  <SMILES>  (540) 
CN1[C@H]2C[C@@H](C=C[C@]23c4cc5c(cc4CN([C@@H]3C1=O)CCc6ccc(cc6)O)OCO5)OC

>  <ChEMBL_id>  (540) 


>  <ZINC_id>  (540) 


>  <PubChem_id>  (540) 
 443685

>  <DrugBank_id>  (540) 


>  <CAS_no>  (540) 
489433-06-9

>  <references>  (540) 
[{'journal': {'name': 'Phytochemistry', 'id': 10}, 'title': 'A dinitrogenous alkaloid from Cyrtanthus obliquus', 'year': 2002, 'start_page': 443, 'volume': 61, 'issue': 4, 'doi': '10.1016/S0031-9422(02)00206-6', 'isbn': '', 'despositor': {'code': 'TMM', 'first_name': 'Thommas', 'last_name': 'Musyoka', 'id': 22}, 'refauthors_set': [{'author': {'first_name': 'Natalie', 'initials': 'D', 'last_name': 'Brine', 'id': 830}, 'first_author': True, 'id': 1328}, {'author': {'first_name': 'William', 'initials': 'WE', 'last_name': 'Campbell', 'id': 621}, 'first_author': None, 'id': 1329}, {'author': {'first_name': 'Jaume', 'initials': 'J', 'last_name': 'Bastida', 'id': 810}, 'first_author': None, 'id': 1330}, {'author': {'first_name': '', 'initials': 'MR', 'last_name': 'Herrera ', 'id': 823}, 'first_author': None, 'id': 1331}, {'author': {'first_name': 'Frances', 'initials': 'F', 'last_name': 'Viladomat', 'id': 808}, 'first_author': None, 'id': 1332}, {'author': {'first_name': 'Carles', 'initials': 'C', 'last_name': 'Codina', 'id': 809}, 'first_author': None, 'id': 1333}, {'author': {'first_name': 'Peter', 'initials': 'PJ', 'last_name': 'Smith', 'id': 490}, 'first_author': None, 'id': 1334}], 'id': 383}]

>  <classifications>  (540) 
[{'classification': 'Alkaloid', 'id': 738}, {'classification': 'Isoquinoline', 'id': 790}, {'classification': 'Tetrahydroisoquinolines (Classyfire)', 'id': 973}]

>  <molecular_mass>  (540) 
448.51

$$$$
SANC00645_minRM1.pdb
     RDKit          3D

 26 29  0  0  0  0  0  0  0  0999 V2000
   -3.4200   -1.9160    0.0040 C   0  0  0  0  0  0  0  0  0  0  0  0
   -4.3160   -0.8320    0.0310 C   0  0  0  0  0  0  0  0  0  0  0  0
   -3.8510    0.4590    0.0400 C   0  0  0  0  0  0  0  0  0  0  0  0
   -2.4550    0.6970    0.0160 C   0  0  0  0  0  0  0  0  0  0  0  0
   -1.5580   -0.3830   -0.0230 C   0  0  0  0  0  0  0  0  0  0  0  0
   -2.0650   -1.6970   -0.0180 C   0  0  0  0  0  0  0  0  0  0  0  0
   -0.1490   -0.1020   -0.0630 C   0  0  0  0  0  0  0  0  0  0  0  0
    0.8000   -1.1620   -0.0750 C   0  0  0  0  0  0  0  0  0  0  0  0
    2.1050   -0.7900   -0.0130 C   0  0  0  0  0  0  0  0  0  0  0  0
    2.5170    0.5700   -0.0060 C   0  0  0  0  0  0  0  0  0  0  0  0
    1.6360    1.6030   -0.0560 C   0  0  0  0  0  0  0  0  0  0  0  0
    0.2650    1.2350   -0.0560 C   0  0  0  0  0  0  0  0  0  0  0  0
   -0.7480    2.2600   -0.0050 C   0  0  0  0  0  0  0  0  0  0  0  0
   -2.0380    2.0350    0.0340 N   0  0  0  0  0  0  0  0  0  0  0  0
    3.8840    0.6250    0.0790 O   0  0  0  0  0  0  0  0  0  0  0  0
    4.3190   -0.7140    0.3080 C   0  0  0  0  0  0  0  0  0  0  0  0
    3.2140   -1.5860    0.0730 O   0  0  0  0  0  0  0  0  0  0  0  0
   -3.8130   -2.9360    0.0060 H   0  0  0  0  0  0  0  0  0  0  0  0
   -5.3920   -1.0310    0.0550 H   0  0  0  0  0  0  0  0  0  0  0  0
   -4.5420    1.3080    0.0690 H   0  0  0  0  0  0  0  0  0  0  0  0
   -1.3680   -2.5430   -0.0450 H   0  0  0  0  0  0  0  0  0  0  0  0
    0.4850   -2.2080   -0.1200 H   0  0  0  0  0  0  0  0  0  0  0  0
    1.9530    2.6470   -0.0810 H   0  0  0  0  0  0  0  0  0  0  0  0
   -0.4480    3.3190    0.0170 H   0  0  0  0  0  0  0  0  0  0  0  0
    5.1410   -0.9620   -0.3940 H   0  0  0  0  0  0  0  0  0  0  0  0
    4.6650   -0.8230    1.3630 H   0  0  0  0  0  0  0  0  0  0  0  0
  1  6  2  0
  1 18  1  0
  1  2  1  0
  2  3  2  0
  2 19  1  0
  3  4  1  0
  3 20  1  0
  4  5  2  0
  4 14  1  0
  5  7  1  0
  5  6  1  0
  6 21  1  0
  7  8  2  0
  7 12  1  0
  8 22  1  0
  8  9  1  0
  9 10  2  0
  9 17  1  0
 10 11  1  0
 10 15  1  0
 11 23  1  0
 11 12  2  0
 12 13  1  0
 13 24  1  0
 13 14  2  0
 15 16  1  0
 16 25  1  0
 16 17  1  0
 16 26  1  0
M  END
>  <id>  (541) 
645

>  <scaffolds>  (541) 
['c1ccccc1', 'c1ccc2c(c1)ncc1cc3c(cc12)OCO3', 'c1ccc2c(c1)OCO2']

>  <name>  (541) 
Trisphaeridine

>  <formula>  (541) 
C14H9NO2

>  <SMILES>  (541) 
c1ccc2c(c1)c3cc4c(cc3cn2)OCO4

>  <ChEMBL_id>  (541) 
CHEMBL511443

>  <ZINC_id>  (541) 


>  <PubChem_id>  (541) 
 443684

>  <DrugBank_id>  (541) 


>  <CAS_no>  (541) 
224-11-3

>  <references>  (541) 
[{'journal': {'name': 'Phytochemistry', 'id': 10}, 'title': 'A dinitrogenous alkaloid from Cyrtanthus obliquus', 'year': 2002, 'start_page': 443, 'volume': 61, 'issue': 4, 'doi': '10.1016/S0031-9422(02)00206-6', 'isbn': '', 'despositor': {'code': 'TMM', 'first_name': 'Thommas', 'last_name': 'Musyoka', 'id': 22}, 'refauthors_set': [{'author': {'first_name': 'Natalie', 'initials': 'D', 'last_name': 'Brine', 'id': 830}, 'first_author': True, 'id': 1328}, {'author': {'first_name': 'William', 'initials': 'WE', 'last_name': 'Campbell', 'id': 621}, 'first_author': None, 'id': 1329}, {'author': {'first_name': 'Jaume', 'initials': 'J', 'last_name': 'Bastida', 'id': 810}, 'first_author': None, 'id': 1330}, {'author': {'first_name': '', 'initials': 'MR', 'last_name': 'Herrera ', 'id': 823}, 'first_author': None, 'id': 1331}, {'author': {'first_name': 'Frances', 'initials': 'F', 'last_name': 'Viladomat', 'id': 808}, 'first_author': None, 'id': 1332}, {'author': {'first_name': 'Carles', 'initials': 'C', 'last_name': 'Codina', 'id': 809}, 'first_author': None, 'id': 1333}, {'author': {'first_name': 'Peter', 'initials': 'PJ', 'last_name': 'Smith', 'id': 490}, 'first_author': None, 'id': 1334}], 'id': 383}]

>  <classifications>  (541) 
[{'classification': 'Alkaloid', 'id': 738}, {'classification': 'Phenanthridine', 'id': 804}, {'classification': 'Quinolines and derivatives (Classyfire)', 'id': 948}]

>  <molecular_mass>  (541) 
223.23

$$$$
SANC00646_minRM1.pdb
     RDKit          3D

 43 47  0  0  1  0  0  0  0  0999 V2000
    3.0300    1.1250   -2.8480 C   0  0  0  0  0  0  0  0  0  0  0  0
    2.6700    0.9570   -1.4220 N   0  0  0  0  0  0  0  0  0  0  0  0
    2.1600    2.2320   -0.8120 C   0  0  0  0  0  0  0  0  0  0  0  0
    0.6690    1.9700   -0.5720 C   0  0  1  0  0  0  0  0  0  0  0  0
    0.0850    2.1400   -1.5170 H   0  0  0  0  0  0  0  0  0  0  0  0
    0.6670    0.4720   -0.1660 C   0  0  1  0  0  0  0  0  0  0  0  0
    1.6040   -0.1030   -1.2420 C   0  0  2  0  0  0  0  0  0  0  0  0
    1.0130   -0.2990   -2.1800 H   0  0  0  0  0  0  0  0  0  0  0  0
    2.2840   -1.4010   -0.8090 C   0  0  0  0  0  0  0  0  0  0  0  0
    3.0900   -1.1670    0.4730 C   0  0  1  0  0  0  0  0  0  0  0  0
    3.9880   -0.5210    0.2600 H   0  0  0  0  0  0  0  0  0  0  0  0
    2.2510   -0.4880    1.5110 C   0  0  0  0  0  0  0  0  0  0  0  0
    1.1960    0.2650    1.2170 C   0  0  0  0  0  0  0  0  0  0  0  0
    3.4500   -2.4580    0.9170 O   0  0  0  0  0  0  0  0  0  0  0  0
    4.6010   -2.4940    1.7140 C   0  0  0  0  0  0  0  0  0  0  0  0
   -0.7730    0.0790   -0.1480 C   0  0  0  0  0  0  0  0  0  0  0  0
   -1.2350   -1.1540   -0.6140 C   0  0  0  0  0  0  0  0  0  0  0  0
   -2.5920   -1.3550   -0.4960 C   0  0  0  0  0  0  0  0  0  0  0  0
   -3.4580   -0.3930    0.0580 C   0  0  0  0  0  0  0  0  0  0  0  0
   -3.0140    0.8200    0.5250 C   0  0  0  0  0  0  0  0  0  0  0  0
   -1.6340    1.0370    0.4020 C   0  0  0  0  0  0  0  0  0  0  0  0
   -1.0950    2.3240    0.8890 C   0  0  0  0  0  0  0  0  0  0  0  0
   -1.6340    3.0630    1.6900 O   0  0  0  0  0  0  0  0  0  0  0  0
    0.1230    2.7730    0.4390 O   0  0  0  0  0  0  0  0  0  0  0  0
   -4.7420   -0.8740    0.0420 O   0  0  0  0  0  0  0  0  0  0  0  0
   -4.6740   -2.1790   -0.5290 C   0  0  0  0  0  0  0  0  0  0  0  0
   -3.3130   -2.4540   -0.8660 O   0  0  0  0  0  0  0  0  0  0  0  0
    2.2300    1.4930   -3.5190 H   0  0  0  0  0  0  0  0  0  0  0  0
    3.8730    1.8330   -2.9310 H   0  0  0  0  0  0  0  0  0  0  0  0
    3.3800    0.1620   -3.2590 H   0  0  0  0  0  0  0  0  0  0  0  0
    2.7150    2.4020    0.1370 H   0  0  0  0  0  0  0  0  0  0  0  0
    2.3390    3.1420   -1.4250 H   0  0  0  0  0  0  0  0  0  0  0  0
    1.5250   -2.1980   -0.6580 H   0  0  0  0  0  0  0  0  0  0  0  0
    2.9450   -1.7870   -1.6130 H   0  0  0  0  0  0  0  0  0  0  0  0
    2.5600   -0.6240    2.5530 H   0  0  0  0  0  0  0  0  0  0  0  0
    0.6420    0.7650    2.0200 H   0  0  0  0  0  0  0  0  0  0  0  0
    4.7090   -3.5540    1.9920 H   0  0  0  0  0  0  0  0  0  0  0  0
    5.5110   -2.1760    1.1780 H   0  0  0  0  0  0  0  0  0  0  0  0
    4.5230   -1.8990    2.6380 H   0  0  0  0  0  0  0  0  0  0  0  0
   -0.5760   -1.9140   -1.0360 H   0  0  0  0  0  0  0  0  0  0  0  0
   -3.6860    1.5640    0.9650 H   0  0  0  0  0  0  0  0  0  0  0  0
   -5.0310   -2.9290    0.2090 H   0  0  0  0  0  0  0  0  0  0  0  0
   -5.2960   -2.2150   -1.4500 H   0  0  0  0  0  0  0  0  0  0  0  0
  1 28  1  0
  1 30  1  0
  1 29  1  0
  1  2  1  0
  2  7  1  0
  2  3  1  0
  3 32  1  0
  3  4  1  0
  3 31  1  0
  4  5  1  6
  4  6  1  0
  4 24  1  0
  6  7  1  0
  6 16  1  0
  6 13  1  1
  7  8  1  6
  7  9  1  0
  9 34  1  0
  9 33  1  0
  9 10  1  0
 10 11  1  6
 10 14  1  0
 10 12  1  0
 12 13  2  0
 12 35  1  0
 13 36  1  0
 14 15  1  0
 15 38  1  0
 15 37  1  0
 15 39  1  0
 16 17  2  0
 16 21  1  0
 17 40  1  0
 17 18  1  0
 18 27  1  0
 18 19  2  0
 19 25  1  0
 19 20  1  0
 20 21  2  0
 20 41  1  0
 21 22  1  0
 22 24  1  0
 22 23  2  0
 25 26  1  0
 26 43  1  0
 26 27  1  0
 26 42  1  0
M  END
>  <id>  (542) 
646

>  <scaffolds>  (542) 
['c1ccccc1', 'C1=CCCCC1', 'C1=CC23c4cc5c(cc4COC2CNC3CC1)OCO5', 'O=C1OC2CNC3CCC=CC32c2cc3c(cc21)OCO3', 'C1CCNC1', 'c1ccc2c(c1)OCO2']

>  <name>  (542) 
3-Epimacronine

>  <formula>  (542) 
C18H19NO5

>  <SMILES>  (542) 
CN1C[C@H]2[C@]3([C@@H]1C[C@@H](C=C3)OC)c4cc5c(cc4C(=O)O2)OCO5

>  <ChEMBL_id>  (542) 
CHEMBL1976572

>  <ZINC_id>  (542) 


>  <PubChem_id>  (542) 
 375117

>  <DrugBank_id>  (542) 


>  <CAS_no>  (542) 
17322-73-5

>  <references>  (542) 
[{'journal': {'name': 'Phytochemistry', 'id': 10}, 'title': 'A dinitrogenous alkaloid from Cyrtanthus obliquus', 'year': 2002, 'start_page': 443, 'volume': 61, 'issue': 4, 'doi': '10.1016/S0031-9422(02)00206-6', 'isbn': '', 'despositor': {'code': 'TMM', 'first_name': 'Thommas', 'last_name': 'Musyoka', 'id': 22}, 'refauthors_set': [{'author': {'first_name': 'Natalie', 'initials': 'D', 'last_name': 'Brine', 'id': 830}, 'first_author': True, 'id': 1328}, {'author': {'first_name': 'William', 'initials': 'WE', 'last_name': 'Campbell', 'id': 621}, 'first_author': None, 'id': 1329}, {'author': {'first_name': 'Jaume', 'initials': 'J', 'last_name': 'Bastida', 'id': 810}, 'first_author': None, 'id': 1330}, {'author': {'first_name': '', 'initials': 'MR', 'last_name': 'Herrera ', 'id': 823}, 'first_author': None, 'id': 1331}, {'author': {'first_name': 'Frances', 'initials': 'F', 'last_name': 'Viladomat', 'id': 808}, 'first_author': None, 'id': 1332}, {'author': {'first_name': 'Carles', 'initials': 'C', 'last_name': 'Codina', 'id': 809}, 'first_author': None, 'id': 1333}, {'author': {'first_name': 'Peter', 'initials': 'PJ', 'last_name': 'Smith', 'id': 490}, 'first_author': None, 'id': 1334}], 'id': 383}]

>  <classifications>  (542) 
[{'classification': 'Alkaloid', 'id': 738}, {'classification': 'Amaryllidaceae', 'id': 741}, {'classification': 'Amaryllidaceae alkaloids (Classyfire)', 'id': 971}]

>  <molecular_mass>  (542) 
329.35

$$$$
SANC00647_minRM1.pdb
     RDKit          3D

 47 50  0  0  1  0  0  0  0  0999 V2000
   -5.4620    1.5400   -0.0450 C   0  0  0  0  0  0  0  0  0  0  0  0
   -4.8420    0.2890   -0.1960 O   0  0  0  0  0  0  0  0  0  0  0  0
   -3.4790    0.2820   -0.2380 C   0  0  0  0  0  0  0  0  0  0  0  0
   -2.6600    1.3970   -0.3560 C   0  0  0  0  0  0  0  0  0  0  0  0
   -1.2810    1.2140   -0.4060 C   0  0  0  0  0  0  0  0  0  0  0  0
   -0.7210   -0.0610   -0.3430 C   0  0  0  0  0  0  0  0  0  0  0  0
   -1.5360   -1.1830   -0.2370 C   0  0  0  0  0  0  0  0  0  0  0  0
   -2.9130   -1.0090   -0.1800 C   0  0  0  0  0  0  0  0  0  0  0  0
   -3.8270   -2.0220   -0.1310 O   0  0  0  0  0  0  0  0  0  0  0  0
   -3.3910   -3.2110    0.4820 C   0  0  0  0  0  0  0  0  0  0  0  0
    0.7690   -0.1090   -0.4070 C   0  0  2  0  0  0  0  0  0  0  0  0
    1.0630    0.1850   -1.4520 H   0  0  0  0  0  0  0  0  0  0  0  0
    1.4310   -1.4630   -0.1100 C   0  0  1  0  0  0  0  0  0  0  0  0
    1.0720   -2.2350   -0.8480 H   0  0  0  0  0  0  0  0  0  0  0  0
    2.9790   -1.3560   -0.2430 C   0  0  2  0  0  0  0  0  0  0  0  0
    3.4420   -2.3310    0.0780 H   0  0  0  0  0  0  0  0  0  0  0  0
    3.5870   -0.1990    0.6010 C   0  0  1  0  0  0  0  0  0  0  0  0
    4.6520   -0.0150    0.2920 H   0  0  0  0  0  0  0  0  0  0  0  0
    2.7730    1.0300    0.4410 C   0  0  0  0  0  0  0  0  0  0  0  0
    3.1420    2.2650    0.1050 C   0  0  0  0  0  0  0  0  0  0  0  0
    1.9380    3.1630    0.0110 C   0  0  0  0  0  0  0  0  0  0  0  0
    0.7580    2.3160    0.4080 N   0  0  0  0  0  0  0  0  0  0  0  0
    1.2850    0.9260    0.6050 C   0  0  1  0  0  0  0  0  0  0  0  0
    0.9900    0.6380    1.6490 H   0  0  0  0  0  0  0  0  0  0  0  0
   -0.3670    2.3910   -0.5640 C   0  0  0  0  0  0  0  0  0  0  0  0
    3.6130   -0.6650    1.9220 O   0  0  0  0  0  0  0  0  0  0  0  0
    3.2130   -1.0700   -1.5990 O   0  0  0  0  0  0  0  0  0  0  0  0
    4.3820   -1.6450   -2.1200 C   0  0  0  0  0  0  0  0  0  0  0  0
    1.0200   -1.8680    1.1610 O   0  0  0  0  0  0  0  0  0  0  0  0
   -5.1350    2.0920    0.8510 H   0  0  0  0  0  0  0  0  0  0  0  0
   -5.3490    2.1880   -0.9290 H   0  0  0  0  0  0  0  0  0  0  0  0
   -6.5270    1.2850    0.0670 H   0  0  0  0  0  0  0  0  0  0  0  0
   -3.0690    2.4090   -0.4050 H   0  0  0  0  0  0  0  0  0  0  0  0
   -1.1030   -2.1840   -0.1890 H   0  0  0  0  0  0  0  0  0  0  0  0
   -4.3240   -3.7620    0.6750 H   0  0  0  0  0  0  0  0  0  0  0  0
   -2.7590   -3.8200   -0.1860 H   0  0  0  0  0  0  0  0  0  0  0  0
   -2.8590   -3.0610    1.4350 H   0  0  0  0  0  0  0  0  0  0  0  0
    4.1420    2.6380   -0.0930 H   0  0  0  0  0  0  0  0  0  0  0  0
    1.9970    4.0060    0.7350 H   0  0  0  0  0  0  0  0  0  0  0  0
    1.8760    3.6400   -0.9940 H   0  0  0  0  0  0  0  0  0  0  0  0
   -0.0620    2.4460   -1.6410 H   0  0  0  0  0  0  0  0  0  0  0  0
   -0.8800    3.3590   -0.3610 H   0  0  0  0  0  0  0  0  0  0  0  0
    3.2810    0.0220    2.5070 H   0  0  0  0  0  0  0  0  0  0  0  0
    5.3010   -1.3490   -1.5880 H   0  0  0  0  0  0  0  0  0  0  0  0
    4.3420   -2.7470   -2.1530 H   0  0  0  0  0  0  0  0  0  0  0  0
    4.4340   -1.2630   -3.1510 H   0  0  0  0  0  0  0  0  0  0  0  0
    1.7660   -2.2210    1.6540 H   0  0  0  0  0  0  0  0  0  0  0  0
  1 31  1  0
  1  2  1  0
  1 32  1  0
  1 30  1  0
  2  3  1  0
  3  4  2  0
  3  8  1  0
  4  5  1  0
  4 33  1  0
  5 25  1  0
  5  6  2  0
  6 11  1  0
  6  7  1  0
  7 34  1  0
  7  8  2  0
  8  9  1  0
  9 10  1  0
 10 36  1  0
 10 35  1  0
 10 37  1  0
 11 12  1  6
 11 13  1  0
 11 23  1  0
 13 14  1  6
 13 15  1  0
 13 29  1  0
 15 27  1  0
 15 16  1  1
 15 17  1  0
 17 18  1  6
 17 19  1  0
 17 26  1  0
 19 20  2  0
 19 23  1  0
 20 38  1  0
 20 21  1  0
 21 40  1  0
 21 39  1  0
 22 21  1  0
 22 25  1  0
 22 23  1  0
 23 24  1  1
 25 41  1  0
 25 42  1  0
 26 43  1  0
 27 28  1  0
 28 46  1  0
 28 45  1  0
 28 44  1  0
 29 47  1  0
M  END
>  <id>  (543) 
647

>  <scaffolds>  (543) 
['c1ccccc1', 'C1CCCCC1', 'C1=C2CCCC3c4ccccc4CN(C1)C23']

>  <name>  (543) 
Narcissidine

>  <formula>  (543) 
C18H23NO5

>  <SMILES>  (543) 
COc1cc2c(cc1OC)[C@@H]3[C@@H]([C@H]([C@@H](C4=CCN([C@@H]34)C2)O)OC)O

>  <ChEMBL_id>  (543) 


>  <ZINC_id>  (543) 


>  <PubChem_id>  (543) 
 443686

>  <DrugBank_id>  (543) 


>  <CAS_no>  (543) 
27857-07-4

>  <references>  (543) 
[{'journal': {'name': 'Phytochemistry', 'id': 10}, 'title': 'A dinitrogenous alkaloid from Cyrtanthus obliquus', 'year': 2002, 'start_page': 443, 'volume': 61, 'issue': 4, 'doi': '10.1016/S0031-9422(02)00206-6', 'isbn': '', 'despositor': {'code': 'TMM', 'first_name': 'Thommas', 'last_name': 'Musyoka', 'id': 22}, 'refauthors_set': [{'author': {'first_name': 'Natalie', 'initials': 'D', 'last_name': 'Brine', 'id': 830}, 'first_author': True, 'id': 1328}, {'author': {'first_name': 'William', 'initials': 'WE', 'last_name': 'Campbell', 'id': 621}, 'first_author': None, 'id': 1329}, {'author': {'first_name': 'Jaume', 'initials': 'J', 'last_name': 'Bastida', 'id': 810}, 'first_author': None, 'id': 1330}, {'author': {'first_name': '', 'initials': 'MR', 'last_name': 'Herrera ', 'id': 823}, 'first_author': None, 'id': 1331}, {'author': {'first_name': 'Frances', 'initials': 'F', 'last_name': 'Viladomat', 'id': 808}, 'first_author': None, 'id': 1332}, {'author': {'first_name': 'Carles', 'initials': 'C', 'last_name': 'Codina', 'id': 809}, 'first_author': None, 'id': 1333}, {'author': {'first_name': 'Peter', 'initials': 'PJ', 'last_name': 'Smith', 'id': 490}, 'first_author': None, 'id': 1334}], 'id': 383}]

>  <classifications>  (543) 
[{'classification': 'Alkaloid', 'id': 738}, {'classification': 'Amaryllidaceae', 'id': 741}, {'classification': 'Quinolines and derivatives (Classyfire)', 'id': 948}]

>  <molecular_mass>  (543) 
333.38

$$$$
SANC00648_minRM1.pdb
     RDKit          3D

 38 40  0  0  1  0  0  0  0  0999 V2000
   -4.6840    0.2740   -0.0150 C   0  0  0  0  0  0  0  0  0  0  0  0
   -3.2070    0.3890   -0.3720 C   0  0  1  0  0  0  0  0  0  0  0  0
   -3.1410    0.5920   -1.4750 H   0  0  0  0  0  0  0  0  0  0  0  0
   -2.5810    1.5550    0.3990 C   0  0  0  0  0  0  0  0  0  0  0  0
   -1.1310    1.7420   -0.0250 C   0  0  0  0  0  0  0  0  0  0  0  0
   -0.3170    0.4680    0.2140 C   0  0  1  0  0  0  0  0  0  0  0  0
   -0.9700   -0.7260   -0.5170 C   0  0  2  0  0  0  0  0  0  0  0  0
   -0.9780   -0.5170   -1.6210 H   0  0  0  0  0  0  0  0  0  0  0  0
   -2.4060   -0.8470   -0.0820 C   0  0  0  0  0  0  0  0  0  0  0  0
   -2.9100   -1.9340    0.4900 C   0  0  0  0  0  0  0  0  0  0  0  0
   -0.1770   -2.0230   -0.3020 C   0  0  0  0  0  0  0  0  0  0  0  0
    1.3000   -1.8610   -0.2590 C   0  0  0  0  0  0  0  0  0  0  0  0
    1.8600   -0.6580   -0.2430 C   0  0  0  0  0  0  0  0  0  0  0  0
    1.1000    0.6290   -0.3740 C   0  0  2  0  0  0  0  0  0  0  0  0
    2.0590    1.6280    0.3390 C   0  0  0  0  0  0  0  0  0  0  0  0
    3.3480    1.0330    0.3290 O   0  0  0  0  0  0  0  0  0  0  0  0
    3.2530   -0.3040    0.0320 C   0  0  0  0  0  0  0  0  0  0  0  0
    4.2690   -0.9620    0.0440 O   0  0  0  0  0  0  0  0  0  0  0  0
    0.9590    0.9950   -1.7120 O   0  0  0  0  0  0  0  0  0  0  0  0
   -0.2310    0.1710    1.7100 C   0  0  0  0  0  0  0  0  0  0  0  0
   -4.8530    0.1110    1.0580 H   0  0  0  0  0  0  0  0  0  0  0  0
   -5.2340    1.1900   -0.2790 H   0  0  0  0  0  0  0  0  0  0  0  0
   -5.1790   -0.5460   -0.5550 H   0  0  0  0  0  0  0  0  0  0  0  0
   -3.1510    2.4910    0.2140 H   0  0  0  0  0  0  0  0  0  0  0  0
   -2.6690    1.3980    1.4940 H   0  0  0  0  0  0  0  0  0  0  0  0
   -1.1030    2.0470   -1.0930 H   0  0  0  0  0  0  0  0  0  0  0  0
   -0.6720    2.5980    0.5130 H   0  0  0  0  0  0  0  0  0  0  0  0
   -2.3320   -2.8270    0.7130 H   0  0  0  0  0  0  0  0  0  0  0  0
   -3.9410   -2.0570    0.8030 H   0  0  0  0  0  0  0  0  0  0  0  0
   -0.4690   -2.5160    0.6570 H   0  0  0  0  0  0  0  0  0  0  0  0
   -0.4500   -2.7630   -1.0860 H   0  0  0  0  0  0  0  0  0  0  0  0
    1.9020   -2.7750   -0.1830 H   0  0  0  0  0  0  0  0  0  0  0  0
    2.1510    2.6050   -0.1760 H   0  0  0  0  0  0  0  0  0  0  0  0
    1.7800    1.8440    1.3890 H   0  0  0  0  0  0  0  0  0  0  0  0
    1.8180    0.9110   -2.1400 H   0  0  0  0  0  0  0  0  0  0  0  0
   -1.1280   -0.3470    2.0830 H   0  0  0  0  0  0  0  0  0  0  0  0
    0.6180   -0.4720    1.9800 H   0  0  0  0  0  0  0  0  0  0  0  0
   -0.1360    1.0790    2.3230 H   0  0  0  0  0  0  0  0  0  0  0  0
  1 23  1  0
  1  2  1  0
  1 22  1  0
  1 21  1  0
  2  3  1  6
  2  9  1  0
  2  4  1  0
  4  5  1  0
  4 24  1  0
  4 25  1  0
  5 26  1  0
  5  6  1  0
  5 27  1  0
  6  7  1  0
  6 14  1  0
  6 20  1  1
  7  8  1  6
  7 11  1  0
  7  9  1  0
  9 10  2  0
 10 28  1  0
 10 29  1  0
 11 31  1  0
 11 12  1  0
 11 30  1  0
 12 13  2  0
 12 32  1  0
 13 14  1  0
 13 17  1  0
 14 19  1  6
 14 15  1  0
 15 33  1  0
 15 16  1  0
 15 34  1  0
 16 17  1  0
 17 18  2  0
 19 35  1  0
 20 37  1  0
 20 36  1  0
 20 38  1  0
M  END
>  <id>  (544) 
648

>  <scaffolds>  (544) 
['C1=CCCCC1', 'C1=CCC2CCCCC2C1', 'C1CCCCC1', 'C1=C2COCC2C2CCCCC2C1', 'O=C1CCCO1', 'C=C1CCCC2CC=CCC12']

>  <name>  (544) 
Salutarisolide

>  <formula>  (544) 
C15H20O3

>  <SMILES>  (544) 
C[C@H]1CC[C@]2([C@H](C1=C)CC=C3[C@@]2(COC3=O)O)C

>  <ChEMBL_id>  (544) 


>  <ZINC_id>  (544) 


>  <PubChem_id>  (544) 
 636559

>  <DrugBank_id>  (544) 


>  <CAS_no>  (544) 
242140-82-5

>  <references>  (544) 
[{'journal': {'name': 'Phytochemistry', 'id': 10}, 'title': 'A drimane sesquiterpenoid lactone from Warburgia salutaris', 'year': 1999, 'start_page': 435, 'volume': 51, 'issue': 3, 'doi': '10.1016/S0031-9422(98)00753-5', 'isbn': '', 'despositor': {'code': 'TMM', 'first_name': 'Thommas', 'last_name': 'Musyoka', 'id': 22}, 'refauthors_set': [{'author': {'first_name': 'Mahlori', 'initials': 'J', 'last_name': 'Mashimbye', 'id': 831}, 'first_author': True, 'id': 1335}, {'author': {'first_name': 'Munaka', 'initials': 'C', 'last_name': 'Maumela', 'id': 832}, 'first_author': None, 'id': 1336}, {'author': {'first_name': 'Siegfried ', 'initials': 'E', 'last_name': 'Drewes', 'id': 833}, 'first_author': None, 'id': 1337}], 'id': 384}]

>  <classifications>  (544) 
[{'classification': 'Sesquiterpene', 'id': 828}, {'classification': 'Terpenoid', 'id': 839}, {'classification': 'Phenol lipids (Classyfire)', 'id': 951}]

>  <molecular_mass>  (544) 
248.32

$$$$
SANC00649_minRM1.pdb
     RDKit          3D

 39 40  0  0  1  0  0  0  0  0999 V2000
   -0.2950    0.8520   -1.7770 C   0  0  0  0  0  0  0  0  0  0  0  0
   -0.1850    0.6320   -0.2690 C   0  0  1  0  0  0  0  0  0  0  0  0
   -0.8210    1.8040    0.4860 C   0  0  0  0  0  0  0  0  0  0  0  0
   -2.3370    1.7790    0.3620 C   0  0  0  0  0  0  0  0  0  0  0  0
   -2.9020    0.4810    0.9180 C   0  0  0  0  0  0  0  0  0  0  0  0
   -2.3310   -0.7570    0.2150 C   0  0  1  0  0  0  0  0  0  0  0  0
   -0.7960   -0.6850    0.2420 C   0  0  1  0  0  0  0  0  0  0  0  0
   -0.1320   -1.8400   -0.5020 C   0  0  0  0  0  0  0  0  0  0  0  0
    1.3410   -1.9200   -0.1060 C   0  0  0  0  0  0  0  0  0  0  0  0
    1.9760   -0.5800    0.0300 C   0  0  0  0  0  0  0  0  0  0  0  0
    1.2970    0.5670    0.0010 C   0  0  0  0  0  0  0  0  0  0  0  0
    1.9850    1.8680    0.1820 C   0  0  0  0  0  0  0  0  0  0  0  0
    2.3230    2.5540   -0.7600 O   0  0  0  0  0  0  0  0  0  0  0  0
    3.4460   -0.5890    0.2310 C   0  0  0  0  0  0  0  0  0  0  0  0
    4.1650   -1.3790   -0.3460 O   0  0  0  0  0  0  0  0  0  0  0  0
   -2.7710   -1.9960    1.0120 C   0  0  0  0  0  0  0  0  0  0  0  0
   -2.9200   -0.8950   -1.1840 C   0  0  0  0  0  0  0  0  0  0  0  0
   -1.3340    0.9080   -2.1330 H   0  0  0  0  0  0  0  0  0  0  0  0
    0.1910    1.7880   -2.0920 H   0  0  0  0  0  0  0  0  0  0  0  0
    0.1850    0.0450   -2.3520 H   0  0  0  0  0  0  0  0  0  0  0  0
   -0.5250    1.7770    1.5570 H   0  0  0  0  0  0  0  0  0  0  0  0
   -0.4310    2.7760    0.1130 H   0  0  0  0  0  0  0  0  0  0  0  0
   -2.7720    2.6440    0.9100 H   0  0  0  0  0  0  0  0  0  0  0  0
   -2.6620    1.9470   -0.6850 H   0  0  0  0  0  0  0  0  0  0  0  0
   -2.7010    0.4300    2.0100 H   0  0  0  0  0  0  0  0  0  0  0  0
   -4.0110    0.4870    0.8480 H   0  0  0  0  0  0  0  0  0  0  0  0
   -0.5060   -0.7630    1.3280 H   0  0  0  0  0  0  0  0  0  0  0  0
   -0.6350   -2.8060   -0.2840 H   0  0  0  0  0  0  0  0  0  0  0  0
   -0.2280   -1.7220   -1.6020 H   0  0  0  0  0  0  0  0  0  0  0  0
    1.4570   -2.4610    0.8590 H   0  0  0  0  0  0  0  0  0  0  0  0
    1.9040   -2.5360   -0.8420 H   0  0  0  0  0  0  0  0  0  0  0  0
    2.1630    2.1690    1.2330 H   0  0  0  0  0  0  0  0  0  0  0  0
    3.8500    0.1550    0.9430 H   0  0  0  0  0  0  0  0  0  0  0  0
   -3.8660   -2.0910    1.0530 H   0  0  0  0  0  0  0  0  0  0  0  0
   -2.3910   -2.9300    0.5720 H   0  0  0  0  0  0  0  0  0  0  0  0
   -2.4240   -1.9830    2.0550 H   0  0  0  0  0  0  0  0  0  0  0  0
   -2.6520   -0.0690   -1.8580 H   0  0  0  0  0  0  0  0  0  0  0  0
   -2.6070   -1.8210   -1.6870 H   0  0  0  0  0  0  0  0  0  0  0  0
   -4.0210   -0.9210   -1.1640 H   0  0  0  0  0  0  0  0  0  0  0  0
  1 20  1  0
  1 18  1  0
  1 19  1  0
  2  1  1  6
  2 11  1  0
  2  7  1  0
  2  3  1  0
  3 22  1  0
  3  4  1  0
  3 21  1  0
  4 24  1  0
  4 23  1  0
  4  5  1  0
  5  6  1  0
  5 26  1  0
  5 25  1  0
  6 17  1  6
  6  7  1  0
  6 16  1  0
  7  8  1  0
  7 27  1  1
  8 29  1  0
  8 28  1  0
  8  9  1  0
  9 31  1  0
  9 10  1  0
  9 30  1  0
 10 11  2  0
 10 14  1  0
 11 12  1  0
 12 13  2  0
 12 32  1  0
 14 15  2  0
 14 33  1  0
 16 35  1  0
 16 34  1  0
 16 36  1  0
 17 37  1  0
 17 38  1  0
 17 39  1  0
M  END
>  <id>  (545) 
649

>  <scaffolds>  (545) 
['C1=CC2CCCCC2CC1', 'C1=CCCCC1', 'C1CCCCC1']

>  <name>  (545) 
Isopolygodial

>  <formula>  (545) 
C15H22O2

>  <SMILES>  (545) 
C[C@@]12CCCC(C1CCC(=C2C=O)C=O)(C)C

>  <ChEMBL_id>  (545) 


>  <ZINC_id>  (545) 


>  <PubChem_id>  (545) 
 145814

>  <DrugBank_id>  (545) 


>  <CAS_no>  (545) 
5956-39-8

>  <references>  (545) 
[{'journal': {'name': 'Phytochemistry', 'id': 10}, 'title': 'A drimane sesquiterpenoid lactone from Warburgia salutaris', 'year': 1999, 'start_page': 435, 'volume': 51, 'issue': 3, 'doi': '10.1016/S0031-9422(98)00753-5', 'isbn': '', 'despositor': {'code': 'TMM', 'first_name': 'Thommas', 'last_name': 'Musyoka', 'id': 22}, 'refauthors_set': [{'author': {'first_name': 'Mahlori', 'initials': 'J', 'last_name': 'Mashimbye', 'id': 831}, 'first_author': True, 'id': 1335}, {'author': {'first_name': 'Munaka', 'initials': 'C', 'last_name': 'Maumela', 'id': 832}, 'first_author': None, 'id': 1336}, {'author': {'first_name': 'Siegfried ', 'initials': 'E', 'last_name': 'Drewes', 'id': 833}, 'first_author': None, 'id': 1337}], 'id': 384}]

>  <classifications>  (545) 
[{'classification': 'Sesquiterpene', 'id': 828}, {'classification': 'Terpenoid', 'id': 839}, {'classification': 'Organic oxides (Classyfire)', 'id': 993}]

>  <molecular_mass>  (545) 
234.33

$$$$
SANC00650_minRM1.pdb
     RDKit          3D

 39 40  0  0  1  0  0  0  0  0999 V2000
    0.0540   -0.6210    1.7320 C   0  0  0  0  0  0  0  0  0  0  0  0
    0.1160   -0.5510    0.2090 C   0  0  2  0  0  0  0  0  0  0  0  0
    0.6040   -1.8890   -0.3550 C   0  0  0  0  0  0  0  0  0  0  0  0
    2.0860   -2.0950   -0.0820 C   0  0  0  0  0  0  0  0  0  0  0  0
    2.8880   -0.9970   -0.7600 C   0  0  0  0  0  0  0  0  0  0  0  0
    2.5250    0.3930   -0.2220 C   0  0  1  0  0  0  0  0  0  0  0  0
    1.0000    0.5990   -0.3160 C   0  0  2  0  0  0  0  0  0  0  0  0
    0.7750    0.6870   -1.4160 H   0  0  0  0  0  0  0  0  0  0  0  0
    0.5620    1.9020    0.3500 C   0  0  0  0  0  0  0  0  0  0  0  0
   -0.9090    2.0960    0.2610 C   0  0  0  0  0  0  0  0  0  0  0  0
   -1.7620    1.1100   -0.0300 C   0  0  0  0  0  0  0  0  0  0  0  0
   -1.3160   -0.2820   -0.3250 C   0  0  2  0  0  0  0  0  0  0  0  0
   -1.3430   -0.3980   -1.4420 H   0  0  0  0  0  0  0  0  0  0  0  0
   -2.2690   -1.2930    0.2910 C   0  0  0  0  0  0  0  0  0  0  0  0
   -2.4670   -2.3680   -0.2350 O   0  0  0  0  0  0  0  0  0  0  0  0
   -3.2050    1.4110   -0.1500 C   0  0  0  0  0  0  0  0  0  0  0  0
   -3.9910    0.6280   -0.6500 O   0  0  0  0  0  0  0  0  0  0  0  0
    3.0970    0.5730    1.1820 C   0  0  0  0  0  0  0  0  0  0  0  0
    3.2210    1.4290   -1.1220 C   0  0  0  0  0  0  0  0  0  0  0  0
   -0.5700    0.1670    2.1770 H   0  0  0  0  0  0  0  0  0  0  0  0
   -0.3630   -1.5740    2.0940 H   0  0  0  0  0  0  0  0  0  0  0  0
    1.0430   -0.5340    2.2080 H   0  0  0  0  0  0  0  0  0  0  0  0
    0.0240   -2.7390    0.0620 H   0  0  0  0  0  0  0  0  0  0  0  0
    0.4130   -1.9480   -1.4490 H   0  0  0  0  0  0  0  0  0  0  0  0
    2.2990   -2.1500    1.0040 H   0  0  0  0  0  0  0  0  0  0  0  0
    2.4060   -3.0900   -0.4620 H   0  0  0  0  0  0  0  0  0  0  0  0
    3.9760   -1.1880   -0.6450 H   0  0  0  0  0  0  0  0  0  0  0  0
    2.7250   -1.0400   -1.8590 H   0  0  0  0  0  0  0  0  0  0  0  0
    0.8550    1.9510    1.4210 H   0  0  0  0  0  0  0  0  0  0  0  0
    1.0760    2.7730   -0.1140 H   0  0  0  0  0  0  0  0  0  0  0  0
   -1.2610    3.1170    0.4570 H   0  0  0  0  0  0  0  0  0  0  0  0
   -2.7600   -1.0010    1.2370 H   0  0  0  0  0  0  0  0  0  0  0  0
   -3.5390    2.3950    0.2320 H   0  0  0  0  0  0  0  0  0  0  0  0
    4.1590    0.2860    1.2330 H   0  0  0  0  0  0  0  0  0  0  0  0
    3.0570    1.6150    1.5310 H   0  0  0  0  0  0  0  0  0  0  0  0
    2.5810   -0.0300    1.9440 H   0  0  0  0  0  0  0  0  0  0  0  0
    2.8910    1.3800   -2.1700 H   0  0  0  0  0  0  0  0  0  0  0  0
    3.0530    2.4640   -0.7930 H   0  0  0  0  0  0  0  0  0  0  0  0
    4.3120    1.2870   -1.1370 H   0  0  0  0  0  0  0  0  0  0  0  0
  1 21  1  0
  1 20  1  0
  1 22  1  0
  2  1  1  1
  2  3  1  0
  2 12  1  0
  2  7  1  0
  3 24  1  0
  3  4  1  0
  3 23  1  0
  4  5  1  0
  4 26  1  0
  4 25  1  0
  5 28  1  0
  5 27  1  0
  5  6  1  0
  6 19  1  6
  6  7  1  0
  6 18  1  0
  7  8  1  6
  7  9  1  0
  9 30  1  0
  9 10  1  0
  9 29  1  0
 10 11  2  0
 10 31  1  0
 11 12  1  0
 11 16  1  0
 12 13  1  6
 12 14  1  0
 14 15  2  0
 14 32  1  0
 16 17  2  0
 16 33  1  0
 18 34  1  0
 18 35  1  0
 18 36  1  0
 19 37  1  0
 19 39  1  0
 19 38  1  0
M  END
>  <id>  (546) 
650

>  <scaffolds>  (546) 
['C1=CCCCC1', 'C1=CCC2CCCCC2C1', 'C1CCCCC1']

>  <name>  (546) 
Polygodial

>  <formula>  (546) 
C15H22O2

>  <SMILES>  (546) 
C[C@]12CCCC([C@@H]1CC=C([C@@H]2C=O)C=O)(C)C

>  <ChEMBL_id>  (546) 
CHEMBL254550

>  <ZINC_id>  (546) 


>  <PubChem_id>  (546) 
 72503

>  <DrugBank_id>  (546) 


>  <CAS_no>  (546) 
6754-20-7

>  <references>  (546) 
[{'journal': {'name': 'Phytochemistry', 'id': 10}, 'title': 'A drimane sesquiterpenoid lactone from Warburgia salutaris', 'year': 1999, 'start_page': 435, 'volume': 51, 'issue': 3, 'doi': '10.1016/S0031-9422(98)00753-5', 'isbn': '', 'despositor': {'code': 'TMM', 'first_name': 'Thommas', 'last_name': 'Musyoka', 'id': 22}, 'refauthors_set': [{'author': {'first_name': 'Mahlori', 'initials': 'J', 'last_name': 'Mashimbye', 'id': 831}, 'first_author': True, 'id': 1335}, {'author': {'first_name': 'Munaka', 'initials': 'C', 'last_name': 'Maumela', 'id': 832}, 'first_author': None, 'id': 1336}, {'author': {'first_name': 'Siegfried ', 'initials': 'E', 'last_name': 'Drewes', 'id': 833}, 'first_author': None, 'id': 1337}], 'id': 384}]

>  <classifications>  (546) 
[{'classification': 'Sesquiterpene', 'id': 828}, {'classification': 'Terpenoid', 'id': 839}, {'classification': 'Organic oxides (Classyfire)', 'id': 993}]

>  <molecular_mass>  (546) 
234.33

$$$$
SANC00651_minRM1.pdb
     RDKit          3D

 40 41  0  0  1  0  0  0  0  0999 V2000
    0.1400   -0.6400    1.7130 C   0  0  0  0  0  0  0  0  0  0  0  0
    0.2430   -0.5810    0.1910 C   0  0  2  0  0  0  0  0  0  0  0  0
    0.8080   -1.9010   -0.3400 C   0  0  0  0  0  0  0  0  0  0  0  0
    2.2760   -2.0520    0.0270 C   0  0  0  0  0  0  0  0  0  0  0  0
    3.0790   -0.9250   -0.6010 C   0  0  0  0  0  0  0  0  0  0  0  0
    2.6200    0.4570   -0.1180 C   0  0  1  0  0  0  0  0  0  0  0  0
    1.0950    0.6000   -0.3110 C   0  0  2  0  0  0  0  0  0  0  0  0
    0.9330    0.6630   -1.4220 H   0  0  0  0  0  0  0  0  0  0  0  0
    0.5820    1.8990    0.3120 C   0  0  0  0  0  0  0  0  0  0  0  0
   -0.8980    2.0120    0.2890 C   0  0  0  0  0  0  0  0  0  0  0  0
   -1.7140    1.0000   -0.0060 C   0  0  0  0  0  0  0  0  0  0  0  0
   -1.2040   -0.3670   -0.3620 C   0  0  2  0  0  0  0  0  0  0  0  0
   -2.1200   -1.4630    0.2090 C   0  0  0  0  0  0  0  0  0  0  0  0
   -2.7130   -1.3130    1.2550 O   0  0  0  0  0  0  0  0  0  0  0  0
   -1.1540   -0.5120   -1.7490 O   0  0  0  0  0  0  0  0  0  0  0  0
   -3.1770    1.2020   -0.0290 C   0  0  0  0  0  0  0  0  0  0  0  0
   -3.8930    0.5460   -0.7640 O   0  0  0  0  0  0  0  0  0  0  0  0
    3.0920    0.6840    1.3160 C   0  0  0  0  0  0  0  0  0  0  0  0
    3.3270    1.5090   -0.9890 C   0  0  0  0  0  0  0  0  0  0  0  0
   -0.5410    0.1130    2.1370 H   0  0  0  0  0  0  0  0  0  0  0  0
   -0.2260   -1.6120    2.0770 H   0  0  0  0  0  0  0  0  0  0  0  0
    1.1070   -0.4870    2.2160 H   0  0  0  0  0  0  0  0  0  0  0  0
    0.2260   -2.7660    0.0440 H   0  0  0  0  0  0  0  0  0  0  0  0
    0.7020   -1.9750   -1.4440 H   0  0  0  0  0  0  0  0  0  0  0  0
    2.4240   -2.1050    1.1240 H   0  0  0  0  0  0  0  0  0  0  0  0
    2.6570   -3.0340   -0.3330 H   0  0  0  0  0  0  0  0  0  0  0  0
    4.1610   -1.0670   -0.3960 H   0  0  0  0  0  0  0  0  0  0  0  0
    3.0030   -0.9860   -1.7090 H   0  0  0  0  0  0  0  0  0  0  0  0
    0.9260    2.0150    1.3650 H   0  0  0  0  0  0  0  0  0  0  0  0
    1.0140    2.7790   -0.2150 H   0  0  0  0  0  0  0  0  0  0  0  0
   -1.2990    3.0030    0.5430 H   0  0  0  0  0  0  0  0  0  0  0  0
   -2.1960   -2.3880   -0.3940 H   0  0  0  0  0  0  0  0  0  0  0  0
   -2.0180   -0.2880   -2.1110 H   0  0  0  0  0  0  0  0  0  0  0  0
   -3.5840    1.9770    0.6460 H   0  0  0  0  0  0  0  0  0  0  0  0
    4.1880    0.6370    1.4030 H   0  0  0  0  0  0  0  0  0  0  0  0
    2.7930    1.6690    1.7070 H   0  0  0  0  0  0  0  0  0  0  0  0
    2.6980   -0.0580    2.0270 H   0  0  0  0  0  0  0  0  0  0  0  0
    3.0110    1.4800   -2.0410 H   0  0  0  0  0  0  0  0  0  0  0  0
    3.1600    2.5370   -0.6390 H   0  0  0  0  0  0  0  0  0  0  0  0
    4.4190    1.3680   -0.9960 H   0  0  0  0  0  0  0  0  0  0  0  0
  1 21  1  0
  1 20  1  0
  1 22  1  0
  2  1  1  1
  2 12  1  0
  2  3  1  0
  2  7  1  0
  3 24  1  0
  3  4  1  0
  3 23  1  0
  4  5  1  0
  4 26  1  0
  4 25  1  0
  5 28  1  0
  5 27  1  0
  5  6  1  0
  6 19  1  6
  6  7  1  0
  6 18  1  0
  7  8  1  6
  7  9  1  0
  9 30  1  0
  9 10  1  0
  9 29  1  0
 10 11  2  0
 10 31  1  0
 11 12  1  0
 11 16  1  0
 12 15  1  6
 12 13  1  0
 13 32  1  0
 13 14  2  0
 15 33  1  0
 16 17  2  0
 16 34  1  0
 18 35  1  0
 18 36  1  0
 18 37  1  0
 19 38  1  0
 19 40  1  0
 19 39  1  0
M  END
>  <id>  (547) 
651

>  <scaffolds>  (547) 
['C1=CCCCC1', 'C1=CCC2CCCCC2C1', 'C1CCCCC1']

>  <name>  (547) 
Warburganal

>  <formula>  (547) 
C15H22O3

>  <SMILES>  (547) 
C[C@]12CCCC([C@@H]1CC=C([C@@]2(C=O)O)C=O)(C)C

>  <ChEMBL_id>  (547) 
CHEMBL452492

>  <ZINC_id>  (547) 


>  <PubChem_id>  (547) 
 72502

>  <DrugBank_id>  (547) 


>  <CAS_no>  (547) 
62994-47-2

>  <references>  (547) 
[{'journal': {'name': 'Phytochemistry', 'id': 10}, 'title': 'A drimane sesquiterpenoid lactone from Warburgia salutaris', 'year': 1999, 'start_page': 435, 'volume': 51, 'issue': 3, 'doi': '10.1016/S0031-9422(98)00753-5', 'isbn': '', 'despositor': {'code': 'TMM', 'first_name': 'Thommas', 'last_name': 'Musyoka', 'id': 22}, 'refauthors_set': [{'author': {'first_name': 'Mahlori', 'initials': 'J', 'last_name': 'Mashimbye', 'id': 831}, 'first_author': True, 'id': 1335}, {'author': {'first_name': 'Munaka', 'initials': 'C', 'last_name': 'Maumela', 'id': 832}, 'first_author': None, 'id': 1336}, {'author': {'first_name': 'Siegfried ', 'initials': 'E', 'last_name': 'Drewes', 'id': 833}, 'first_author': None, 'id': 1337}], 'id': 384}]

>  <classifications>  (547) 
[{'classification': 'Sesquiterpene', 'id': 828}, {'classification': 'Terpenoid', 'id': 839}, {'classification': 'Organooxygen compounds (Classyfire)', 'id': 954}]

>  <molecular_mass>  (547) 
250.33

$$$$
SANC00652_minRM1.pdb
     RDKit          3D

 41 42  0  0  1  0  0  0  0  0999 V2000
    0.0560   -0.6770    1.8180 C   0  0  0  0  0  0  0  0  0  0  0  0
    0.0700   -0.6750    0.2890 C   0  0  2  0  0  0  0  0  0  0  0  0
    0.4000   -2.0800   -0.2230 C   0  0  0  0  0  0  0  0  0  0  0  0
    1.8420   -2.4480    0.0860 C   0  0  0  0  0  0  0  0  0  0  0  0
    2.7760   -1.4680   -0.6020 C   0  0  0  0  0  0  0  0  0  0  0  0
    2.5520   -0.0160   -0.1580 C   0  0  1  0  0  0  0  0  0  0  0  0
    1.0560    0.3490   -0.3060 C   0  0  2  0  0  0  0  0  0  0  0  0
    0.8570    0.3890   -1.4130 H   0  0  0  0  0  0  0  0  0  0  0  0
    0.7490    1.7380    0.2910 C   0  0  2  0  0  0  0  0  0  0  0  0
    1.1910    1.8200    1.3280 H   0  0  0  0  0  0  0  0  0  0  0  0
   -0.7250    2.0360    0.3900 C   0  0  0  0  0  0  0  0  0  0  0  0
   -1.6820    1.1340    0.1860 C   0  0  0  0  0  0  0  0  0  0  0  0
   -1.3680   -0.2900   -0.1850 C   0  0  2  0  0  0  0  0  0  0  0  0
   -2.3820   -1.2360    0.4740 C   0  0  0  0  0  0  0  0  0  0  0  0
   -2.8270   -2.1830   -0.1380 O   0  0  0  0  0  0  0  0  0  0  0  0
   -1.4070   -0.4110   -1.5710 O   0  0  0  0  0  0  0  0  0  0  0  0
   -3.1020    1.5410    0.2240 C   0  0  0  0  0  0  0  0  0  0  0  0
   -3.9680    0.8780   -0.3160 O   0  0  0  0  0  0  0  0  0  0  0  0
    1.2990    2.6810   -0.5870 O   0  0  0  0  0  0  0  0  0  0  0  0
    3.1050    0.1820    1.2520 C   0  0  0  0  0  0  0  0  0  0  0  0
    3.4000    0.8680   -1.0890 C   0  0  0  0  0  0  0  0  0  0  0  0
   -0.4630    0.1860    2.2580 H   0  0  0  0  0  0  0  0  0  0  0  0
   -0.4330   -1.5710    2.2350 H   0  0  0  0  0  0  0  0  0  0  0  0
    1.0630   -0.6750    2.2600 H   0  0  0  0  0  0  0  0  0  0  0  0
   -0.2890   -2.8360    0.2100 H   0  0  0  0  0  0  0  0  0  0  0  0
    0.2280   -2.1580   -1.3190 H   0  0  0  0  0  0  0  0  0  0  0  0
    2.0290   -2.5060    1.1770 H   0  0  0  0  0  0  0  0  0  0  0  0
    2.0510   -3.4820   -0.2660 H   0  0  0  0  0  0  0  0  0  0  0  0
    3.8320   -1.7660   -0.4220 H   0  0  0  0  0  0  0  0  0  0  0  0
    2.6530   -1.5480   -1.7040 H   0  0  0  0  0  0  0  0  0  0  0  0
   -0.9720    3.0790    0.6270 H   0  0  0  0  0  0  0  0  0  0  0  0
   -2.6810   -0.9980    1.5100 H   0  0  0  0  0  0  0  0  0  0  0  0
   -2.3280   -0.3630   -1.8560 H   0  0  0  0  0  0  0  0  0  0  0  0
   -3.3380    2.4820    0.7580 H   0  0  0  0  0  0  0  0  0  0  0  0
    1.3900    3.5100   -0.1090 H   0  0  0  0  0  0  0  0  0  0  0  0
    4.1980    0.0540    1.2850 H   0  0  0  0  0  0  0  0  0  0  0  0
    2.8980    1.1890    1.6470 H   0  0  0  0  0  0  0  0  0  0  0  0
    2.6970   -0.5270    1.9890 H   0  0  0  0  0  0  0  0  0  0  0  0
    2.9510    1.0000   -2.0840 H   0  0  0  0  0  0  0  0  0  0  0  0
    3.5730    1.8760   -0.6870 H   0  0  0  0  0  0  0  0  0  0  0  0
    4.4030    0.4480   -1.2570 H   0  0  0  0  0  0  0  0  0  0  0  0
  1 23  1  0
  1 22  1  0
  1 24  1  0
  2  1  1  1
  2  7  1  0
  2  3  1  0
  2 13  1  0
  3 26  1  0
  3  4  1  0
  3 25  1  0
  4  5  1  0
  4 28  1  0
  4 27  1  0
  5 30  1  0
  5 29  1  0
  5  6  1  0
  6 21  1  6
  6  7  1  0
  6 20  1  0
  7  8  1  6
  7  9  1  0
  9 19  1  0
  9 11  1  0
  9 10  1  1
 11 12  2  0
 11 31  1  0
 12 13  1  0
 12 17  1  0
 13 16  1  6
 13 14  1  0
 14 15  2  0
 14 32  1  0
 16 33  1  0
 17 18  2  0
 17 34  1  0
 19 35  1  0
 20 36  1  0
 20 37  1  0
 20 38  1  0
 21 39  1  0
 21 41  1  0
 21 40  1  0
M  END
>  <id>  (548) 
652

>  <scaffolds>  (548) 
['C1=CCCCC1', 'C1=CCC2CCCCC2C1', 'C1CCCCC1']

>  <name>  (548) 
Mukaadial

>  <formula>  (548) 
C15H22O4

>  <SMILES>  (548) 
C[C@]12CCCC([C@@H]1[C@H](C=C([C@@]2(C=O)O)C=O)O)(C)C

>  <ChEMBL_id>  (548) 
CHEMBL455627

>  <ZINC_id>  (548) 


>  <PubChem_id>  (548) 
 159088

>  <DrugBank_id>  (548) 


>  <CAS_no>  (548) 
87420-14-2

>  <references>  (548) 
[{'journal': {'name': 'Phytochemistry', 'id': 10}, 'title': 'A drimane sesquiterpenoid lactone from Warburgia salutaris', 'year': 1999, 'start_page': 435, 'volume': 51, 'issue': 3, 'doi': '10.1016/S0031-9422(98)00753-5', 'isbn': '', 'despositor': {'code': 'TMM', 'first_name': 'Thommas', 'last_name': 'Musyoka', 'id': 22}, 'refauthors_set': [{'author': {'first_name': 'Mahlori', 'initials': 'J', 'last_name': 'Mashimbye', 'id': 831}, 'first_author': True, 'id': 1335}, {'author': {'first_name': 'Munaka', 'initials': 'C', 'last_name': 'Maumela', 'id': 832}, 'first_author': None, 'id': 1336}, {'author': {'first_name': 'Siegfried ', 'initials': 'E', 'last_name': 'Drewes', 'id': 833}, 'first_author': None, 'id': 1337}], 'id': 384}]

>  <classifications>  (548) 
[{'classification': 'Sesquiterpene', 'id': 828}, {'classification': 'Terpenoid', 'id': 839}, {'classification': 'Organooxygen compounds (Classyfire)', 'id': 954}]

>  <molecular_mass>  (548) 
266.33

$$$$
SANC00653_minRM1.pdb
     RDKit          3D

 45 49  0  0  1  0  0  0  0  0999 V2000
   -3.5200    2.1360    1.8510 C   0  0  0  0  0  0  0  0  0  0  0  0
   -2.8850    2.1040    0.5920 O   0  0  0  0  0  0  0  0  0  0  0  0
   -2.2620    0.9210    0.3220 C   0  0  0  0  0  0  0  0  0  0  0  0
   -0.8930    0.9370   -0.0150 C   0  0  0  0  0  0  0  0  0  0  0  0
   -0.2400   -0.2380   -0.3890 C   0  0  0  0  0  0  0  0  0  0  0  0
   -0.9080   -1.4700   -0.4530 C   0  0  0  0  0  0  0  0  0  0  0  0
   -2.2380   -1.4570   -0.1160 C   0  0  0  0  0  0  0  0  0  0  0  0
   -2.9180   -0.2880    0.2630 C   0  0  0  0  0  0  0  0  0  0  0  0
   -4.2270   -0.5860    0.5410 O   0  0  0  0  0  0  0  0  0  0  0  0
   -4.3640   -1.9900    0.3400 C   0  0  0  0  0  0  0  0  0  0  0  0
   -3.1090   -2.5130   -0.0900 O   0  0  0  0  0  0  0  0  0  0  0  0
    1.2160   -0.1450   -0.7630 C   0  0  2  0  0  0  0  0  0  0  0  0
    1.9470   -1.4380   -0.7200 C   0  0  0  0  0  0  0  0  0  0  0  0
    3.1380   -1.5800   -0.1480 C   0  0  0  0  0  0  0  0  0  0  0  0
    3.8790   -0.4590    0.5200 C   0  0  1  0  0  0  0  0  0  0  0  0
    4.9750   -0.5470    0.2820 H   0  0  0  0  0  0  0  0  0  0  0  0
    3.3680    0.9140    0.0580 C   0  0  0  0  0  0  0  0  0  0  0  0
    1.8470    0.9270    0.1570 C   0  0  1  0  0  0  0  0  0  0  0  0
    1.5630    0.7710    1.2320 H   0  0  0  0  0  0  0  0  0  0  0  0
    1.2580    2.2050   -0.3730 N   0  0  0  0  0  0  0  0  0  0  0  0
   -0.1630    2.2480    0.0840 C   0  0  0  0  0  0  0  0  0  0  0  0
    1.3100    2.0400   -1.8600 C   0  0  0  0  0  0  0  0  0  0  0  0
    1.2440    0.5170   -2.1730 C   0  0  1  0  0  0  0  0  0  0  0  0
    0.3260    0.2540   -2.7620 H   0  0  0  0  0  0  0  0  0  0  0  0
    2.3910    0.0770   -2.8320 O   0  0  0  0  0  0  0  0  0  0  0  0
    3.6710   -0.4820    1.9150 O   0  0  0  0  0  0  0  0  0  0  0  0
    4.1930   -1.6110    2.5590 C   0  0  0  0  0  0  0  0  0  0  0  0
   -3.8460    3.1810    1.9560 H   0  0  0  0  0  0  0  0  0  0  0  0
   -4.4070    1.4870    1.9060 H   0  0  0  0  0  0  0  0  0  0  0  0
   -2.8420    1.8890    2.6820 H   0  0  0  0  0  0  0  0  0  0  0  0
   -0.4070   -2.3950   -0.7500 H   0  0  0  0  0  0  0  0  0  0  0  0
   -4.6590   -2.4750    1.2960 H   0  0  0  0  0  0  0  0  0  0  0  0
   -5.1340   -2.1810   -0.4390 H   0  0  0  0  0  0  0  0  0  0  0  0
    1.4640   -2.2780   -1.2310 H   0  0  0  0  0  0  0  0  0  0  0  0
    3.6480   -2.5490   -0.1590 H   0  0  0  0  0  0  0  0  0  0  0  0
    3.8020    1.7300    0.6730 H   0  0  0  0  0  0  0  0  0  0  0  0
    3.7370    1.1080   -0.9690 H   0  0  0  0  0  0  0  0  0  0  0  0
   -0.7120    3.0480   -0.4660 H   0  0  0  0  0  0  0  0  0  0  0  0
   -0.1630    2.5910    1.1460 H   0  0  0  0  0  0  0  0  0  0  0  0
    0.5110    2.6050   -2.3870 H   0  0  0  0  0  0  0  0  0  0  0  0
    2.2550    2.5070   -2.2130 H   0  0  0  0  0  0  0  0  0  0  0  0
    2.3790    0.4690   -3.7110 H   0  0  0  0  0  0  0  0  0  0  0  0
    3.6680   -2.5470    2.2990 H   0  0  0  0  0  0  0  0  0  0  0  0
    5.2740   -1.7650    2.3830 H   0  0  0  0  0  0  0  0  0  0  0  0
    4.0420   -1.4090    3.6300 H   0  0  0  0  0  0  0  0  0  0  0  0
  1  2  1  0
  1 29  1  0
  1 28  1  0
  1 30  1  0
  2  3  1  0
  3  4  2  0
  3  8  1  0
  4  5  1  0
  4 21  1  0
  5  6  2  0
  6 31  1  0
  6  7  1  0
  7 11  1  0
  7  8  2  0
  8  9  1  0
  9 10  1  0
 10 33  1  0
 10 11  1  0
 10 32  1  0
 12  5  1  0
 12 23  1  0
 12 13  1  6
 12 18  1  0
 13 34  1  0
 13 14  2  0
 14 35  1  0
 14 15  1  0
 15 17  1  0
 15 16  1  1
 15 26  1  0
 17 37  1  0
 17 18  1  0
 17 36  1  0
 18 20  1  0
 18 19  1  1
 20 22  1  0
 20 21  1  0
 21 38  1  0
 21 39  1  0
 22 40  1  0
 22 41  1  0
 22 23  1  0
 23 25  1  0
 23 24  1  6
 25 42  1  0
 26 27  1  0
 27 43  1  0
 27 44  1  0
 27 45  1  0
M  END
>  <id>  (549) 
653

>  <scaffolds>  (549) 
['c1ccccc1', 'C1=CC23CCN(Cc4cc5c(cc42)OCO5)C3CC1', 'C1=CCCCC1', 'C1CCNC1', 'C1=CC23CCN(Cc4ccccc42)C3CC1', 'c1ccc2c(c1)OCO2']

>  <name>  (549) 
Ambelline

>  <formula>  (549) 
C18H21NO5

>  <SMILES>  (549) 
COc1c2c(cc3c1OCO3)[C@]45C=C[C@@H](C[C@H]4N(C2)C[C@H]5O)OC

>  <ChEMBL_id>  (549) 


>  <ZINC_id>  (549) 


>  <PubChem_id>  (549) 
 441585

>  <DrugBank_id>  (549) 


>  <CAS_no>  (549) 
3660-62-6

>  <references>  (549) 
[{'journal': {'name': 'Phytochemistry', 'id': 10}, 'title': 'Alkaloids from Brunsvigia josephinæ', 'year': 1994, 'start_page': 809, 'volume': 35, 'issue': 3, 'doi': '10.1016/S0031-9422(00)90611-3', 'isbn': '', 'despositor': {'code': 'TMM', 'first_name': 'Thommas', 'last_name': 'Musyoka', 'id': 22}, 'refauthors_set': [{'author': {'first_name': 'Frances', 'initials': 'F', 'last_name': 'Viladomat', 'id': 808}, 'first_author': True, 'id': 1277}, {'author': {'first_name': 'Jaume', 'initials': 'J', 'last_name': 'Bastida', 'id': 810}, 'first_author': False, 'id': 1278}, {'author': {'first_name': 'Carles', 'initials': 'C', 'last_name': 'Codina', 'id': 809}, 'first_author': False, 'id': 1279}, {'author': {'first_name': 'William', 'initials': 'WE', 'last_name': 'Campbell', 'id': 621}, 'first_author': None, 'id': 1280}, {'author': {'first_name': '', 'initials': 'S', 'last_name': 'Mathee', 'id': 800}, 'first_author': None, 'id': 1281}], 'id': 370}]

>  <classifications>  (549) 
[{'classification': 'Alkaloid', 'id': 738}, {'classification': 'Amaryllidaceae', 'id': 741}, {'classification': 'Amaryllidaceae alkaloids (Classyfire)', 'id': 971}]

>  <molecular_mass>  (549) 
331.36

$$$$
SANC00654_minRM1.pdb
     RDKit          3D

 45 48  0  0  1  0  0  0  0  0999 V2000
   -0.2490    3.3240    2.2750 C   0  0  0  0  0  0  0  0  0  0  0  0
   -0.6320    2.9910    0.8690 C   0  0  0  0  0  0  0  0  0  0  0  0
   -0.7510    3.7560   -0.0680 O   0  0  0  0  0  0  0  0  0  0  0  0
   -0.8520    1.6600    0.7190 O   0  0  0  0  0  0  0  0  0  0  0  0
   -1.2060    1.1530   -0.5540 C   0  0  2  0  0  0  0  0  0  0  0  0
   -0.6690    1.6900   -1.3860 H   0  0  0  0  0  0  0  0  0  0  0  0
   -2.7510    1.3230   -0.7220 C   0  0  2  0  0  0  0  0  0  0  0  0
   -3.1270    2.0960    0.0080 H   0  0  0  0  0  0  0  0  0  0  0  0
   -3.5570    0.0700   -0.5180 C   0  0  0  0  0  0  0  0  0  0  0  0
   -3.0360   -1.0080    0.0490 C   0  0  0  0  0  0  0  0  0  0  0  0
   -3.6620   -2.3440    0.2290 C   0  0  0  0  0  0  0  0  0  0  0  0
   -2.4600   -3.3060    0.2960 C   0  0  0  0  0  0  0  0  0  0  0  0
   -1.2770   -2.4960    0.7300 N   0  0  0  0  0  0  0  0  0  0  0  0
   -1.6140   -1.0620    0.5130 C   0  0  1  0  0  0  0  0  0  0  0  0
   -1.4970   -0.5890    1.5240 H   0  0  0  0  0  0  0  0  0  0  0  0
   -0.7680   -0.3220   -0.5370 C   0  0  2  0  0  0  0  0  0  0  0  0
   -0.9740   -0.7370   -1.5610 H   0  0  0  0  0  0  0  0  0  0  0  0
    0.6730   -0.5580   -0.2390 C   0  0  0  0  0  0  0  0  0  0  0  0
    1.6400    0.4350   -0.3210 C   0  0  0  0  0  0  0  0  0  0  0  0
    2.9640    0.1190   -0.0360 C   0  0  0  0  0  0  0  0  0  0  0  0
    3.3210   -1.1860    0.3390 C   0  0  0  0  0  0  0  0  0  0  0  0
    2.3460   -2.1830    0.4130 C   0  0  0  0  0  0  0  0  0  0  0  0
    1.0300   -1.8630    0.1100 C   0  0  0  0  0  0  0  0  0  0  0  0
   -0.0130   -2.9360    0.0870 C   0  0  0  0  0  0  0  0  0  0  0  0
    4.5750   -1.5610    0.6930 O   0  0  0  0  0  0  0  0  0  0  0  0
    3.9900    1.0290   -0.0280 O   0  0  0  0  0  0  0  0  0  0  0  0
    3.8680    2.0850   -0.9560 C   0  0  0  0  0  0  0  0  0  0  0  0
   -2.9040    1.7510   -2.0490 O   0  0  0  0  0  0  0  0  0  0  0  0
   -1.1470    3.4250    2.9070 H   0  0  0  0  0  0  0  0  0  0  0  0
    0.3900    2.5510    2.7370 H   0  0  0  0  0  0  0  0  0  0  0  0
    0.3020    4.2750    2.3160 H   0  0  0  0  0  0  0  0  0  0  0  0
   -4.5890    0.0920   -0.8770 H   0  0  0  0  0  0  0  0  0  0  0  0
   -4.2710   -2.3730    1.1550 H   0  0  0  0  0  0  0  0  0  0  0  0
   -4.3640   -2.6040   -0.5860 H   0  0  0  0  0  0  0  0  0  0  0  0
   -2.6050   -4.1130    1.0430 H   0  0  0  0  0  0  0  0  0  0  0  0
   -2.3340   -3.8350   -0.6750 H   0  0  0  0  0  0  0  0  0  0  0  0
    1.3720    1.4550   -0.6040 H   0  0  0  0  0  0  0  0  0  0  0  0
    2.6320   -3.1980    0.7090 H   0  0  0  0  0  0  0  0  0  0  0  0
    0.3090   -3.8470    0.6500 H   0  0  0  0  0  0  0  0  0  0  0  0
   -0.1150   -3.2750   -0.9780 H   0  0  0  0  0  0  0  0  0  0  0  0
    5.2030   -0.9030    0.3750 H   0  0  0  0  0  0  0  0  0  0  0  0
    3.5360    1.7730   -1.9630 H   0  0  0  0  0  0  0  0  0  0  0  0
    3.1990    2.8860   -0.5880 H   0  0  0  0  0  0  0  0  0  0  0  0
    4.8910    2.4890   -1.0300 H   0  0  0  0  0  0  0  0  0  0  0  0
   -3.7810    2.1290   -2.1340 H   0  0  0  0  0  0  0  0  0  0  0  0
  1  2  1  0
  1 31  1  0
  1 30  1  0
  1 29  1  0
  2  3  2  0
  2  4  1  0
  4  5  1  0
  5  6  1  6
  5  7  1  0
  5 16  1  0
  7 28  1  0
  7  9  1  0
  7  8  1  1
  9 32  1  0
  9 10  2  0
 10 11  1  0
 10 14  1  0
 11 34  1  0
 11 12  1  0
 11 33  1  0
 12 36  1  0
 12 35  1  0
 13 12  1  0
 13 24  1  0
 13 14  1  0
 14 16  1  0
 14 15  1  1
 16 17  1  6
 16 18  1  0
 18 19  2  0
 18 23  1  0
 19 37  1  0
 19 20  1  0
 20 26  1  0
 20 21  2  0
 21 22  1  0
 21 25  1  0
 22 23  2  0
 22 38  1  0
 23 24  1  0
 24 40  1  0
 24 39  1  0
 25 41  1  0
 26 27  1  0
 27 42  1  0
 27 44  1  0
 27 43  1  0
 28 45  1  0
M  END
>  <id>  (550) 
654

>  <scaffolds>  (550) 
['c1ccccc1', 'C1=CCCCC1', 'C1CCNC1', 'C1=C2CCN3Cc4ccccc4C(CC1)C23']

>  <name>  (550) 
Sternbergine

>  <formula>  (550) 
C18H21NO5

>  <SMILES>  (550) 
CC(=O)O[C@@H]1[C@H](C=C2CCN3[C@H]2[C@@H]1c4cc(c(cc4C3)O)OC)O

>  <ChEMBL_id>  (550) 


>  <ZINC_id>  (550) 


>  <PubChem_id>  (550) 
 178814

>  <DrugBank_id>  (550) 


>  <CAS_no>  (550) 
96253-76-8

>  <references>  (550) 
[{'journal': {'name': 'Phytochemistry', 'id': 10}, 'title': 'Alkaloids from Brunsvigia josephinæ', 'year': 1994, 'start_page': 809, 'volume': 35, 'issue': 3, 'doi': '10.1016/S0031-9422(00)90611-3', 'isbn': '', 'despositor': {'code': 'TMM', 'first_name': 'Thommas', 'last_name': 'Musyoka', 'id': 22}, 'refauthors_set': [{'author': {'first_name': 'Frances', 'initials': 'F', 'last_name': 'Viladomat', 'id': 808}, 'first_author': True, 'id': 1277}, {'author': {'first_name': 'Jaume', 'initials': 'J', 'last_name': 'Bastida', 'id': 810}, 'first_author': False, 'id': 1278}, {'author': {'first_name': 'Carles', 'initials': 'C', 'last_name': 'Codina', 'id': 809}, 'first_author': False, 'id': 1279}, {'author': {'first_name': 'William', 'initials': 'WE', 'last_name': 'Campbell', 'id': 621}, 'first_author': None, 'id': 1280}, {'author': {'first_name': '', 'initials': 'S', 'last_name': 'Mathee', 'id': 800}, 'first_author': None, 'id': 1281}], 'id': 370}]

>  <classifications>  (550) 
[{'classification': 'Alkaloid', 'id': 738}, {'classification': 'Amaryllidaceae', 'id': 741}, {'classification': 'Quinolines and derivatives (Classyfire)', 'id': 948}]

>  <molecular_mass>  (550) 
331.36

$$$$
SANC00655_minRM1.pdb
     RDKit          3D

 29 33  0  0  0  0  0  0  0  0999 V2000
   -2.7740   -2.7110   -0.0000 C   0  0  0  0  0  0  0  0  0  0  0  0
   -3.7830   -1.7530    0.0210 C   0  0  0  0  0  0  0  0  0  0  0  0
   -3.4190   -0.4140    0.0250 C   0  0  0  0  0  0  0  0  0  0  0  0
   -4.1100    0.8560    0.0500 C   0  0  0  0  0  0  0  0  0  0  0  0
   -3.1710    1.8590    0.0300 C   0  0  0  0  0  0  0  0  0  0  0  0
   -1.8750    1.2750    0.0120 N   0  0  0  0  0  0  0  0  0  0  0  0
   -2.0410   -0.1110   -0.0050 C   0  0  0  0  0  0  0  0  0  0  0  0
   -1.0120   -1.0460   -0.0520 C   0  0  0  0  0  0  0  0  0  0  0  0
   -1.4140   -2.3780   -0.0330 C   0  0  0  0  0  0  0  0  0  0  0  0
    0.3350   -0.5150   -0.0820 C   0  0  0  0  0  0  0  0  0  0  0  0
    1.4290   -1.4050   -0.0750 C   0  0  0  0  0  0  0  0  0  0  0  0
    2.6710   -0.8350    0.0080 C   0  0  0  0  0  0  0  0  0  0  0  0
    2.8630    0.5630    0.0210 C   0  0  0  0  0  0  0  0  0  0  0  0
    1.8230    1.4460   -0.0580 C   0  0  0  0  0  0  0  0  0  0  0  0
    0.5310    0.8760   -0.0740 C   0  0  0  0  0  0  0  0  0  0  0  0
   -0.5830    1.8470   -0.0310 C   0  0  0  0  0  0  0  0  0  0  0  0
   -0.4710    3.0630   -0.0120 O   0  0  0  0  0  0  0  0  0  0  0  0
    4.2010    0.8380    0.1380 O   0  0  0  0  0  0  0  0  0  0  0  0
    4.8480   -0.4200    0.3160 C   0  0  0  0  0  0  0  0  0  0  0  0
    3.8840   -1.4540    0.1140 O   0  0  0  0  0  0  0  0  0  0  0  0
   -3.0520   -3.7690    0.0230 H   0  0  0  0  0  0  0  0  0  0  0  0
   -4.8370   -2.0410    0.0490 H   0  0  0  0  0  0  0  0  0  0  0  0
   -5.1850    0.9780    0.0600 H   0  0  0  0  0  0  0  0  0  0  0  0
   -3.2940    2.9410    0.0360 H   0  0  0  0  0  0  0  0  0  0  0  0
   -0.6700   -3.1800   -0.0160 H   0  0  0  0  0  0  0  0  0  0  0  0
    1.2980   -2.4880   -0.1140 H   0  0  0  0  0  0  0  0  0  0  0  0
    1.9850    2.5280   -0.0940 H   0  0  0  0  0  0  0  0  0  0  0  0
    5.6660   -0.5230   -0.4300 H   0  0  0  0  0  0  0  0  0  0  0  0
    5.2570   -0.4910    1.3490 H   0  0  0  0  0  0  0  0  0  0  0  0
  1  9  2  0
  1  2  1  0
  1 21  1  0
  2  3  2  0
  2 22  1  0
  3  7  1  0
  3  4  1  0
  4  5  2  0
  4 23  1  0
  5  6  1  0
  5 24  1  0
  6 16  1  0
  6  7  1  0
  7  8  2  0
  8 10  1  0
  8  9  1  0
  9 25  1  0
 10 11  2  0
 10 15  1  0
 11 26  1  0
 11 12  1  0
 12 13  2  0
 12 20  1  0
 13 14  1  0
 13 18  1  0
 14 27  1  0
 14 15  2  0
 15 16  1  0
 16 17  2  0
 18 19  1  0
 19 28  1  0
 19 20  1  0
 19 29  1  0
M  END
>  <id>  (551) 
655

>  <scaffolds>  (551) 
['c1ccccc1', 'c1ccc2[nH]ccc2c1', 'O=c1c2cc3c(cc2c2cccc4ccn1c42)OCO3', 'c1ccc2c(c1)ncc1cc3c(cc12)OCO3', 'c1ccc2c(c1)OCO2']

>  <name>  (551) 
Hippadine

>  <formula>  (551) 
C16H9NO3

>  <SMILES>  (551) 
c1cc2ccn3c2c(c1)c4cc5c(cc4c3=O)OCO5

>  <ChEMBL_id>  (551) 
CHEMBL1922244

>  <ZINC_id>  (551) 


>  <PubChem_id>  (551) 
 100605

>  <DrugBank_id>  (551) 


>  <CAS_no>  (551) 
52886-06-3

>  <references>  (551) 
[{'journal': {'name': 'Phytochemistry', 'id': 10}, 'title': 'Further alkaloids from Brunsvigia josephinae', 'year': 1995, 'start_page': 961, 'volume': 40, 'issue': 3, 'doi': '10.1016/0031-9422(95)00375-H', 'isbn': '', 'despositor': {'code': 'TMM', 'first_name': 'Thommas', 'last_name': 'Musyoka', 'id': 22}, 'refauthors_set': [{'author': {'first_name': 'Frances', 'initials': 'F', 'last_name': 'Viladomat', 'id': 808}, 'first_author': True, 'id': 1338}, {'author': {'first_name': 'Carles', 'initials': 'C', 'last_name': 'Codina', 'id': 809}, 'first_author': None, 'id': 1339}, {'author': {'first_name': 'Jaume', 'initials': 'J', 'last_name': 'Bastida', 'id': 810}, 'first_author': None, 'id': 1340}, {'author': {'first_name': '', 'initials': 'S', 'last_name': 'Mathee', 'id': 800}, 'first_author': None, 'id': 1341}, {'author': {'first_name': 'William', 'initials': 'WE', 'last_name': 'Campbell', 'id': 621}, 'first_author': None, 'id': 1342}], 'id': 385}]

>  <classifications>  (551) 
[{'classification': 'Alkaloid', 'id': 738}, {'classification': 'Amaryllidaceae', 'id': 741}, {'classification': 'Quinolines and derivatives (Classyfire)', 'id': 948}]

>  <molecular_mass>  (551) 
263.25

$$$$
SANC00656_minRM1.pdb
     RDKit          3D

 45 46  0  0  0  0  0  0  0  0999 V2000
   -8.2660   -1.0180   -0.4310 C   0  0  0  0  0  0  0  0  0  0  0  0
   -7.5330    0.1720   -0.3020 O   0  0  0  0  0  0  0  0  0  0  0  0
   -6.2110    0.0640    0.0200 C   0  0  0  0  0  0  0  0  0  0  0  0
   -5.5310   -1.1290    0.2440 C   0  0  0  0  0  0  0  0  0  0  0  0
   -4.1770   -1.0790    0.5630 C   0  0  0  0  0  0  0  0  0  0  0  0
   -3.5170    0.1370    0.6690 C   0  0  0  0  0  0  0  0  0  0  0  0
   -4.2130    1.3250    0.4410 C   0  0  0  0  0  0  0  0  0  0  0  0
   -5.5570    1.3010    0.1150 C   0  0  0  0  0  0  0  0  0  0  0  0
   -2.0630    0.1840    1.0040 C   0  0  0  0  0  0  0  0  0  0  0  0
   -1.2670    0.3170   -0.3050 C   0  0  0  0  0  0  0  0  0  0  0  0
    0.1770    0.1900   -0.0210 N   0  0  0  0  0  0  0  0  0  0  0  0
    1.0090    0.3810   -1.2300 C   0  0  0  0  0  0  0  0  0  0  0  0
    2.4480    0.4260   -0.8060 C   0  0  0  0  0  0  0  0  0  0  0  0
    3.1430    1.6220   -0.7990 C   0  0  0  0  0  0  0  0  0  0  0  0
    4.4810    1.6630   -0.4030 C   0  0  0  0  0  0  0  0  0  0  0  0
    5.1110    0.4900   -0.0210 C   0  0  0  0  0  0  0  0  0  0  0  0
    4.3950   -0.7330   -0.0220 C   0  0  0  0  0  0  0  0  0  0  0  0
    3.0650   -0.7630   -0.4040 C   0  0  0  0  0  0  0  0  0  0  0  0
    5.1400   -1.7980    0.3890 O   0  0  0  0  0  0  0  0  0  0  0  0
    4.5350   -3.0630    0.2960 C   0  0  0  0  0  0  0  0  0  0  0  0
    6.4110    0.3630    0.3670 O   0  0  0  0  0  0  0  0  0  0  0  0
    7.1470    1.5510    0.5130 C   0  0  0  0  0  0  0  0  0  0  0  0
   -9.2790   -0.6670   -0.6850 H   0  0  0  0  0  0  0  0  0  0  0  0
   -7.8980   -1.6740   -1.2360 H   0  0  0  0  0  0  0  0  0  0  0  0
   -8.3280   -1.5950    0.5060 H   0  0  0  0  0  0  0  0  0  0  0  0
   -6.0190   -2.1040    0.1810 H   0  0  0  0  0  0  0  0  0  0  0  0
   -3.6360   -2.0160    0.7310 H   0  0  0  0  0  0  0  0  0  0  0  0
   -3.6950    2.2860    0.5220 H   0  0  0  0  0  0  0  0  0  0  0  0
   -6.1060    2.2290   -0.0660 H   0  0  0  0  0  0  0  0  0  0  0  0
   -1.8460    1.0290    1.6930 H   0  0  0  0  0  0  0  0  0  0  0  0
   -1.7470   -0.7210    1.5690 H   0  0  0  0  0  0  0  0  0  0  0  0
   -1.5580   -0.4920   -1.0190 H   0  0  0  0  0  0  0  0  0  0  0  0
   -1.5570    1.2670   -0.8250 H   0  0  0  0  0  0  0  0  0  0  0  0
    0.4640    0.8440    0.7210 H   0  0  0  0  0  0  0  0  0  0  0  0
    0.8300   -0.4760   -1.9230 H   0  0  0  0  0  0  0  0  0  0  0  0
    0.7440    1.2820   -1.8410 H   0  0  0  0  0  0  0  0  0  0  0  0
    2.6560    2.5530   -1.1060 H   0  0  0  0  0  0  0  0  0  0  0  0
    4.9980    2.6260   -0.4080 H   0  0  0  0  0  0  0  0  0  0  0  0
    2.4740   -1.6840   -0.3910 H   0  0  0  0  0  0  0  0  0  0  0  0
    5.3320   -3.7520    0.6120 H   0  0  0  0  0  0  0  0  0  0  0  0
    3.6780   -3.1870    0.9790 H   0  0  0  0  0  0  0  0  0  0  0  0
    4.2220   -3.3300   -0.7260 H   0  0  0  0  0  0  0  0  0  0  0  0
    8.1230    1.1990    0.8810 H   0  0  0  0  0  0  0  0  0  0  0  0
    7.3020    2.0890   -0.4360 H   0  0  0  0  0  0  0  0  0  0  0  0
    6.7160    2.2440    1.2550 H   0  0  0  0  0  0  0  0  0  0  0  0
  1 24  1  0
  1 23  1  0
  1  2  1  0
  1 25  1  0
  2  3  1  0
  3  8  2  0
  3  4  1  0
  4 26  1  0
  4  5  2  0
  5  6  1  0
  5 27  1  0
  6  7  2  0
  6  9  1  0
  7  8  1  0
  7 28  1  0
  8 29  1  0
  9 10  1  0
  9 31  1  0
  9 30  1  0
 10 32  1  0
 10 33  1  0
 10 11  1  0
 11 12  1  0
 11 34  1  0
 12 35  1  0
 12 36  1  0
 12 13  1  0
 13 14  2  0
 13 18  1  0
 14 37  1  0
 14 15  1  0
 15 38  1  0
 15 16  2  0
 16 17  1  0
 16 21  1  0
 17 18  2  0
 17 19  1  0
 18 39  1  0
 19 20  1  0
 20 42  1  0
 20 40  1  0
 20 41  1  0
 21 22  1  0
 22 44  1  0
 22 43  1  0
 22 45  1  0
M  END
>  <id>  (552) 
656

>  <scaffolds>  (552) 
['c1ccccc1', 'c1ccc(CCNCc2ccccc2)cc1']

>  <name>  (552) 
N-Demethylbelladine

>  <formula>  (552) 
C18H23NO3

>  <SMILES>  (552) 
COc1ccc(cc1)CCNCc2ccc(c(c2)OC)OC

>  <ChEMBL_id>  (552) 


>  <ZINC_id>  (552) 
ZINC02902069

>  <PubChem_id>  (552) 
 2250212

>  <DrugBank_id>  (552) 


>  <CAS_no>  (552) 
40172-00-7

>  <references>  (552) 
[{'journal': {'name': 'Phytochemistry', 'id': 10}, 'title': 'Alkaloids from Nerine filifolia', 'year': 2005, 'start_page': 373, 'volume': 66, 'issue': 3, 'doi': '10.1016/j.phytochem.2004.12.009', 'isbn': '', 'despositor': {'code': 'TMM', 'first_name': 'Thommas', 'last_name': 'Musyoka', 'id': 22}, 'refauthors_set': [{'author': {'first_name': 'Jerald', 'initials': 'JJ', 'last_name': 'Nair', 'id': 620}, 'first_author': True, 'id': 1343}, {'author': {'first_name': 'William', 'initials': 'WE', 'last_name': 'Campbell', 'id': 621}, 'first_author': None, 'id': 1344}, {'author': {'first_name': '', 'initials': 'R', 'last_name': 'Brun', 'id': 825}, 'first_author': None, 'id': 1345}, {'author': {'first_name': 'Frances', 'initials': 'F', 'last_name': 'Viladomat', 'id': 808}, 'first_author': None, 'id': 1346}, {'author': {'first_name': 'Carles', 'initials': 'C', 'last_name': 'Codina', 'id': 809}, 'first_author': None, 'id': 1347}, {'author': {'first_name': 'Jaume', 'initials': 'J', 'last_name': 'Bastida', 'id': 810}, 'first_author': None, 'id': 1348}], 'id': 386}]

>  <classifications>  (552) 
[{'classification': 'Alkaloid', 'id': 738}, {'classification': 'Amaryllidaceae', 'id': 741}, {'classification': 'Amaryllidaceae alkaloids (Classyfire)', 'id': 971}]

>  <molecular_mass>  (552) 
301.38

$$$$
SANC00657_minRM1.pdb
     RDKit          3D

 38 39  0  0  1  0  0  0  0  0999 V2000
    0.0090    0.2020    1.2610 H   0  0  0  0  0  0  0  0  0  0  0  0
   -0.6130   -0.5480   -1.5940 H   0  0  0  0  0  0  0  0  0  0  0  0
   -1.5220   -3.2150   -1.1650 C   0  0  0  0  0  0  0  0  0  0  0  0
    3.7380   -1.6930    0.7370 O   0  0  0  0  0  0  0  0  0  0  0  0
   -2.9830   -2.5510    1.4000 O   0  0  0  0  0  0  0  0  0  0  0  0
   -2.3300    3.3400   -1.4760 O   0  0  0  0  0  0  0  0  0  0  0  0
    1.2570   -2.4930   -1.2740 O   0  0  0  0  0  0  0  0  0  0  0  0
    3.7490   -0.4840    0.8630 C   0  0  0  0  0  0  0  0  0  0  0  0
    2.5560    1.6340    0.6420 C   0  0  0  0  0  0  0  0  0  0  0  0
   -1.4630    1.2220    0.0120 C   0  0  0  0  0  0  0  0  0  0  0  0
   -1.5470    3.6800   -0.3690 C   0  0  0  0  0  0  0  0  0  0  0  0
    1.5610    2.5770    0.0590 C   0  0  0  0  0  0  0  0  0  0  0  0
    0.3260    2.6590    0.9710 C   0  0  0  0  0  0  0  0  0  0  0  0
    1.9720   -0.2310   -0.9090 C   0  0  0  0  0  0  0  0  0  0  0  0
   -1.8160   -0.6710    1.3580 O   0  0  0  0  0  0  0  0  0  0  0  0
    2.7270    0.3780    0.2220 C   0  0  0  0  0  0  0  0  0  0  0  0
   -2.1440   -1.8870    0.8240 C   0  0  0  0  0  0  0  0  0  0  0  0
   -1.3610   -2.1530   -0.3940 C   0  0  0  0  0  0  0  0  0  0  0  0
   -0.9250    2.4300    0.1850 C   0  0  0  0  0  0  0  0  0  0  0  0
    1.0540   -1.3910   -0.4390 C   0  0  1  0  0  0  0  0  0  0  0  0
   -0.8380   -0.0250    0.5600 C   0  0  1  0  0  0  0  0  0  0  0  0
   -0.4330   -1.0000   -0.5880 C   0  0  2  0  0  0  0  0  0  0  0  0
   -2.2420   -4.0000   -0.9450 H   0  0  0  0  0  0  0  0  0  0  0  0
   -0.9510   -3.3900   -2.0700 H   0  0  0  0  0  0  0  0  0  0  0  0
   -2.9770    4.0450   -1.5900 H   0  0  0  0  0  0  0  0  0  0  0  0
    2.0880   -2.9020   -1.0050 H   0  0  0  0  0  0  0  0  0  0  0  0
    4.5290    0.0280    1.4600 H   0  0  0  0  0  0  0  0  0  0  0  0
    3.1470    2.0390    1.4750 H   0  0  0  0  0  0  0  0  0  0  0  0
   -2.4010    1.0710   -0.5350 H   0  0  0  0  0  0  0  0  0  0  0  0
   -0.7580    4.4120   -0.6740 H   0  0  0  0  0  0  0  0  0  0  0  0
   -2.1250    4.1820    0.4410 H   0  0  0  0  0  0  0  0  0  0  0  0
    2.0220    3.5800   -0.0700 H   0  0  0  0  0  0  0  0  0  0  0  0
    1.2810    2.2780   -0.9770 H   0  0  0  0  0  0  0  0  0  0  0  0
    0.3920    1.9260    1.8100 H   0  0  0  0  0  0  0  0  0  0  0  0
    0.2890    3.6400    1.4910 H   0  0  0  0  0  0  0  0  0  0  0  0
    1.3930    0.5450   -1.4600 H   0  0  0  0  0  0  0  0  0  0  0  0
    2.7040   -0.5840   -1.6730 H   0  0  0  0  0  0  0  0  0  0  0  0
    1.2490   -1.6670    0.6340 H   0  0  0  0  0  0  0  0  0  0  0  0
  3 24  1  0
  3 23  1  0
  3 18  2  0
  4  8  2  0
  5 17  2  0
  6 25  1  0
  6 11  1  0
  7 26  1  0
  7 20  1  0
  8 16  1  0
  8 27  1  0
  9 12  1  0
  9 16  2  0
  9 28  1  0
 10 29  1  0
 10 19  2  0
 10 21  1  0
 11 30  1  0
 11 19  1  0
 11 31  1  0
 12 33  1  0
 12 32  1  0
 12 13  1  0
 13 19  1  0
 13 35  1  0
 13 34  1  0
 14 37  1  0
 14 36  1  0
 14 20  1  0
 14 16  1  0
 15 21  1  0
 15 17  1  0
 17 18  1  0
 18 22  1  0
 20 22  1  0
 20 38  1  1
 21  1  1  1
 21 22  1  0
 22  2  1  6
M  END
>  <id>  (553) 
657

>  <scaffolds>  (553) 
['C=C1C(=O)OC2C=CCCC=CCCC12', 'O=C1CCCO1', 'O=C1CC2CCC=CCCC=CC2O1']

>  <name>  (553) 
Urospermal A

>  <formula>  (553) 
C15H18O5

>  <SMILES>  (553) 
[H][C@@]12C=C(CO)CCC=C(C=O)C[C@H](O)[C@@]1([H])C(=C)C(=O)O2

>  <ChEMBL_id>  (553) 


>  <ZINC_id>  (553) 


>  <PubChem_id>  (553) 
 5385073

>  <DrugBank_id>  (553) 


>  <CAS_no>  (553) 
28400-14-8

>  <references>  (553) 
[{'journal': {'name': 'Phytochemistry', 'id': 10}, 'title': 'Germacranolides from Dicoma tomentosa', 'year': 1982, 'start_page': 2122, 'volume': 21, 'issue': 8, 'doi': '10.1016/0031-9422(82)83062-8', 'isbn': '', 'despositor': {'code': 'TMM', 'first_name': 'Thommas', 'last_name': 'Musyoka', 'id': 22}, 'refauthors_set': [{'author': {'first_name': '', 'initials': 'F', 'last_name': 'Bohlmann', 'id': 709}, 'first_author': True, 'id': 1349}, {'author': {'first_name': '', 'initials': 'P', 'last_name': 'Singh', 'id': 834}, 'first_author': None, 'id': 1350}, {'author': {'first_name': '', 'initials': 'J', 'last_name': 'Jakupovic', 'id': 703}, 'first_author': None, 'id': 1351}], 'id': 387}]

>  <classifications>  (553) 
[{'classification': 'Sesquiterpene', 'id': 828}, {'classification': 'Terpenoid', 'id': 839}, {'classification': 'Phenol lipids (Classyfire)', 'id': 951}]

>  <molecular_mass>  (553) 
278.3

$$$$
SANC00658_minRM1.pdb
     RDKit          3D

 40 41  0  0  1  0  0  0  0  0999 V2000
   -3.7750    1.2000    0.7880 C   0  0  0  0  0  0  0  0  0  0  0  0
   -2.8340    0.4440   -0.1290 C   0  0  2  0  0  0  0  0  0  0  0  0
   -2.9050    0.8480   -1.1690 H   0  0  0  0  0  0  0  0  0  0  0  0
   -3.1820   -1.0330   -0.1280 C   0  0  0  0  0  0  0  0  0  0  0  0
   -4.2500   -1.5960   -0.1730 O   0  0  0  0  0  0  0  0  0  0  0  0
   -2.0580   -1.8200   -0.0440 O   0  0  0  0  0  0  0  0  0  0  0  0
   -0.9210   -0.9830   -0.1620 C   0  0  2  0  0  0  0  0  0  0  0  0
    0.2020   -1.4870    0.6770 C   0  0  0  0  0  0  0  0  0  0  0  0
    1.4180   -1.7100    0.1750 C   0  0  0  0  0  0  0  0  0  0  0  0
    1.7220   -1.7860   -1.2950 C   0  0  0  0  0  0  0  0  0  0  0  0
    2.4230   -2.9530   -1.5960 O   0  0  0  0  0  0  0  0  0  0  0  0
    2.5960   -1.7790    1.0890 C   0  0  0  0  0  0  0  0  0  0  0  0
    2.8330   -0.3560    1.6190 C   0  0  0  0  0  0  0  0  0  0  0  0
    2.9930    0.5910    0.4780 C   0  0  0  0  0  0  0  0  0  0  0  0
    2.0770    1.4900    0.0980 C   0  0  0  0  0  0  0  0  0  0  0  0
    2.3760    2.3900   -1.0380 C   0  0  0  0  0  0  0  0  0  0  0  0
    1.6080    3.2710   -1.3810 O   0  0  0  0  0  0  0  0  0  0  0  0
    0.7730    1.7030    0.7870 C   0  0  0  0  0  0  0  0  0  0  0  0
   -0.4480    1.5270   -0.1610 C   0  0  2  0  0  0  0  0  0  0  0  0
   -0.1070    1.2890   -1.2060 H   0  0  0  0  0  0  0  0  0  0  0  0
   -1.2290    2.6850   -0.1520 O   0  0  0  0  0  0  0  0  0  0  0  0
   -1.3760    0.4120    0.3540 C   0  0  1  0  0  0  0  0  0  0  0  0
   -3.5170    2.2670    0.8470 H   0  0  0  0  0  0  0  0  0  0  0  0
   -4.8150    1.1390    0.4330 H   0  0  0  0  0  0  0  0  0  0  0  0
   -3.7700    0.8120    1.8170 H   0  0  0  0  0  0  0  0  0  0  0  0
   -0.6520   -0.9570   -1.2560 H   0  0  0  0  0  0  0  0  0  0  0  0
   -0.0020   -1.5780    1.7490 H   0  0  0  0  0  0  0  0  0  0  0  0
    0.8010   -1.6800   -1.9220 H   0  0  0  0  0  0  0  0  0  0  0  0
    2.4010   -0.9630   -1.6120 H   0  0  0  0  0  0  0  0  0  0  0  0
    1.8660   -3.7010   -1.3590 H   0  0  0  0  0  0  0  0  0  0  0  0
    2.4240   -2.4840    1.9290 H   0  0  0  0  0  0  0  0  0  0  0  0
    3.5040   -2.1680    0.5820 H   0  0  0  0  0  0  0  0  0  0  0  0
    2.0010   -0.0490    2.2930 H   0  0  0  0  0  0  0  0  0  0  0  0
    3.7380   -0.3260    2.2630 H   0  0  0  0  0  0  0  0  0  0  0  0
    3.9470    0.4950   -0.0590 H   0  0  0  0  0  0  0  0  0  0  0  0
    3.3380    2.2340   -1.5650 H   0  0  0  0  0  0  0  0  0  0  0  0
    0.6950    1.0340    1.6740 H   0  0  0  0  0  0  0  0  0  0  0  0
    0.7800    2.7210    1.2380 H   0  0  0  0  0  0  0  0  0  0  0  0
   -0.7280    3.3850   -0.5850 H   0  0  0  0  0  0  0  0  0  0  0  0
   -1.3820    0.4330    1.4740 H   0  0  0  0  0  0  0  0  0  0  0  0
  1  2  1  0
  1 24  1  0
  1 23  1  0
  1 25  1  0
  2  3  1  6
  2  4  1  0
  2 22  1  0
  4  5  2  0
  4  6  1  0
  6  7  1  0
  7 26  1  6
  7 22  1  0
  7  8  1  0
  8  9  2  0
  8 27  1  0
  9 10  1  0
  9 12  1  0
 10 28  1  0
 10 29  1  0
 10 11  1  0
 11 30  1  0
 12 32  1  0
 12 13  1  0
 12 31  1  0
 13 14  1  0
 13 34  1  0
 13 33  1  0
 14 35  1  0
 14 15  2  0
 15 16  1  0
 15 18  1  0
 16 36  1  0
 16 17  2  0
 18 19  1  0
 18 38  1  0
 18 37  1  0
 19 20  1  6
 19 21  1  0
 19 22  1  0
 21 39  1  0
 22 40  1  1
M  END
>  <id>  (554) 
658

>  <scaffolds>  (554) 
['O=C1CCCO1', 'O=C1CC2CCC=CCCC=CC2O1']

>  <name>  (554) 
Cyclodeca[b]furan-6-carboxaldehyde, 2,3,3a,4,5,8,9,11a-octahydro-4-hydroxy-10-(hydroxymethyl)-3-methyl-2-oxo-, (3S,3aR,4S,6E,10Z,11aR)-

>  <formula>  (554) 
C15H20O5

>  <SMILES>  (554) 
C[C@@H]1C(=O)OC2C=C(CO)CCC=C(C=O)C[C@H](O)C12

>  <ChEMBL_id>  (554) 


>  <ZINC_id>  (554) 


>  <PubChem_id>  (554) 


>  <DrugBank_id>  (554) 


>  <CAS_no>  (554) 
84807-49-8

>  <references>  (554) 
[{'journal': {'name': 'Phytochemistry', 'id': 10}, 'title': 'Germacranolides from Dicoma tomentosa', 'year': 1982, 'start_page': 2122, 'volume': 21, 'issue': 8, 'doi': '10.1016/0031-9422(82)83062-8', 'isbn': '', 'despositor': {'code': 'TMM', 'first_name': 'Thommas', 'last_name': 'Musyoka', 'id': 22}, 'refauthors_set': [{'author': {'first_name': '', 'initials': 'F', 'last_name': 'Bohlmann', 'id': 709}, 'first_author': True, 'id': 1349}, {'author': {'first_name': '', 'initials': 'P', 'last_name': 'Singh', 'id': 834}, 'first_author': None, 'id': 1350}, {'author': {'first_name': '', 'initials': 'J', 'last_name': 'Jakupovic', 'id': 703}, 'first_author': None, 'id': 1351}], 'id': 387}]

>  <classifications>  (554) 
[{'classification': 'Sesquiterpene', 'id': 828}, {'classification': 'Terpenoid', 'id': 839}, {'classification': 'Phenol lipids (Classyfire)', 'id': 951}]

>  <molecular_mass>  (554) 
280.32

$$$$
SANC00659_minRM1.pdb
     RDKit          3D

 49 50  0  0  1  0  0  0  0  0999 V2000
   -0.5850   -0.8340    1.6130 H   0  0  0  0  0  0  0  0  0  0  0  0
   -1.2470   -1.1740    0.7700 C   0  0  2  0  0  0  0  0  0  0  0  0
   -2.1230   -0.0400    0.3330 C   0  0  0  0  0  0  0  0  0  0  0  0
   -1.6850    1.1320   -0.1290 C   0  0  0  0  0  0  0  0  0  0  0  0
   -2.6040    2.2730   -0.4720 C   0  0  0  0  0  0  0  0  0  0  0  0
   -3.9150    1.9490   -0.0490 O   0  0  0  0  0  0  0  0  0  0  0  0
   -4.8910    2.8660   -0.2780 C   0  0  0  0  0  0  0  0  0  0  0  0
   -6.2140    2.3940    0.2290 C   0  0  0  0  0  0  0  0  0  0  0  0
   -4.6330    3.9160   -0.8340 O   0  0  0  0  0  0  0  0  0  0  0  0
   -0.2560    1.4530   -0.4360 C   0  0  0  0  0  0  0  0  0  0  0  0
    0.6600    1.3250    0.7760 C   0  0  0  0  0  0  0  0  0  0  0  0
    2.0970    1.1380    0.4250 C   0  0  0  0  0  0  0  0  0  0  0  0
    2.6120    0.1580   -0.3190 C   0  0  0  0  0  0  0  0  0  0  0  0
    4.0880   -0.0020   -0.5590 C   0  0  0  0  0  0  0  0  0  0  0  0
    4.7900    0.9080    0.2690 O   0  0  0  0  0  0  0  0  0  0  0  0
    6.1440    0.9210    0.1700 C   0  0  0  0  0  0  0  0  0  0  0  0
    6.7510    1.9260    1.0940 C   0  0  0  0  0  0  0  0  0  0  0  0
    6.7170    0.1700   -0.5990 O   0  0  0  0  0  0  0  0  0  0  0  0
    1.8120   -0.8690   -1.0580 C   0  0  0  0  0  0  0  0  0  0  0  0
    1.0670   -1.8400   -0.1350 C   0  0  0  0  0  0  0  0  0  0  0  0
   -0.4490   -1.8530   -0.3830 C   0  0  1  0  0  0  0  0  0  0  0  0
   -0.7040   -1.3750   -1.3600 H   0  0  0  0  0  0  0  0  0  0  0  0
   -0.9880   -3.2480   -0.3910 C   0  0  0  0  0  0  0  0  0  0  0  0
   -0.6770   -4.2380   -1.2140 C   0  0  0  0  0  0  0  0  0  0  0  0
   -1.9770   -3.3480    0.6940 C   0  0  0  0  0  0  0  0  0  0  0  0
   -2.6580   -4.2760    1.0680 O   0  0  0  0  0  0  0  0  0  0  0  0
   -2.0850   -2.1600    1.3590 O   0  0  0  0  0  0  0  0  0  0  0  0
   -3.1970   -0.2270    0.4730 H   0  0  0  0  0  0  0  0  0  0  0  0
   -2.2640    3.2100    0.0290 H   0  0  0  0  0  0  0  0  0  0  0  0
   -2.5840    2.4670   -1.5700 H   0  0  0  0  0  0  0  0  0  0  0  0
   -6.1800    2.1860    1.3100 H   0  0  0  0  0  0  0  0  0  0  0  0
   -6.9970    3.1460    0.0570 H   0  0  0  0  0  0  0  0  0  0  0  0
   -6.5260    1.4630   -0.2690 H   0  0  0  0  0  0  0  0  0  0  0  0
    0.0650    0.8130   -1.2860 H   0  0  0  0  0  0  0  0  0  0  0  0
   -0.1400    2.4780   -0.8560 H   0  0  0  0  0  0  0  0  0  0  0  0
    0.5370    2.2310    1.4110 H   0  0  0  0  0  0  0  0  0  0  0  0
    0.3600    0.5050    1.4640 H   0  0  0  0  0  0  0  0  0  0  0  0
    2.7520    1.8870    0.8890 H   0  0  0  0  0  0  0  0  0  0  0  0
    4.4090   -1.0470   -0.3320 H   0  0  0  0  0  0  0  0  0  0  0  0
    4.3260    0.1830   -1.6330 H   0  0  0  0  0  0  0  0  0  0  0  0
    6.6930    1.5800    2.1390 H   0  0  0  0  0  0  0  0  0  0  0  0
    7.8130    2.0950    0.8560 H   0  0  0  0  0  0  0  0  0  0  0  0
    6.2400    2.8990    1.0450 H   0  0  0  0  0  0  0  0  0  0  0  0
    1.1220   -0.3450   -1.7600 H   0  0  0  0  0  0  0  0  0  0  0  0
    2.4520   -1.4540   -1.7550 H   0  0  0  0  0  0  0  0  0  0  0  0
    1.4830   -2.8620   -0.2790 H   0  0  0  0  0  0  0  0  0  0  0  0
    1.3010   -1.6330    0.9300 H   0  0  0  0  0  0  0  0  0  0  0  0
    0.0500   -4.1410   -2.0140 H   0  0  0  0  0  0  0  0  0  0  0  0
   -1.1330   -5.2240   -1.1490 H   0  0  0  0  0  0  0  0  0  0  0  0
  2  1  1  1
  2 21  1  0
  2  3  1  0
  2 27  1  0
  3  4  2  0
  3 28  1  0
  4  5  1  0
  4 10  1  0
  5 30  1  0
  5  6  1  0
  5 29  1  0
  6  7  1  0
  7  9  2  0
  7  8  1  0
  8 33  1  0
  8 32  1  0
  8 31  1  0
 10 34  1  0
 10 35  1  0
 10 11  1  0
 11 12  1  0
 11 36  1  0
 11 37  1  0
 12 13  2  0
 12 38  1  0
 13 19  1  0
 13 14  1  0
 14 40  1  0
 14 39  1  0
 14 15  1  0
 15 16  1  0
 16 18  2  0
 16 17  1  0
 17 42  1  0
 17 43  1  0
 17 41  1  0
 19 44  1  0
 19 45  1  0
 19 20  1  0
 20 21  1  0
 20 46  1  0
 20 47  1  0
 21 22  1  6
 21 23  1  0
 23 24  2  0
 23 25  1  0
 24 48  1  0
 24 49  1  0
 25 26  2  0
 25 27  1  0
M  END
>  <id>  (555) 
659

>  <scaffolds>  (555) 
['C=C1C(=O)OC2C=CCCC=CCCC12', 'O=C1CCCO1', 'O=C1CC2CCC=CCCC=CC2O1']

>  <name>  (555) 
Cyclodeca[b]furan-2(3H)-one, 6,10-bis[(acetyloxy)methyl]-3a,4,5,8,9,11a-hexahydro-3-methylene-, [3aS-(3aR*,6Z,10Z,11aS*)]- (9CI)

>  <formula>  (555) 
C19H24O6

>  <SMILES>  (555) 
[H][C@@]12C=C(COC(C)=O)CCC=C(COC(C)=O)CC[C@@]1([H])C(=C)C(=O)O2

>  <ChEMBL_id>  (555) 


>  <ZINC_id>  (555) 


>  <PubChem_id>  (555) 


>  <DrugBank_id>  (555) 


>  <CAS_no>  (555) 
84807-50-1

>  <references>  (555) 
[{'journal': {'name': 'Phytochemistry', 'id': 10}, 'title': 'Germacranolides from Dicoma tomentosa', 'year': 1982, 'start_page': 2122, 'volume': 21, 'issue': 8, 'doi': '10.1016/0031-9422(82)83062-8', 'isbn': '', 'despositor': {'code': 'TMM', 'first_name': 'Thommas', 'last_name': 'Musyoka', 'id': 22}, 'refauthors_set': [{'author': {'first_name': '', 'initials': 'F', 'last_name': 'Bohlmann', 'id': 709}, 'first_author': True, 'id': 1349}, {'author': {'first_name': '', 'initials': 'P', 'last_name': 'Singh', 'id': 834}, 'first_author': None, 'id': 1350}, {'author': {'first_name': '', 'initials': 'J', 'last_name': 'Jakupovic', 'id': 703}, 'first_author': None, 'id': 1351}], 'id': 387}]

>  <classifications>  (555) 
[{'classification': 'Sesquiterpene', 'id': 828}, {'classification': 'Terpenoid', 'id': 839}, {'classification': 'Phenol lipids (Classyfire)', 'id': 951}]

>  <molecular_mass>  (555) 
348.39

$$$$
SANC00660_minRM1.pdb
     RDKit          3D

 44 45  0  0  1  0  0  0  0  0999 V2000
   -1.3670    0.1090    1.5900 H   0  0  0  0  0  0  0  0  0  0  0  0
   -2.1010   -0.0650    0.7560 C   0  0  2  0  0  0  0  0  0  0  0  0
   -2.5840    1.2520    0.2300 C   0  0  0  0  0  0  0  0  0  0  0  0
   -1.8110    2.1960   -0.3080 C   0  0  0  0  0  0  0  0  0  0  0  0
   -2.3550    3.5330   -0.7420 C   0  0  0  0  0  0  0  0  0  0  0  0
   -3.7420    3.5580   -0.5630 O   0  0  0  0  0  0  0  0  0  0  0  0
   -0.3500    2.0570   -0.5970 C   0  0  0  0  0  0  0  0  0  0  0  0
    0.4830    1.7220    0.6360 C   0  0  0  0  0  0  0  0  0  0  0  0
    1.7920    1.0830    0.3210 C   0  0  0  0  0  0  0  0  0  0  0  0
    1.9770   -0.0540   -0.3530 C   0  0  0  0  0  0  0  0  0  0  0  0
    3.3300   -0.6800   -0.5530 C   0  0  0  0  0  0  0  0  0  0  0  0
    4.2740   -0.0040    0.2570 O   0  0  0  0  0  0  0  0  0  0  0  0
    5.5650   -0.4240    0.1910 C   0  0  0  0  0  0  0  0  0  0  0  0
    6.4480    0.3730    1.0940 C   0  0  0  0  0  0  0  0  0  0  0  0
    5.8790   -1.3480   -0.5360 O   0  0  0  0  0  0  0  0  0  0  0  0
    0.8960   -0.8260   -1.0420 C   0  0  0  0  0  0  0  0  0  0  0  0
   -0.1040   -1.4640   -0.0720 C   0  0  0  0  0  0  0  0  0  0  0  0
   -1.5530   -1.0280   -0.3390 C   0  0  1  0  0  0  0  0  0  0  0  0
   -1.6550   -0.5580   -1.3470 H   0  0  0  0  0  0  0  0  0  0  0  0
   -2.4930   -2.1890   -0.2700 C   0  0  0  0  0  0  0  0  0  0  0  0
   -2.5000   -3.2780   -1.0230 C   0  0  0  0  0  0  0  0  0  0  0  0
   -3.4640   -1.9090    0.8000 C   0  0  0  0  0  0  0  0  0  0  0  0
   -4.3950   -2.5600    1.2190 O   0  0  0  0  0  0  0  0  0  0  0  0
   -3.2010   -0.7070    1.3890 O   0  0  0  0  0  0  0  0  0  0  0  0
   -3.6630    1.4190    0.3650 H   0  0  0  0  0  0  0  0  0  0  0  0
   -1.8430    4.3380   -0.1580 H   0  0  0  0  0  0  0  0  0  0  0  0
   -2.0980    3.7160   -1.8160 H   0  0  0  0  0  0  0  0  0  0  0  0
   -4.0250    4.4670   -0.7020 H   0  0  0  0  0  0  0  0  0  0  0  0
   -0.2290    1.3100   -1.4120 H   0  0  0  0  0  0  0  0  0  0  0  0
    0.0720    2.9790   -1.0570 H   0  0  0  0  0  0  0  0  0  0  0  0
    0.6440    2.6560    1.2200 H   0  0  0  0  0  0  0  0  0  0  0  0
   -0.0550    1.0740    1.3630 H   0  0  0  0  0  0  0  0  0  0  0  0
    2.6470    1.6220    0.7490 H   0  0  0  0  0  0  0  0  0  0  0  0
    3.3030   -1.7630   -0.2800 H   0  0  0  0  0  0  0  0  0  0  0  0
    3.6240   -0.6260   -1.6280 H   0  0  0  0  0  0  0  0  0  0  0  0
    6.2600    0.1220    2.1490 H   0  0  0  0  0  0  0  0  0  0  0  0
    7.5110    0.1720    0.8880 H   0  0  0  0  0  0  0  0  0  0  0  0
    6.2860    1.4560    0.9830 H   0  0  0  0  0  0  0  0  0  0  0  0
    0.3960   -0.1580   -1.7810 H   0  0  0  0  0  0  0  0  0  0  0  0
    1.3220   -1.6180   -1.6970 H   0  0  0  0  0  0  0  0  0  0  0  0
   -0.0230   -2.5710   -0.1470 H   0  0  0  0  0  0  0  0  0  0  0  0
    0.1890   -1.2720    0.9810 H   0  0  0  0  0  0  0  0  0  0  0  0
   -1.7760   -3.4610   -1.8110 H   0  0  0  0  0  0  0  0  0  0  0  0
   -3.2360   -4.0700   -0.9080 H   0  0  0  0  0  0  0  0  0  0  0  0
  2  1  1  1
  2 18  1  0
  2  3  1  0
  2 24  1  0
  3  4  2  0
  3 25  1  0
  4  5  1  0
  4  7  1  0
  5 27  1  0
  5  6  1  0
  5 26  1  0
  6 28  1  0
  7 29  1  0
  7 30  1  0
  7  8  1  0
  8  9  1  0
  8 31  1  0
  8 32  1  0
  9 10  2  0
  9 33  1  0
 10 16  1  0
 10 11  1  0
 11 35  1  0
 11 34  1  0
 11 12  1  0
 12 13  1  0
 13 15  2  0
 13 14  1  0
 14 37  1  0
 14 38  1  0
 14 36  1  0
 16 39  1  0
 16 40  1  0
 16 17  1  0
 17 18  1  0
 17 41  1  0
 17 42  1  0
 18 19  1  6
 18 20  1  0
 20 21  2  0
 20 22  1  0
 21 43  1  0
 21 44  1  0
 22 23  2  0
 22 24  1  0
M  END
>  <id>  (556) 
660

>  <scaffolds>  (556) 
['C=C1C(=O)OC2C=CCCC=CCCC12', 'O=C1CCCO1', 'O=C1CC2CCC=CCCC=CC2O1']

>  <name>  (556) 
Cyclodeca[b]furan-2(3H)-one, 6-[(acetyloxy)methyl]-3a,4,5,8,9,11a-hexahydro-10-(hydroxymethyl)-3-methylene-, [3aS-(3aR*,6Z,10Z,11aS*)]- (9CI)

>  <formula>  (556) 
C17H22O5

>  <SMILES>  (556) 
[H][C@@]12C=C(CO)CCC=C(COC(C)=O)CC[C@@]1([H])C(=C)C(=O)O2

>  <ChEMBL_id>  (556) 


>  <ZINC_id>  (556) 


>  <PubChem_id>  (556) 


>  <DrugBank_id>  (556) 


>  <CAS_no>  (556) 
84807-51-2

>  <references>  (556) 
[{'journal': {'name': 'Phytochemistry', 'id': 10}, 'title': 'Germacranolides from Dicoma tomentosa', 'year': 1982, 'start_page': 2122, 'volume': 21, 'issue': 8, 'doi': '10.1016/0031-9422(82)83062-8', 'isbn': '', 'despositor': {'code': 'TMM', 'first_name': 'Thommas', 'last_name': 'Musyoka', 'id': 22}, 'refauthors_set': [{'author': {'first_name': '', 'initials': 'F', 'last_name': 'Bohlmann', 'id': 709}, 'first_author': True, 'id': 1349}, {'author': {'first_name': '', 'initials': 'P', 'last_name': 'Singh', 'id': 834}, 'first_author': None, 'id': 1350}, {'author': {'first_name': '', 'initials': 'J', 'last_name': 'Jakupovic', 'id': 703}, 'first_author': None, 'id': 1351}], 'id': 387}]

>  <classifications>  (556) 
[{'classification': 'Sesquiterpene', 'id': 828}, {'classification': 'Terpenoid', 'id': 839}, {'classification': 'Phenol lipids (Classyfire)', 'id': 951}]

>  <molecular_mass>  (556) 
306.35

$$$$
SANC00661_minRM1.pdb
     RDKit          3D

 42 43  0  0  1  0  0  0  0  0999 V2000
    0.4720   -0.5750    1.6690 H   0  0  0  0  0  0  0  0  0  0  0  0
    0.0780   -1.0740    0.7420 C   0  0  2  0  0  0  0  0  0  0  0  0
   -1.1710   -0.3830    0.2900 C   0  0  0  0  0  0  0  0  0  0  0  0
   -1.2500    0.9070   -0.0410 C   0  0  0  0  0  0  0  0  0  0  0  0
   -2.5450    1.5800   -0.4080 C   0  0  0  0  0  0  0  0  0  0  0  0
   -3.6130    0.7130   -0.0820 O   0  0  0  0  0  0  0  0  0  0  0  0
   -4.8730    1.1310   -0.3760 C   0  0  0  0  0  0  0  0  0  0  0  0
   -5.8930    0.1230    0.0280 C   0  0  0  0  0  0  0  0  0  0  0  0
   -5.0560    2.2130   -0.9020 O   0  0  0  0  0  0  0  0  0  0  0  0
   -0.0760    1.8260   -0.1660 C   0  0  0  0  0  0  0  0  0  0  0  0
    0.6900    1.9830    1.1440 C   0  0  0  0  0  0  0  0  0  0  0  0
    2.0980    2.4320    0.9640 C   0  0  0  0  0  0  0  0  0  0  0  0
    3.0410    1.8550    0.2120 C   0  0  0  0  0  0  0  0  0  0  0  0
    4.4040    2.4470    0.2490 C   0  0  0  0  0  0  0  0  0  0  0  0
    5.2150    2.2800   -0.6420 O   0  0  0  0  0  0  0  0  0  0  0  0
    2.8440    0.6850   -0.6910 C   0  0  0  0  0  0  0  0  0  0  0  0
    2.5090   -0.6090    0.0580 C   0  0  0  0  0  0  0  0  0  0  0  0
    1.1640   -1.2200   -0.3640 C   0  0  1  0  0  0  0  0  0  0  0  0
    0.7990   -0.7800   -1.3250 H   0  0  0  0  0  0  0  0  0  0  0  0
    1.2680   -2.7010   -0.5430 C   0  0  0  0  0  0  0  0  0  0  0  0
    2.0080   -3.3680   -1.4140 C   0  0  0  0  0  0  0  0  0  0  0  0
    0.3600   -3.3290    0.4290 C   0  0  0  0  0  0  0  0  0  0  0  0
    0.1250   -4.4930    0.6640 O   0  0  0  0  0  0  0  0  0  0  0  0
   -0.2830   -2.3800    1.1720 O   0  0  0  0  0  0  0  0  0  0  0  0
   -2.0660   -1.0210    0.3010 H   0  0  0  0  0  0  0  0  0  0  0  0
   -2.6580    2.5460    0.1380 H   0  0  0  0  0  0  0  0  0  0  0  0
   -2.5520    1.8220   -1.4970 H   0  0  0  0  0  0  0  0  0  0  0  0
   -5.9620    0.0510    1.1230 H   0  0  0  0  0  0  0  0  0  0  0  0
   -6.8870    0.3930   -0.3500 H   0  0  0  0  0  0  0  0  0  0  0  0
   -5.6520   -0.8830   -0.3430 H   0  0  0  0  0  0  0  0  0  0  0  0
    0.5670    1.4630   -0.9980 H   0  0  0  0  0  0  0  0  0  0  0  0
   -0.3750    2.8390   -0.5230 H   0  0  0  0  0  0  0  0  0  0  0  0
    0.1380    2.6930    1.8010 H   0  0  0  0  0  0  0  0  0  0  0  0
    0.7040    1.0490    1.7520 H   0  0  0  0  0  0  0  0  0  0  0  0
    2.3560    3.3190    1.5620 H   0  0  0  0  0  0  0  0  0  0  0  0
    4.6550    3.0500    1.1490 H   0  0  0  0  0  0  0  0  0  0  0  0
    2.0690    0.9480   -1.4490 H   0  0  0  0  0  0  0  0  0  0  0  0
    3.7430    0.5090   -1.3240 H   0  0  0  0  0  0  0  0  0  0  0  0
    3.3260   -1.3430   -0.1140 H   0  0  0  0  0  0  0  0  0  0  0  0
    2.5520   -0.4580    1.1560 H   0  0  0  0  0  0  0  0  0  0  0  0
    2.6680   -2.8860   -2.1290 H   0  0  0  0  0  0  0  0  0  0  0  0
    2.0100   -4.4530   -1.4790 H   0  0  0  0  0  0  0  0  0  0  0  0
  2  1  1  1
  2 18  1  0
  2  3  1  0
  2 24  1  0
  3  4  2  0
  3 25  1  0
  4  5  1  0
  4 10  1  0
  5 27  1  0
  5  6  1  0
  5 26  1  0
  6  7  1  0
  7  9  2  0
  7  8  1  0
  8 29  1  0
  8 30  1  0
  8 28  1  0
 10 31  1  0
 10 32  1  0
 10 11  1  0
 11 12  1  0
 11 34  1  0
 11 33  1  0
 12 13  2  0
 12 35  1  0
 13 16  1  0
 13 14  1  0
 14 15  2  0
 14 36  1  0
 16 37  1  0
 16 38  1  0
 16 17  1  0
 17 18  1  0
 17 39  1  0
 17 40  1  0
 18 19  1  6
 18 20  1  0
 20 21  2  0
 20 22  1  0
 21 41  1  0
 21 42  1  0
 22 23  2  0
 22 24  1  0
M  END
>  <id>  (557) 
661

>  <scaffolds>  (557) 
['C=C1C(=O)OC2C=CCCC=CCCC12', 'O=C1CCCO1', 'O=C1CC2CCC=CCCC=CC2O1']

>  <name>  (557) 
Cyclodeca[b]furan-6-carboxaldehyde, 10-[(acetyloxy)methyl]-2,3,3a,4,5,8,9,11a-octahydro-3-methylene-2-oxo-, [3aS-(3aR*,6Z,10Z,11aS*)]- (9CI)

>  <formula>  (557) 
C17H20O5

>  <SMILES>  (557) 
[H][C@@]12C=C(COC(C)=O)CCC=C(C=O)CC[C@@]1([H])C(=C)C(=O)O2

>  <ChEMBL_id>  (557) 


>  <ZINC_id>  (557) 


>  <PubChem_id>  (557) 


>  <DrugBank_id>  (557) 


>  <CAS_no>  (557) 
84807-52-3

>  <references>  (557) 
[{'journal': {'name': 'Phytochemistry', 'id': 10}, 'title': 'Germacranolides from Dicoma tomentosa', 'year': 1982, 'start_page': 2122, 'volume': 21, 'issue': 8, 'doi': '10.1016/0031-9422(82)83062-8', 'isbn': '', 'despositor': {'code': 'TMM', 'first_name': 'Thommas', 'last_name': 'Musyoka', 'id': 22}, 'refauthors_set': [{'author': {'first_name': '', 'initials': 'F', 'last_name': 'Bohlmann', 'id': 709}, 'first_author': True, 'id': 1349}, {'author': {'first_name': '', 'initials': 'P', 'last_name': 'Singh', 'id': 834}, 'first_author': None, 'id': 1350}, {'author': {'first_name': '', 'initials': 'J', 'last_name': 'Jakupovic', 'id': 703}, 'first_author': None, 'id': 1351}], 'id': 387}]

>  <classifications>  (557) 
[{'classification': 'Sesquiterpene', 'id': 828}, {'classification': 'Terpenoid', 'id': 839}, {'classification': 'Phenol lipids (Classyfire)', 'id': 951}]

>  <molecular_mass>  (557) 
304.34

$$$$
SANC00662_minRM1.pdb
     RDKit          3D

 37 38  0  0  1  0  0  0  0  0999 V2000
   -0.6070    0.0390    1.6160 H   0  0  0  0  0  0  0  0  0  0  0  0
   -1.1910   -0.1830    0.6810 C   0  0  2  0  0  0  0  0  0  0  0  0
   -1.7300    1.0940    0.1130 C   0  0  0  0  0  0  0  0  0  0  0  0
   -0.9880    2.1300   -0.2800 C   0  0  0  0  0  0  0  0  0  0  0  0
   -1.5920    3.4220   -0.7640 C   0  0  0  0  0  0  0  0  0  0  0  0
   -2.9850    3.3610   -0.6430 O   0  0  0  0  0  0  0  0  0  0  0  0
    0.5060    2.1360   -0.3520 C   0  0  0  0  0  0  0  0  0  0  0  0
    1.1700    1.8770    0.9970 C   0  0  0  0  0  0  0  0  0  0  0  0
    2.5610    1.3590    0.8830 C   0  0  0  0  0  0  0  0  0  0  0  0
    2.9650    0.2780    0.2080 C   0  0  0  0  0  0  0  0  0  0  0  0
    4.4070   -0.0750    0.2800 C   0  0  0  0  0  0  0  0  0  0  0  0
    4.9770   -0.6790   -0.6090 O   0  0  0  0  0  0  0  0  0  0  0  0
    2.1090   -0.5930   -0.6480 C   0  0  0  0  0  0  0  0  0  0  0  0
    1.0370   -1.3500    0.1450 C   0  0  0  0  0  0  0  0  0  0  0  0
   -0.3910   -1.0510   -0.3350 C   0  0  1  0  0  0  0  0  0  0  0  0
   -0.3880   -0.5620   -1.3400 H   0  0  0  0  0  0  0  0  0  0  0  0
   -1.2060   -2.3010   -0.4290 C   0  0  0  0  0  0  0  0  0  0  0  0
   -0.9920   -3.3570   -1.1980 C   0  0  0  0  0  0  0  0  0  0  0  0
   -2.3440   -2.1580    0.4930 C   0  0  0  0  0  0  0  0  0  0  0  0
   -3.2520   -2.9130    0.7620 O   0  0  0  0  0  0  0  0  0  0  0  0
   -2.2970   -0.9540    1.1360 O   0  0  0  0  0  0  0  0  0  0  0  0
   -2.8290    1.1450    0.0850 H   0  0  0  0  0  0  0  0  0  0  0  0
   -1.1720    4.2720   -0.1710 H   0  0  0  0  0  0  0  0  0  0  0  0
   -1.2860    3.6000   -1.8250 H   0  0  0  0  0  0  0  0  0  0  0  0
   -3.3300    4.2070   -0.9450 H   0  0  0  0  0  0  0  0  0  0  0  0
    0.8200    1.4070   -1.1310 H   0  0  0  0  0  0  0  0  0  0  0  0
    0.8990    3.0960   -0.7550 H   0  0  0  0  0  0  0  0  0  0  0  0
    1.1540    2.8180    1.5910 H   0  0  0  0  0  0  0  0  0  0  0  0
    0.5920    1.1730    1.6370 H   0  0  0  0  0  0  0  0  0  0  0  0
    3.2970    1.9410    1.4550 H   0  0  0  0  0  0  0  0  0  0  0  0
    4.9460    0.2430    1.1940 H   0  0  0  0  0  0  0  0  0  0  0  0
    1.6700    0.0300   -1.4620 H   0  0  0  0  0  0  0  0  0  0  0  0
    2.7230   -1.3260   -1.2160 H   0  0  0  0  0  0  0  0  0  0  0  0
    1.2410   -2.4410    0.0670 H   0  0  0  0  0  0  0  0  0  0  0  0
    1.1430   -1.1620    1.2340 H   0  0  0  0  0  0  0  0  0  0  0  0
   -0.1470   -3.4380   -1.8770 H   0  0  0  0  0  0  0  0  0  0  0  0
   -1.6490   -4.2230   -1.2090 H   0  0  0  0  0  0  0  0  0  0  0  0
  2  1  1  1
  2 15  1  0
  2  3  1  0
  2 21  1  0
  3  4  2  0
  3 22  1  0
  4  5  1  0
  4  7  1  0
  5 24  1  0
  5  6  1  0
  5 23  1  0
  6 25  1  0
  7 26  1  0
  7 27  1  0
  7  8  1  0
  8  9  1  0
  8 28  1  0
  8 29  1  0
  9 10  2  0
  9 30  1  0
 10 13  1  0
 10 11  1  0
 11 12  2  0
 11 31  1  0
 13 32  1  0
 13 33  1  0
 13 14  1  0
 14 15  1  0
 14 34  1  0
 14 35  1  0
 15 16  1  6
 15 17  1  0
 17 18  2  0
 17 19  1  0
 18 36  1  0
 18 37  1  0
 19 20  2  0
 19 21  1  0
M  END
>  <id>  (558) 
662

>  <scaffolds>  (558) 
['C=C1C(=O)OC2C=CCCC=CCCC12', 'O=C1CCCO1', 'O=C1CC2CCC=CCCC=CC2O1']

>  <name>  (558) 
Cyclodeca[b]furan-6-carboxaldehyde, 2,3,3a,4,5,8,9,11a-octahydro-10-(hydroxymethyl)-3-methylene-2-oxo-, [3aS-(3aR*,6E,10Z,11aS*)]- (9CI)

>  <formula>  (558) 
C15H18O4

>  <SMILES>  (558) 
[H][C@@]12C=C(CO)CCC=C(C=O)CC[C@@]1([H])C(=C)C(=O)O2

>  <ChEMBL_id>  (558) 


>  <ZINC_id>  (558) 


>  <PubChem_id>  (558) 


>  <DrugBank_id>  (558) 


>  <CAS_no>  (558) 
84807-53-4

>  <references>  (558) 
[{'journal': {'name': 'Phytochemistry', 'id': 10}, 'title': 'Germacranolides from Dicoma tomentosa', 'year': 1982, 'start_page': 2122, 'volume': 21, 'issue': 8, 'doi': '10.1016/0031-9422(82)83062-8', 'isbn': '', 'despositor': {'code': 'TMM', 'first_name': 'Thommas', 'last_name': 'Musyoka', 'id': 22}, 'refauthors_set': [{'author': {'first_name': '', 'initials': 'F', 'last_name': 'Bohlmann', 'id': 709}, 'first_author': True, 'id': 1349}, {'author': {'first_name': '', 'initials': 'P', 'last_name': 'Singh', 'id': 834}, 'first_author': None, 'id': 1350}, {'author': {'first_name': '', 'initials': 'J', 'last_name': 'Jakupovic', 'id': 703}, 'first_author': None, 'id': 1351}], 'id': 387}]

>  <classifications>  (558) 
[{'classification': 'Sesquiterpene', 'id': 828}, {'classification': 'Terpenoid', 'id': 839}, {'classification': 'Phenol lipids (Classyfire)', 'id': 951}]

>  <molecular_mass>  (558) 
262.3

$$$$
SANC00663_minRM1.pdb
     RDKit          3D

 53 56  0  0  1  0  0  0  0  0999 V2000
    0.8740   -0.8050   -1.4320 H   0  0  0  0  0  0  0  0  0  0  0  0
    0.9500   -0.6990   -0.3140 C   0  0  1  0  0  0  0  0  0  0  0  0
    0.2840   -1.9180    0.3250 C   0  0  0  0  0  0  0  0  0  0  0  0
   -1.1000   -2.1240   -0.2720 C   0  0  0  0  0  0  0  0  0  0  0  0
   -1.9730   -0.8950   -0.0920 C   0  0  1  0  0  0  0  0  0  0  0  0
   -2.5370   -0.7400    1.3010 C   0  0  0  0  0  0  0  0  0  0  0  0
   -3.7590   -0.2020    1.2440 C   0  0  0  0  0  0  0  0  0  0  0  0
   -4.1440    0.0410   -0.1960 C   0  0  1  0  0  0  0  0  0  0  0  0
   -5.6270   -0.1180   -0.4540 C   0  0  0  0  0  0  0  0  0  0  0  0
   -3.6310    1.4180   -0.6210 C   0  0  0  0  0  0  0  0  0  0  0  0
   -2.1620    1.6150   -0.2400 C   0  0  0  0  0  0  0  0  0  0  0  0
   -1.2750    0.3980   -0.5420 C   0  0  1  0  0  0  0  0  0  0  0  0
   -1.1560    0.3370   -1.6580 H   0  0  0  0  0  0  0  0  0  0  0  0
    0.1420    0.5570    0.0690 C   0  0  1  0  0  0  0  0  0  0  0  0
    0.0750    0.7690    1.5770 C   0  0  0  0  0  0  0  0  0  0  0  0
    0.8000    1.7960   -0.5550 C   0  0  0  0  0  0  0  0  0  0  0  0
    2.2660    1.8340   -0.2350 C   0  0  0  0  0  0  0  0  0  0  0  0
    2.8020    2.7930    0.2840 O   0  0  0  0  0  0  0  0  0  0  0  0
    3.0570    0.6110   -0.6690 C   0  0  1  0  0  0  0  0  0  0  0  0
    2.9740    0.5260   -1.7900 H   0  0  0  0  0  0  0  0  0  0  0  0
    4.3900    0.6980   -0.2780 O   0  0  0  0  0  0  0  0  0  0  0  0
    2.4630   -0.6460    0.0080 C   0  0  1  0  0  0  0  0  0  0  0  0
    2.7730   -0.6390    1.4980 C   0  0  0  0  0  0  0  0  0  0  0  0
    3.1040   -1.9030   -0.6380 C   0  0  0  0  0  0  0  0  0  0  0  0
    4.4810   -1.8370   -0.4180 O   0  0  0  0  0  0  0  0  0  0  0  0
   -3.2800   -1.0100   -0.9200 C   0  0  0  0  0  0  0  0  0  0  0  0
    0.9010   -2.8330    0.1830 H   0  0  0  0  0  0  0  0  0  0  0  0
    0.2110   -1.8040    1.4300 H   0  0  0  0  0  0  0  0  0  0  0  0
   -1.0240   -2.3810   -1.3510 H   0  0  0  0  0  0  0  0  0  0  0  0
   -1.5880   -3.0100    0.1870 H   0  0  0  0  0  0  0  0  0  0  0  0
   -1.9990   -1.0550    2.1880 H   0  0  0  0  0  0  0  0  0  0  0  0
   -4.4220    0.0490    2.0640 H   0  0  0  0  0  0  0  0  0  0  0  0
   -6.2230    0.6300    0.0880 H   0  0  0  0  0  0  0  0  0  0  0  0
   -5.8710   -0.0130   -1.5210 H   0  0  0  0  0  0  0  0  0  0  0  0
   -5.9960   -1.1040   -0.1370 H   0  0  0  0  0  0  0  0  0  0  0  0
   -3.7730    1.5530   -1.7140 H   0  0  0  0  0  0  0  0  0  0  0  0
   -4.2460    2.2200   -0.1630 H   0  0  0  0  0  0  0  0  0  0  0  0
   -1.7790    2.5130   -0.7700 H   0  0  0  0  0  0  0  0  0  0  0  0
   -2.0900    1.8840    0.8390 H   0  0  0  0  0  0  0  0  0  0  0  0
   -0.0650   -0.1700    2.1350 H   0  0  0  0  0  0  0  0  0  0  0  0
    0.9950    1.2210    1.9840 H   0  0  0  0  0  0  0  0  0  0  0  0
   -0.7500    1.4380    1.8700 H   0  0  0  0  0  0  0  0  0  0  0  0
    0.6860    1.8130   -1.6600 H   0  0  0  0  0  0  0  0  0  0  0  0
    0.3060    2.7280   -0.2070 H   0  0  0  0  0  0  0  0  0  0  0  0
    4.7430    1.5300   -0.6140 H   0  0  0  0  0  0  0  0  0  0  0  0
    2.4710    0.2990    1.9900 H   0  0  0  0  0  0  0  0  0  0  0  0
    2.2910   -1.4650    2.0380 H   0  0  0  0  0  0  0  0  0  0  0  0
    3.8510   -0.7380    1.7030 H   0  0  0  0  0  0  0  0  0  0  0  0
    2.6550   -2.8280   -0.1950 H   0  0  0  0  0  0  0  0  0  0  0  0
    2.8730   -1.9560   -1.7300 H   0  0  0  0  0  0  0  0  0  0  0  0
    4.8620   -2.6320   -0.8030 H   0  0  0  0  0  0  0  0  0  0  0  0
   -3.1560   -0.8260   -2.0010 H   0  0  0  0  0  0  0  0  0  0  0  0
   -3.7200   -2.0240   -0.8570 H   0  0  0  0  0  0  0  0  0  0  0  0
  2  1  1  6
  2 22  1  0
  2 14  1  0
  2  3  1  0
  3  4  1  0
  3 27  1  0
  3 28  1  0
  4 29  1  0
  4  5  1  0
  4 30  1  0
  5 26  1  0
  5 12  1  0
  5  6  1  1
  6  7  2  0
  6 31  1  0
  7  8  1  0
  7 32  1  0
  8 26  1  0
  8 10  1  0
  8  9  1  1
  9 34  1  0
  9 35  1  0
  9 33  1  0
 10 36  1  0
 10 11  1  0
 10 37  1  0
 11 38  1  0
 11 12  1  0
 11 39  1  0
 12 13  1  6
 12 14  1  0
 14 16  1  0
 14 15  1  1
 15 42  1  0
 15 41  1  0
 15 40  1  0
 16 43  1  0
 16 17  1  0
 16 44  1  0
 17 19  1  0
 17 18  2  0
 19 20  1  6
 19 21  1  0
 19 22  1  0
 21 45  1  0
 22 24  1  6
 22 23  1  0
 23 48  1  0
 23 46  1  0
 23 47  1  0
 24 50  1  0
 24 25  1  0
 24 49  1  0
 25 51  1  0
 26 52  1  0
 26 53  1  0
M  END
>  <id>  (559) 
663

>  <scaffolds>  (559) 
['C1CCCCC1', 'C1=CC23CCC4CCCCC4C2CCC1C3', 'C1CCC2CCCCC2C1']

>  <name>  (559) 
ent-3[beta],18-Dihydroxy-beyer-15-ene-2-one

>  <formula>  (559) 
C20H30O3

>  <SMILES>  (559) 
[H][C@]23CC[C@@]14C=C[C@@](C)(CC[C@@]1([H])[C@]2(C)CC(=O)[C@@H](O)[C@]3(C)CO)C4

>  <ChEMBL_id>  (559) 


>  <ZINC_id>  (559) 


>  <PubChem_id>  (559) 


>  <DrugBank_id>  (559) 


>  <CAS_no>  (559) 
140670-96-8

>  <references>  (559) 
[{'journal': {'name': 'Phytochemistry', 'id': 10}, 'title': 'Diterpenoids from Spirostachys africana', 'year': 1992, 'start_page': 699, 'volume': 31, 'issue': 2, 'doi': '10.1016/0031-9422(92)90065-X', 'isbn': '', 'despositor': {'code': 'rah', 'first_name': 'Rowan', 'last_name': 'Hatherley', 'id': 20}, 'refauthors_set': [{'author': {'first_name': 'Zvitendo', 'initials': 'ZJ', 'last_name': 'Duri', 'id': 835}, 'first_author': True, 'id': 1356}, {'author': {'first_name': 'Neil', 'initials': 'NA', 'last_name': 'Hughes', 'id': 836}, 'first_author': None, 'id': 1357}, {'author': {'first_name': 'Namboole', 'initials': 'NM', 'last_name': 'Munkombwe', 'id': 837}, 'first_author': None, 'id': 1358}], 'id': 388}]

>  <classifications>  (559) 
[{'classification': 'Phenol lipids (Classyfire)', 'id': 951}]

>  <molecular_mass>  (559) 
318.45

$$$$
SANC00664_minRM1.pdb
     RDKit          3D

119124  0  0  1  0  0  0  0  0999 V2000
   -6.7920   -0.0050    0.0250 H   0  0  0  0  0  0  0  0  0  0  0  0
   -5.8180    0.5360    0.1900 C   0  0  2  0  0  0  0  0  0  0  0  0
   -4.9060   -0.1800    0.9700 O   0  0  0  0  0  0  0  0  0  0  0  0
   -4.6760   -1.5130    0.5650 C   0  0  2  0  0  0  0  0  0  0  0  0
   -4.6760   -1.6270   -0.5540 H   0  0  0  0  0  0  0  0  0  0  0  0
   -5.7940   -2.3770    1.1670 C   0  0  0  0  0  0  0  0  0  0  0  0
   -5.5640   -3.8340    0.7650 C   0  0  2  0  0  0  0  0  0  0  0  0
   -5.6190   -3.9450   -0.3530 H   0  0  0  0  0  0  0  0  0  0  0  0
   -6.5870   -4.5570    1.3890 O   0  0  0  0  0  0  0  0  0  0  0  0
   -4.1890   -4.2950    1.2690 C   0  0  0  0  0  0  0  0  0  0  0  0
   -3.1260   -3.3750    0.7640 C   0  0  0  0  0  0  0  0  0  0  0  0
   -2.1080   -3.8810    0.0690 C   0  0  0  0  0  0  0  0  0  0  0  0
   -0.9790   -3.0620   -0.4260 C   0  0  0  0  0  0  0  0  0  0  0  0
   -0.8350   -1.7880    0.4000 C   0  0  2  0  0  0  0  0  0  0  0  0
   -0.5180   -2.0540    1.4430 H   0  0  0  0  0  0  0  0  0  0  0  0
   -2.1780   -1.0410    0.4460 C   0  0  2  0  0  0  0  0  0  0  0  0
   -2.4990   -0.8400   -0.6100 H   0  0  0  0  0  0  0  0  0  0  0  0
   -1.9960    0.3180    1.1360 C   0  0  0  0  0  0  0  0  0  0  0  0
   -0.8480    1.1580    0.5770 C   0  0  0  0  0  0  0  0  0  0  0  0
    0.4580    0.3760    0.5920 C   0  0  1  0  0  0  0  0  0  0  0  0
    0.8600    0.0380    2.0220 C   0  0  0  0  0  0  0  0  0  0  0  0
    0.2080   -0.8880   -0.2510 C   0  0  1  0  0  0  0  0  0  0  0  0
   -0.1770   -0.5900   -1.2630 H   0  0  0  0  0  0  0  0  0  0  0  0
    1.6040   -1.4680   -0.4350 C   0  0  0  0  0  0  0  0  0  0  0  0
    2.5130   -0.2220   -0.5610 C   0  0  2  0  0  0  0  0  0  0  0  0
    2.8790   -0.1040   -1.6150 H   0  0  0  0  0  0  0  0  0  0  0  0
    3.5870   -0.3330    0.3480 O   0  0  0  0  0  0  0  0  0  0  0  0
    4.7310   -0.9630   -0.1480 C   0  0  2  0  0  0  0  0  0  0  0  0
    5.1330   -0.4780   -1.0840 H   0  0  0  0  0  0  0  0  0  0  0  0
    4.3440   -2.2970   -0.3670 O   0  0  0  0  0  0  0  0  0  0  0  0
    5.4010   -3.1040   -0.8260 C   0  0  2  0  0  0  0  0  0  0  0  0
    5.8640   -2.6980   -1.7660 H   0  0  0  0  0  0  0  0  0  0  0  0
    4.7570   -4.4760   -1.1070 C   0  0  0  0  0  0  0  0  0  0  0  0
    3.9810   -4.3050   -2.2580 O   0  0  0  0  0  0  0  0  0  0  0  0
    6.4590   -3.2180    0.3000 C   0  0  1  0  0  0  0  0  0  0  0  0
    6.0120   -3.6900    1.2170 H   0  0  0  0  0  0  0  0  0  0  0  0
    7.4910   -3.9880   -0.2320 O   0  0  0  0  0  0  0  0  0  0  0  0
    6.9750   -1.7930    0.6300 C   0  0  2  0  0  0  0  0  0  0  0  0
    7.5210   -1.3600   -0.2520 H   0  0  0  0  0  0  0  0  0  0  0  0
    7.8210   -1.9580    1.7250 O   0  0  0  0  0  0  0  0  0  0  0  0
    5.7660   -0.9060    1.0130 C   0  0  1  0  0  0  0  0  0  0  0  0
    5.3050   -1.2670    1.9730 H   0  0  0  0  0  0  0  0  0  0  0  0
    6.2810    0.3830    1.1310 O   0  0  0  0  0  0  0  0  0  0  0  0
    1.6360    1.0130   -0.1790 C   0  0  2  0  0  0  0  0  0  0  0  0
    1.2370    1.4280   -1.1430 H   0  0  0  0  0  0  0  0  0  0  0  0
    2.3760    2.1520    0.5210 C   0  0  2  0  0  0  0  0  0  0  0  0
    2.8060    1.7930    1.4900 H   0  0  0  0  0  0  0  0  0  0  0  0
    1.4290    3.3140    0.8060 C   0  0  0  0  0  0  0  0  0  0  0  0
    3.5500    2.6510   -0.3630 C   0  0  1  0  0  0  0  0  0  0  0  0
    4.2040    1.7970   -0.6790 H   0  0  0  0  0  0  0  0  0  0  0  0
    3.1060    3.1420   -1.5880 O   0  0  0  0  0  0  0  0  0  0  0  0
    4.3980    3.6930    0.3940 C   0  0  0  0  0  0  0  0  0  0  0  0
    5.6000    4.1170   -0.4420 C   0  0  0  0  0  0  0  0  0  0  0  0
    6.5720    4.9960    0.3510 C   0  0  1  0  0  0  0  0  0  0  0  0
    7.7880    5.3110   -0.5150 C   0  0  0  0  0  0  0  0  0  0  0  0
    5.9140    6.2970    0.7940 C   0  0  0  0  0  0  0  0  0  0  0  0
   -3.2760   -1.9170    1.1140 C   0  0  1  0  0  0  0  0  0  0  0  0
   -3.2370   -1.8030    2.6370 C   0  0  0  0  0  0  0  0  0  0  0  0
   -5.1310    0.7810   -1.0140 O   0  0  0  0  0  0  0  0  0  0  0  0
   -5.8870    1.5410   -1.9240 C   0  0  2  0  0  0  0  0  0  0  0  0
   -6.8790    1.0650   -2.1520 H   0  0  0  0  0  0  0  0  0  0  0  0
   -5.0270    1.6000   -3.2040 C   0  0  0  0  0  0  0  0  0  0  0  0
   -5.0730    0.3160   -3.7520 O   0  0  0  0  0  0  0  0  0  0  0  0
   -6.0880    2.9600   -1.3320 C   0  0  1  0  0  0  0  0  0  0  0  0
   -5.0970    3.4670   -1.1770 H   0  0  0  0  0  0  0  0  0  0  0  0
   -6.8820    3.6410   -2.2540 O   0  0  0  0  0  0  0  0  0  0  0  0
   -6.8370    2.8280    0.0200 C   0  0  2  0  0  0  0  0  0  0  0  0
   -7.8760    2.4290   -0.1470 H   0  0  0  0  0  0  0  0  0  0  0  0
   -6.8630    4.1170    0.5510 O   0  0  0  0  0  0  0  0  0  0  0  0
   -6.0290    1.8820    0.9430 C   0  0  1  0  0  0  0  0  0  0  0  0
   -5.0420    2.3480    1.2120 H   0  0  0  0  0  0  0  0  0  0  0  0
   -6.8360    1.6790    2.0610 O   0  0  0  0  0  0  0  0  0  0  0  0
   -5.8320   -2.2700    2.2730 H   0  0  0  0  0  0  0  0  0  0  0  0
   -6.7950   -2.0420    0.8240 H   0  0  0  0  0  0  0  0  0  0  0  0
   -6.4980   -5.4760    1.1250 H   0  0  0  0  0  0  0  0  0  0  0  0
   -4.1660   -4.3450    2.3790 H   0  0  0  0  0  0  0  0  0  0  0  0
   -4.0080   -5.3480    0.9620 H   0  0  0  0  0  0  0  0  0  0  0  0
   -2.0550   -4.9470   -0.1770 H   0  0  0  0  0  0  0  0  0  0  0  0
   -0.0380   -3.6530   -0.3970 H   0  0  0  0  0  0  0  0  0  0  0  0
   -1.1360   -2.8380   -1.5050 H   0  0  0  0  0  0  0  0  0  0  0  0
   -2.9210    0.9230    1.0510 H   0  0  0  0  0  0  0  0  0  0  0  0
   -1.8630    0.1910    2.2320 H   0  0  0  0  0  0  0  0  0  0  0  0
   -1.0900    1.5080   -0.4480 H   0  0  0  0  0  0  0  0  0  0  0  0
   -0.7570    2.0950    1.1690 H   0  0  0  0  0  0  0  0  0  0  0  0
    0.2260   -0.7480    2.4640 H   0  0  0  0  0  0  0  0  0  0  0  0
    1.8860   -0.3440    2.1150 H   0  0  0  0  0  0  0  0  0  0  0  0
    0.7930    0.9040    2.6950 H   0  0  0  0  0  0  0  0  0  0  0  0
    1.8920   -2.1210    0.4110 H   0  0  0  0  0  0  0  0  0  0  0  0
    1.6860   -2.1190   -1.3260 H   0  0  0  0  0  0  0  0  0  0  0  0
    5.5470   -5.2390   -1.3060 H   0  0  0  0  0  0  0  0  0  0  0  0
    4.1830   -4.8410   -0.2250 H   0  0  0  0  0  0  0  0  0  0  0  0
    3.1770   -4.8210   -2.1350 H   0  0  0  0  0  0  0  0  0  0  0  0
    8.1550   -4.1000    0.4540 H   0  0  0  0  0  0  0  0  0  0  0  0
    8.1970   -1.0970    1.9340 H   0  0  0  0  0  0  0  0  0  0  0  0
    5.5670    0.9560    1.4300 H   0  0  0  0  0  0  0  0  0  0  0  0
    0.6470    3.0520    1.5380 H   0  0  0  0  0  0  0  0  0  0  0  0
    1.9550    4.1840    1.2240 H   0  0  0  0  0  0  0  0  0  0  0  0
    0.8910    3.6660   -0.0880 H   0  0  0  0  0  0  0  0  0  0  0  0
    2.6520    3.9790   -1.4460 H   0  0  0  0  0  0  0  0  0  0  0  0
    3.7760    4.5720    0.6700 H   0  0  0  0  0  0  0  0  0  0  0  0
    4.7280    3.2720    1.3670 H   0  0  0  0  0  0  0  0  0  0  0  0
    6.1380    3.2180   -0.8160 H   0  0  0  0  0  0  0  0  0  0  0  0
    5.2640    4.6410   -1.3610 H   0  0  0  0  0  0  0  0  0  0  0  0
    6.9160    4.4350    1.2590 H   0  0  0  0  0  0  0  0  0  0  0  0
    7.5210    5.8840   -1.4140 H   0  0  0  0  0  0  0  0  0  0  0  0
    8.5370    5.9050    0.0270 H   0  0  0  0  0  0  0  0  0  0  0  0
    8.3020    4.4020   -0.8590 H   0  0  0  0  0  0  0  0  0  0  0  0
    5.1660    6.1440    1.5840 H   0  0  0  0  0  0  0  0  0  0  0  0
    6.6440    7.0070    1.2070 H   0  0  0  0  0  0  0  0  0  0  0  0
    5.4060    6.8140   -0.0340 H   0  0  0  0  0  0  0  0  0  0  0  0
   -3.2300   -0.7590    2.9880 H   0  0  0  0  0  0  0  0  0  0  0  0
   -4.1090   -2.2640    3.1260 H   0  0  0  0  0  0  0  0  0  0  0  0
   -2.3430   -2.2840    3.0590 H   0  0  0  0  0  0  0  0  0  0  0  0
   -5.4690    2.3210   -3.9260 H   0  0  0  0  0  0  0  0  0  0  0  0
   -3.9990    1.9600   -2.9820 H   0  0  0  0  0  0  0  0  0  0  0  0
   -4.1890    0.1000   -4.0660 H   0  0  0  0  0  0  0  0  0  0  0  0
   -7.0050    4.5400   -1.9250 H   0  0  0  0  0  0  0  0  0  0  0  0
   -7.3600    4.0840    1.3750 H   0  0  0  0  0  0  0  0  0  0  0  0
   -6.3420    1.1330    2.6830 H   0  0  0  0  0  0  0  0  0  0  0  0
  2  1  1  6
  2 59  1  0
  2 70  1  0
  2  3  1  0
  3  4  1  0
  4  5  1  6
  4 57  1  0
  4  6  1  0
  6  7  1  0
  6 74  1  0
  6 73  1  0
  7  8  1  6
  7 10  1  0
  7  9  1  0
  9 75  1  0
 10 11  1  0
 10 77  1  0
 10 76  1  0
 11 12  2  0
 11 57  1  0
 12 13  1  0
 12 78  1  0
 13 80  1  0
 13 79  1  0
 13 14  1  0
 14 22  1  0
 14 16  1  0
 14 15  1  1
 16 17  1  6
 16 57  1  0
 16 18  1  0
 18 19  1  0
 18 81  1  0
 18 82  1  0
 19 83  1  0
 19 20  1  0
 19 84  1  0
 20 22  1  0
 20 44  1  0
 20 21  1  1
 21 86  1  0
 21 85  1  0
 21 87  1  0
 22 23  1  6
 22 24  1  0
 24 89  1  0
 24 25  1  0
 24 88  1  0
 25 26  1  6
 25 44  1  0
 25 27  1  0
 27 28  1  0
 28 29  1  6
 28 30  1  0
 28 41  1  0
 30 31  1  0
 31 32  1  6
 31 33  1  0
 31 35  1  0
 33 34  1  0
 33 90  1  0
 33 91  1  0
 34 92  1  0
 35 37  1  0
 35 38  1  0
 35 36  1  1
 37 93  1  0
 38 39  1  6
 38 41  1  0
 38 40  1  0
 40 94  1  0
 41 43  1  0
 41 42  1  1
 43 95  1  0
 44 45  1  6
 44 46  1  0
 46 49  1  0
 46 48  1  0
 46 47  1  1
 48 98  1  0
 48 97  1  0
 48 96  1  0
 49 51  1  0
 49 50  1  6
 49 52  1  0
 51 99  1  0
 52 53  1  0
 52100  1  0
 52101  1  0
 53103  1  0
 53102  1  0
 53 54  1  0
 54 55  1  0
 54 56  1  0
 54104  1  1
 55105  1  0
 55107  1  0
 55106  1  0
 56110  1  0
 56109  1  0
 56108  1  0
 57 58  1  1
 58111  1  0
 58113  1  0
 58112  1  0
 59 60  1  0
 60 62  1  0
 60 61  1  6
 60 64  1  0
 62114  1  0
 62 63  1  0
 62115  1  0
 63116  1  0
 64 66  1  0
 64 65  1  1
 64 67  1  0
 66117  1  0
 67 68  1  6
 67 69  1  0
 67 70  1  0
 69118  1  0
 70 71  1  1
 70 72  1  0
 72119  1  0
M  END
>  <id>  (560) 
664

>  <scaffolds>  (560) 
['C1=C2CCCCC2C2CCC3CCCC3C2C1', 'C1=CCCCC1', 'C1=CCC2CCCCC2C1', 'C1=C2CCCC(OC3CCCCO3)C2C2CCC3CC(OC4CCCCO4)CC3C2C1', 'C1=C2CCCCC2C2CCC3CC(OC4CCCCO4)CC3C2C1', 'C1CCOCC1', 'C1CCCCC1', 'C1=C2CCCCC2CCC1']

>  <name>  (560) 
(22S)-1[beta]-[([beta]-D-glucopyranosyl)oxy]-3[beta],22-dihydroxycholest-5-en-16[beta]-yl [beta]-D-glucopyranoside

>  <formula>  (560) 
C39H66O14

>  <SMILES>  (560) 
[H][C@@]6(O[C@@H]5C[C@H](O)CC4=CC[C@]1([H])[C@]([H])(CCC3(C)[C@@]1([H])C[C@H](O[C@]2([H])O[C@H](CO)[C@@H](O)[C@H](O)[C@H]2O)[C@]3([H])[C@H](C)[C@@H](O)CCC(C)C)[C@]45C)O[C@H](CO)[C@@H](O)[C@H](O)[C@H]6O

>  <ChEMBL_id>  (560) 


>  <ZINC_id>  (560) 


>  <PubChem_id>  (560) 


>  <DrugBank_id>  (560) 


>  <CAS_no>  (560) 
168778-13-0

>  <references>  (560) 
[{'journal': {'name': 'Journal of Natural Products', 'id': 5}, 'title': 'Five New Polyoxygenated Cholestane Bisdesmosides from the Bulbs of Galtonia candicans', 'year': 2001, 'start_page': 1069, 'volume': 64, 'issue': None, 'doi': '10.1021/np010208d', 'isbn': '', 'despositor': {'code': 'NFA', 'first_name': 'Ngonidzashe', 'last_name': 'Faya', 'id': 21}, 'refauthors_set': [{'author': {'first_name': 'Yoshihiro ', 'initials': 'Y', 'last_name': 'Mimaki', 'id': 643}, 'first_author': True, 'id': 889}, {'author': {'first_name': 'Minpei', 'initials': 'M', 'last_name': 'Kuroda', 'id': 644}, 'first_author': None, 'id': 1221}, {'author': {'first_name': 'Akihito ', 'initials': 'A', 'last_name': 'Yokosuka', 'id': 650}, 'first_author': None, 'id': 1222}, {'author': {'first_name': 'Yutaka', 'initials': 'Y', 'last_name': 'Sashida', 'id': 645}, 'first_author': None, 'id': 1223}], 'id': 304}]

>  <classifications>  (560) 
[{'classification': 'Steroids and steroid derivatives (Classyfire)', 'id': 942}]

>  <molecular_mass>  (560) 
758.93

$$$$
SANC00665_minRM1.pdb
     RDKit          3D

110117  0  0  1  0  0  0  0  0999 V2000
    4.7500   -3.1300   -0.2650 H   0  0  0  0  0  0  0  0  0  0  0  0
    4.6490   -2.1980    0.3540 C   0  0  2  0  0  0  0  0  0  0  0  0
    4.5460   -1.0080   -0.3850 O   0  0  0  0  0  0  0  0  0  0  0  0
    3.6820   -1.0430   -1.4920 C   0  0  2  0  0  0  0  0  0  0  0  0
    2.7670   -1.6660   -1.3080 H   0  0  0  0  0  0  0  0  0  0  0  0
    4.4800   -1.5380   -2.7330 C   0  0  1  0  0  0  0  0  0  0  0  0
    5.4860   -1.0440   -2.7600 H   0  0  0  0  0  0  0  0  0  0  0  0
    4.7880   -2.8870   -2.6330 O   0  0  0  0  0  0  0  0  0  0  0  0
    3.7170   -1.2320   -4.0460 C   0  0  1  0  0  0  0  0  0  0  0  0
    4.3470   -1.5070   -4.9320 H   0  0  0  0  0  0  0  0  0  0  0  0
    2.5940   -2.0360   -4.1930 O   0  0  0  0  0  0  0  0  0  0  0  0
    3.3490    0.2610   -4.0690 C   0  0  0  0  0  0  0  0  0  0  0  0
    2.5840    0.5700   -2.9400 O   0  0  0  0  0  0  0  0  0  0  0  0
    3.2980    0.4490   -1.7270 C   0  0  1  0  0  0  0  0  0  0  0  0
    4.2070    1.1200   -1.7050 H   0  0  0  0  0  0  0  0  0  0  0  0
    2.3420    0.7790   -0.7610 O   0  0  0  0  0  0  0  0  0  0  0  0
    2.0290    2.1590   -0.7050 C   0  0  2  0  0  0  0  0  0  0  0  0
    1.8540    2.5930   -1.7270 H   0  0  0  0  0  0  0  0  0  0  0  0
    3.2250    2.8620   -0.0460 C   0  0  0  0  0  0  0  0  0  0  0  0
    2.9210    4.3540    0.0660 C   0  0  2  0  0  0  0  0  0  0  0  0
    2.7330    4.8000   -0.9500 H   0  0  0  0  0  0  0  0  0  0  0  0
    4.0570    4.9250    0.6530 O   0  0  0  0  0  0  0  0  0  0  0  0
    1.6890    4.5290    0.9640 C   0  0  0  0  0  0  0  0  0  0  0  0
    0.5260    3.7740    0.4130 C   0  0  0  0  0  0  0  0  0  0  0  0
   -0.6490    4.3960    0.3070 C   0  0  0  0  0  0  0  0  0  0  0  0
   -1.9050    3.7270   -0.1020 C   0  0  0  0  0  0  0  0  0  0  0  0
   -1.7860    2.2080    0.0150 C   0  0  2  0  0  0  0  0  0  0  0  0
   -1.7670    1.9280    1.0980 H   0  0  0  0  0  0  0  0  0  0  0  0
   -0.4880    1.7570   -0.6770 C   0  0  2  0  0  0  0  0  0  0  0  0
   -0.4700    2.2250   -1.6970 H   0  0  0  0  0  0  0  0  0  0  0  0
   -0.4210    0.2360   -0.8740 C   0  0  0  0  0  0  0  0  0  0  0  0
   -1.7100   -0.4140   -1.3810 C   0  0  0  0  0  0  0  0  0  0  0  0
   -2.9090    0.0270   -0.5550 C   0  0  1  0  0  0  0  0  0  0  0  0
   -2.7620   -0.4490    0.8850 C   0  0  0  0  0  0  0  0  0  0  0  0
   -2.9800    1.5590   -0.6650 C   0  0  1  0  0  0  0  0  0  0  0  0
   -2.9670    1.8520   -1.7500 H   0  0  0  0  0  0  0  0  0  0  0  0
   -4.3650    1.8950   -0.1110 C   0  0  0  0  0  0  0  0  0  0  0  0
   -5.2340    0.7540   -0.6720 C   0  0  2  0  0  0  0  0  0  0  0  0
   -5.8920    1.1110   -1.5020 H   0  0  0  0  0  0  0  0  0  0  0  0
   -6.0430    0.2270    0.3510 O   0  0  0  0  0  0  0  0  0  0  0  0
   -6.1910   -1.1580    0.1550 C   0  0  1  0  0  0  0  0  0  0  0  0
   -6.4220   -1.8140    1.5220 C   0  0  0  0  0  0  0  0  0  0  0  0
   -7.7590   -1.3800    2.1050 C   0  0  0  0  0  0  0  0  0  0  0  0
   -8.8630   -1.6640    1.0900 C   0  0  1  0  0  0  0  0  0  0  0  0
   -8.9060   -2.7650    0.8870 H   0  0  0  0  0  0  0  0  0  0  0  0
  -10.2140   -1.1990    1.6110 C   0  0  0  0  0  0  0  0  0  0  0  0
   -8.5240   -0.9220   -0.2090 C   0  0  0  0  0  0  0  0  0  0  0  0
   -7.2770   -1.3250   -0.7120 O   0  0  0  0  0  0  0  0  0  0  0  0
   -4.9170   -1.6700   -0.5800 C   0  0  1  0  0  0  0  0  0  0  0  0
   -4.2490   -2.1730    0.1660 H   0  0  0  0  0  0  0  0  0  0  0  0
   -5.2080   -2.6940   -1.6670 C   0  0  0  0  0  0  0  0  0  0  0  0
   -4.2810   -0.3880   -1.1290 C   0  0  2  0  0  0  0  0  0  0  0  0
   -4.2220   -0.4250   -2.2420 H   0  0  0  0  0  0  0  0  0  0  0  0
    0.7240    2.3060    0.1270 C   0  0  1  0  0  0  0  0  0  0  0  0
    0.8690    1.6100    1.4800 C   0  0  0  0  0  0  0  0  0  0  0  0
    3.4510   -2.4090    1.0240 O   0  0  0  0  0  0  0  0  0  0  0  0
    3.1050   -1.4660    2.0160 C   0  0  1  0  0  0  0  0  0  0  0  0
    2.9600   -0.4470    1.5670 H   0  0  0  0  0  0  0  0  0  0  0  0
    1.7930   -1.9850    2.6010 C   0  0  0  0  0  0  0  0  0  0  0  0
    4.2120   -1.4320    3.0970 C   0  0  2  0  0  0  0  0  0  0  0  0
    4.3270   -2.4410    3.5770 H   0  0  0  0  0  0  0  0  0  0  0  0
    3.8140   -0.4420    4.0010 O   0  0  0  0  0  0  0  0  0  0  0  0
    5.5390   -1.0010    2.4210 C   0  0  1  0  0  0  0  0  0  0  0  0
    5.4500    0.0360    1.9940 H   0  0  0  0  0  0  0  0  0  0  0  0
    6.4830   -1.0330    3.4490 O   0  0  0  0  0  0  0  0  0  0  0  0
    5.8810   -1.9920    1.2850 C   0  0  1  0  0  0  0  0  0  0  0  0
    6.7470   -1.6070    0.6780 H   0  0  0  0  0  0  0  0  0  0  0  0
    6.1970   -3.1910    1.9220 O   0  0  0  0  0  0  0  0  0  0  0  0
    3.9960   -3.4090   -2.7910 H   0  0  0  0  0  0  0  0  0  0  0  0
    1.9440   -1.8020   -3.5220 H   0  0  0  0  0  0  0  0  0  0  0  0
    4.2580    0.8970   -4.1680 H   0  0  0  0  0  0  0  0  0  0  0  0
    2.6860    0.5150   -4.9240 H   0  0  0  0  0  0  0  0  0  0  0  0
    3.4440    2.4200    0.9520 H   0  0  0  0  0  0  0  0  0  0  0  0
    4.1560    2.6940   -0.6310 H   0  0  0  0  0  0  0  0  0  0  0  0
    3.8880    5.8660    0.7580 H   0  0  0  0  0  0  0  0  0  0  0  0
    1.9020    4.1820    1.9990 H   0  0  0  0  0  0  0  0  0  0  0  0
    1.4610    5.6110    1.0850 H   0  0  0  0  0  0  0  0  0  0  0  0
   -0.7490    5.4660    0.5290 H   0  0  0  0  0  0  0  0  0  0  0  0
   -2.7490    4.0980    0.5170 H   0  0  0  0  0  0  0  0  0  0  0  0
   -2.1620    4.0420   -1.1380 H   0  0  0  0  0  0  0  0  0  0  0  0
    0.3660   -0.0080   -1.6200 H   0  0  0  0  0  0  0  0  0  0  0  0
   -0.0800   -0.2640    0.0600 H   0  0  0  0  0  0  0  0  0  0  0  0
   -1.8590   -0.1700   -2.4550 H   0  0  0  0  0  0  0  0  0  0  0  0
   -1.6080   -1.5200   -1.3690 H   0  0  0  0  0  0  0  0  0  0  0  0
   -1.8760   -0.0450    1.3940 H   0  0  0  0  0  0  0  0  0  0  0  0
   -3.6210   -0.1710    1.5150 H   0  0  0  0  0  0  0  0  0  0  0  0
   -2.6820   -1.5470    0.9360 H   0  0  0  0  0  0  0  0  0  0  0  0
   -4.3820    1.9480    0.9950 H   0  0  0  0  0  0  0  0  0  0  0  0
   -4.7280    2.8880   -0.4370 H   0  0  0  0  0  0  0  0  0  0  0  0
   -6.3800   -2.9170    1.4050 H   0  0  0  0  0  0  0  0  0  0  0  0
   -5.5920   -1.5620    2.2140 H   0  0  0  0  0  0  0  0  0  0  0  0
   -7.9560   -1.9070    3.0620 H   0  0  0  0  0  0  0  0  0  0  0  0
   -7.7360   -0.3030    2.3760 H   0  0  0  0  0  0  0  0  0  0  0  0
  -10.2350   -0.1220    1.8320 H   0  0  0  0  0  0  0  0  0  0  0  0
  -11.0200   -1.3910    0.8890 H   0  0  0  0  0  0  0  0  0  0  0  0
  -10.4920   -1.7160    2.5400 H   0  0  0  0  0  0  0  0  0  0  0  0
   -9.2210   -1.1780   -1.0340 H   0  0  0  0  0  0  0  0  0  0  0  0
   -8.5780    0.1820   -0.0770 H   0  0  0  0  0  0  0  0  0  0  0  0
   -5.7860   -2.2880   -2.5090 H   0  0  0  0  0  0  0  0  0  0  0  0
   -4.2800   -3.1030   -2.0920 H   0  0  0  0  0  0  0  0  0  0  0  0
   -5.7840   -3.5420   -1.2720 H   0  0  0  0  0  0  0  0  0  0  0  0
    0.6290    0.5350    1.4320 H   0  0  0  0  0  0  0  0  0  0  0  0
    1.8970    1.6810    1.8800 H   0  0  0  0  0  0  0  0  0  0  0  0
    0.2180    2.0510    2.2530 H   0  0  0  0  0  0  0  0  0  0  0  0
    1.8890   -2.9950    3.0220 H   0  0  0  0  0  0  0  0  0  0  0  0
    1.4370   -1.3250    3.4080 H   0  0  0  0  0  0  0  0  0  0  0  0
    0.9970   -2.0270    1.8440 H   0  0  0  0  0  0  0  0  0  0  0  0
    4.3480   -0.5650    4.7860 H   0  0  0  0  0  0  0  0  0  0  0  0
    7.3580   -0.9940    3.0550 H   0  0  0  0  0  0  0  0  0  0  0  0
    6.4980   -3.8160    1.2460 H   0  0  0  0  0  0  0  0  0  0  0  0
  2  1  1  6
  2  3  1  0
  2 56  1  0
  2 66  1  0
  3  4  1  0
  4  6  1  0
  4 14  1  0
  4  5  1  1
  6  9  1  0
  6  7  1  6
  6  8  1  0
  8 69  1  0
  9 10  1  6
  9 11  1  0
  9 12  1  0
 11 70  1  0
 12 72  1  0
 12 71  1  0
 12 13  1  0
 13 14  1  0
 14 15  1  6
 14 16  1  0
 16 17  1  0
 17 18  1  6
 17 19  1  0
 17 54  1  0
 19 74  1  0
 19 20  1  0
 19 73  1  0
 20 21  1  6
 20 22  1  0
 20 23  1  0
 22 75  1  0
 23 24  1  0
 23 77  1  0
 23 76  1  0
 24 54  1  0
 24 25  2  0
 25 26  1  0
 25 78  1  0
 26 80  1  0
 26 27  1  0
 26 79  1  0
 27 29  1  0
 27 35  1  0
 27 28  1  1
 29 30  1  6
 29 31  1  0
 29 54  1  0
 31 81  1  0
 31 32  1  0
 31 82  1  0
 32 83  1  0
 32 84  1  0
 32 33  1  0
 33 52  1  0
 33 35  1  0
 33 34  1  1
 34 87  1  0
 34 85  1  0
 34 86  1  0
 35 36  1  6
 35 37  1  0
 37 38  1  0
 37 89  1  0
 37 88  1  0
 38 39  1  6
 38 52  1  0
 38 40  1  0
 41 40  1  1
 41 48  1  0
 41 49  1  0
 41 42  1  0
 42 90  1  0
 42 43  1  0
 42 91  1  0
 43 44  1  0
 43 93  1  0
 43 92  1  0
 44 47  1  0
 44 45  1  6
 44 46  1  0
 46 95  1  0
 46 94  1  0
 46 96  1  0
 47 97  1  0
 47 48  1  0
 47 98  1  0
 49 51  1  0
 49 52  1  0
 49 50  1  1
 51 99  1  0
 51100  1  0
 51101  1  0
 52 53  1  6
 54 55  1  1
 55102  1  0
 55103  1  0
 55104  1  0
 56 57  1  0
 57 58  1  6
 57 59  1  0
 57 60  1  0
 59107  1  0
 59105  1  0
 59106  1  0
 60 63  1  0
 60 61  1  1
 60 62  1  0
 62108  1  0
 63 66  1  0
 63 64  1  6
 63 65  1  0
 65109  1  0
 66 67  1  6
 66 68  1  0
 68110  1  0
M  END
>  <id>  (561) 
665

>  <scaffolds>  (561) 
['C1=C2CCCCC2C2CCC3CCCC3C2C1', 'C1=CCCCC1', 'C1=CCC2CCCCC2C1', 'C1=C2CCCC(OC3CCCCO3)C2C2CCC3CC(OC4CCCCO4)CC3C2C1', 'C1=C2CCCCC2C2CCC3CC(OC4CCCCO4)CC3C2C1', 'C1CCOCC1', 'C1CCCCC1', 'C1=C2CCCC(OC3OCCCC3OC3CCCCO3)C2C2CCC3C4CC5(CCCCO5)OC4CC3C2C1', 'C1=C2CCCCC2C2CCC3C4CC5(CCCCO5)OC4CC3C2C1', 'C1=C2CCCCC2CCC1', 'C1CCC(OC2CCCOC2)OC1']

>  <name>  (561) 
(25R)-3[beta]-hydroxyspirost-5-en-1[beta]-yl O-[alpha]-L-rhamnopyranosyl-(1[to]2)-[alpha]-L-arabinopyranoside

>  <formula>  (561) 
C38H60O12

>  <SMILES>  (561) 
[H][C@@]8(O[C@@H]1[C@@H](O)[C@@H](O)CO[C@@]1([H])O[C@@H]7C[C@H](O)CC6=CC[C@]2([H])[C@]([H])(CC[C@@]5(C)[C@@]2([H])C[C@]4([H])O[C@]3(CC[C@@H](C)CO3)[C@@H](C)[C@@]45[H])[C@]67C)O[C@@H](C)[C@H](O)[C@@H](O)[C@H]8O

>  <ChEMBL_id>  (561) 


>  <ZINC_id>  (561) 


>  <PubChem_id>  (561) 


>  <DrugBank_id>  (561) 


>  <CAS_no>  (561) 
88668-51-3

>  <references>  (561) 
[{'journal': {'name': 'Journal of Natural Products', 'id': 5}, 'title': 'Steroidal Glycosides from the Bulbs of Ornithogalum thyrsoides', 'year': 2004, 'start_page': 1690, 'volume': 67, 'issue': 10, 'doi': '10.1021/np040108i', 'isbn': '', 'despositor': {'code': 'NFA', 'first_name': 'Ngonidzashe', 'last_name': 'Faya', 'id': 21}, 'refauthors_set': [{'author': {'first_name': 'Minpei', 'initials': 'M', 'last_name': 'Kuroda', 'id': 644}, 'first_author': True, 'id': 893}, {'author': {'first_name': 'Yoshihiro ', 'initials': 'Y', 'last_name': 'Mimaki', 'id': 643}, 'first_author': None, 'id': 1204}, {'author': {'first_name': 'Kazutomo', 'initials': 'K', 'last_name': 'Ori', 'id': 793}, 'first_author': None, 'id': 1205}, {'author': {'first_name': 'Hiroshi', 'initials': 'H', 'last_name': 'Sakagami', 'id': 653}, 'first_author': None, 'id': 1206}, {'author': {'first_name': 'Yutaka', 'initials': 'Y', 'last_name': 'Sashida', 'id': 645}, 'first_author': None, 'id': 1207}], 'id': 308}]

>  <classifications>  (561) 
[{'classification': 'Steroids and steroid derivatives (Classyfire)', 'id': 942}]

>  <molecular_mass>  (561) 
708.87

$$$$
SANC00666_minRM1.pdb
     RDKit          3D

120125  0  0  1  0  0  0  0  0999 V2000
   -3.2530   -3.2360   -1.6930 H   0  0  0  0  0  0  0  0  0  0  0  0
   -3.2850   -3.3190   -0.5720 C   0  0  2  0  0  0  0  0  0  0  0  0
   -2.0020   -4.0140   -0.1220 C   0  0  0  0  0  0  0  0  0  0  0  0
   -0.7980   -3.2460   -0.6380 C   0  0  0  0  0  0  0  0  0  0  0  0
   -0.8390   -1.8090   -0.1330 C   0  0  2  0  0  0  0  0  0  0  0  0
   -0.7270   -1.8130    0.9840 H   0  0  0  0  0  0  0  0  0  0  0  0
   -2.1550   -1.1080   -0.5270 C   0  0  2  0  0  0  0  0  0  0  0  0
   -2.2270   -1.0950   -1.6480 H   0  0  0  0  0  0  0  0  0  0  0  0
   -2.1100    0.3470   -0.0490 C   0  0  0  0  0  0  0  0  0  0  0  0
   -0.8670    1.1200   -0.4970 C   0  0  0  0  0  0  0  0  0  0  0  0
    0.4150    0.3860   -0.1240 C   0  0  1  0  0  0  0  0  0  0  0  0
    0.5560    0.3360    1.3930 C   0  0  0  0  0  0  0  0  0  0  0  0
    0.3110   -1.0200   -0.7490 C   0  0  1  0  0  0  0  0  0  0  0  0
    0.1170   -0.9270   -1.8520 H   0  0  0  0  0  0  0  0  0  0  0  0
    1.7140   -1.5860   -0.5740 C   0  0  0  0  0  0  0  0  0  0  0  0
    2.6390   -0.3590   -0.7710 C   0  0  2  0  0  0  0  0  0  0  0  0
    3.1960   -0.4300   -1.7420 H   0  0  0  0  0  0  0  0  0  0  0  0
    3.5210   -0.2680    0.3270 O   0  0  0  0  0  0  0  0  0  0  0  0
    4.7440   -0.9270    0.1800 C   0  0  2  0  0  0  0  0  0  0  0  0
    5.3230   -0.5870   -0.7280 H   0  0  0  0  0  0  0  0  0  0  0  0
    4.4180   -2.2940    0.1200 O   0  0  0  0  0  0  0  0  0  0  0  0
    5.5510   -3.1220    0.0320 C   0  0  2  0  0  0  0  0  0  0  0  0
    6.1910   -2.8660   -0.8570 H   0  0  0  0  0  0  0  0  0  0  0  0
    4.9860   -4.5510   -0.1150 C   0  0  0  0  0  0  0  0  0  0  0  0
    4.4340   -4.6150   -1.3970 O   0  0  0  0  0  0  0  0  0  0  0  0
    6.3670   -2.9920    1.3450 C   0  0  1  0  0  0  0  0  0  0  0  0
    5.7500   -3.3240    2.2260 H   0  0  0  0  0  0  0  0  0  0  0  0
    7.4920   -3.7950    1.1660 O   0  0  0  0  0  0  0  0  0  0  0  0
    6.7920   -1.5100    1.5190 C   0  0  2  0  0  0  0  0  0  0  0  0
    7.4970   -1.2030    0.6960 H   0  0  0  0  0  0  0  0  0  0  0  0
    7.4050   -1.4480    2.7720 O   0  0  0  0  0  0  0  0  0  0  0  0
    5.5160   -0.6340    1.5000 C   0  0  1  0  0  0  0  0  0  0  0  0
    4.8710   -0.8610    2.3940 H   0  0  0  0  0  0  0  0  0  0  0  0
    5.9700    0.6830    1.5040 O   0  0  0  0  0  0  0  0  0  0  0  0
    1.7140    0.8970   -0.7900 C   0  0  2  0  0  0  0  0  0  0  0  0
    1.4890    1.1070   -1.8710 H   0  0  0  0  0  0  0  0  0  0  0  0
    2.3250    2.1720   -0.2080 C   0  0  2  0  0  0  0  0  0  0  0  0
    2.5870    2.0210    0.8690 H   0  0  0  0  0  0  0  0  0  0  0  0
    1.3290    3.3220   -0.3130 C   0  0  0  0  0  0  0  0  0  0  0  0
    3.6330    2.5380   -0.9580 C   0  0  1  0  0  0  0  0  0  0  0  0
    4.3610    1.6870   -0.9260 H   0  0  0  0  0  0  0  0  0  0  0  0
    3.4200    2.6930   -2.3270 O   0  0  0  0  0  0  0  0  0  0  0  0
    4.2870    3.7910   -0.3390 C   0  0  0  0  0  0  0  0  0  0  0  0
    5.5700    4.1540   -1.0790 C   0  0  0  0  0  0  0  0  0  0  0  0
    6.3860    5.2120   -0.3290 C   0  0  1  0  0  0  0  0  0  0  0  0
    7.7030    5.4530   -1.0590 C   0  0  0  0  0  0  0  0  0  0  0  0
    5.6180    6.5220   -0.2220 C   0  0  0  0  0  0  0  0  0  0  0  0
   -3.3870   -1.8920    0.0130 C   0  0  2  0  0  0  0  0  0  0  0  0
   -3.3930   -1.9050    1.5340 C   0  0  0  0  0  0  0  0  0  0  0  0
   -4.7220   -1.2870   -0.5180 C   0  0  2  0  0  0  0  0  0  0  0  0
   -4.6210   -1.1190   -1.6260 H   0  0  0  0  0  0  0  0  0  0  0  0
   -4.9180    0.0370   -0.0800 O   0  0  0  0  0  0  0  0  0  0  0  0
   -5.7060    0.3270    1.0370 C   0  0  2  0  0  0  0  0  0  0  0  0
   -5.6560   -0.4120    1.8800 H   0  0  0  0  0  0  0  0  0  0  0  0
   -7.0460    0.2860    0.6600 O   0  0  0  0  0  0  0  0  0  0  0  0
   -7.4360    1.1760   -0.3630 C   0  0  1  0  0  0  0  0  0  0  0  0
   -6.8760    0.9760   -1.3160 H   0  0  0  0  0  0  0  0  0  0  0  0
   -8.9260    0.9120   -0.5670 C   0  0  0  0  0  0  0  0  0  0  0  0
   -7.1970    2.6270    0.1140 C   0  0  2  0  0  0  0  0  0  0  0  0
   -7.8170    2.8500    1.0260 H   0  0  0  0  0  0  0  0  0  0  0  0
   -7.5210    3.4390   -0.9730 O   0  0  0  0  0  0  0  0  0  0  0  0
   -5.6900    2.8010    0.4360 C   0  0  1  0  0  0  0  0  0  0  0  0
   -5.0650    2.6650   -0.4890 H   0  0  0  0  0  0  0  0  0  0  0  0
   -5.5860    4.1090    0.9160 O   0  0  0  0  0  0  0  0  0  0  0  0
   -5.2650    1.7520    1.4920 C   0  0  1  0  0  0  0  0  0  0  0  0
   -4.1500    1.7680    1.6360 H   0  0  0  0  0  0  0  0  0  0  0  0
   -5.9270    2.1180    2.6630 O   0  0  0  0  0  0  0  0  0  0  0  0
   -5.9410   -2.1740   -0.2540 C   0  0  0  0  0  0  0  0  0  0  0  0
   -5.7390   -3.5830   -0.8190 C   0  0  2  0  0  0  0  0  0  0  0  0
   -5.6590   -3.5440   -1.9410 H   0  0  0  0  0  0  0  0  0  0  0  0
   -6.7890   -4.4200   -0.4310 O   0  0  0  0  0  0  0  0  0  0  0  0
   -4.4780   -4.1970   -0.2090 C   0  0  0  0  0  0  0  0  0  0  0  0
   -1.9660   -4.1200    0.9830 H   0  0  0  0  0  0  0  0  0  0  0  0
   -1.9710   -5.0610   -0.4940 H   0  0  0  0  0  0  0  0  0  0  0  0
    0.1370   -3.7520   -0.3150 H   0  0  0  0  0  0  0  0  0  0  0  0
   -0.7560   -3.2780   -1.7480 H   0  0  0  0  0  0  0  0  0  0  0  0
   -2.9850    0.9090   -0.4400 H   0  0  0  0  0  0  0  0  0  0  0  0
   -2.2170    0.3850    1.0570 H   0  0  0  0  0  0  0  0  0  0  0  0
   -0.9080    1.3130   -1.5900 H   0  0  0  0  0  0  0  0  0  0  0  0
   -0.8890    2.1360   -0.0410 H   0  0  0  0  0  0  0  0  0  0  0  0
   -0.1310   -0.3950    1.8550 H   0  0  0  0  0  0  0  0  0  0  0  0
    1.5560    0.0370    1.7390 H   0  0  0  0  0  0  0  0  0  0  0  0
    0.3420    1.3010    1.8730 H   0  0  0  0  0  0  0  0  0  0  0  0
    1.8460   -2.0590    0.4210 H   0  0  0  0  0  0  0  0  0  0  0  0
    1.9500   -2.3930   -1.2900 H   0  0  0  0  0  0  0  0  0  0  0  0
    5.8070   -5.2990   -0.0260 H   0  0  0  0  0  0  0  0  0  0  0  0
    4.2650   -4.7810    0.6990 H   0  0  0  0  0  0  0  0  0  0  0  0
    3.6650   -5.2000   -1.3440 H   0  0  0  0  0  0  0  0  0  0  0  0
    8.0180   -3.7470    1.9700 H   0  0  0  0  0  0  0  0  0  0  0  0
    7.7140   -0.5450    2.8980 H   0  0  0  0  0  0  0  0  0  0  0  0
    5.1970    1.2580    1.5360 H   0  0  0  0  0  0  0  0  0  0  0  0
    0.9190    3.4480   -1.3290 H   0  0  0  0  0  0  0  0  0  0  0  0
    0.4550    3.1770    0.3460 H   0  0  0  0  0  0  0  0  0  0  0  0
    1.7770    4.2960   -0.0330 H   0  0  0  0  0  0  0  0  0  0  0  0
    2.9350    3.5110   -2.4760 H   0  0  0  0  0  0  0  0  0  0  0  0
    3.5720    4.6430   -0.3440 H   0  0  0  0  0  0  0  0  0  0  0  0
    4.4920    3.6060    0.7370 H   0  0  0  0  0  0  0  0  0  0  0  0
    6.1920    3.2460   -1.2330 H   0  0  0  0  0  0  0  0  0  0  0  0
    5.3370    4.5010   -2.1070 H   0  0  0  0  0  0  0  0  0  0  0  0
    6.6120    4.8380    0.7020 H   0  0  0  0  0  0  0  0  0  0  0  0
    7.5540    5.8320   -2.0780 H   0  0  0  0  0  0  0  0  0  0  0  0
    8.3360    6.1840   -0.5360 H   0  0  0  0  0  0  0  0  0  0  0  0
    8.3000    4.5350   -1.1480 H   0  0  0  0  0  0  0  0  0  0  0  0
    5.2570    6.8750   -1.1940 H   0  0  0  0  0  0  0  0  0  0  0  0
    4.7440    6.4410    0.4450 H   0  0  0  0  0  0  0  0  0  0  0  0
    6.2370    7.3310    0.1950 H   0  0  0  0  0  0  0  0  0  0  0  0
   -3.2590   -0.8920    1.9510 H   0  0  0  0  0  0  0  0  0  0  0  0
   -4.3210   -2.3110    1.9620 H   0  0  0  0  0  0  0  0  0  0  0  0
   -2.5870   -2.5210    1.9650 H   0  0  0  0  0  0  0  0  0  0  0  0
   -9.5170    1.0980    0.3420 H   0  0  0  0  0  0  0  0  0  0  0  0
   -9.3310    1.5620   -1.3580 H   0  0  0  0  0  0  0  0  0  0  0  0
   -9.1190   -0.1300   -0.8650 H   0  0  0  0  0  0  0  0  0  0  0  0
   -7.6690    4.3340   -0.6320 H   0  0  0  0  0  0  0  0  0  0  0  0
   -4.7460    4.1970    1.3800 H   0  0  0  0  0  0  0  0  0  0  0  0
   -5.7020    1.4770    3.3460 H   0  0  0  0  0  0  0  0  0  0  0  0
   -6.1850   -2.2460    0.8260 H   0  0  0  0  0  0  0  0  0  0  0  0
   -6.8430   -1.7130   -0.7150 H   0  0  0  0  0  0  0  0  0  0  0  0
   -7.6070   -4.0590   -0.7840 H   0  0  0  0  0  0  0  0  0  0  0  0
   -4.3420   -5.2300   -0.5940 H   0  0  0  0  0  0  0  0  0  0  0  0
   -4.5840   -4.3340    0.8860 H   0  0  0  0  0  0  0  0  0  0  0  0
  2  1  1  6
  2 72  1  0
  2  3  1  0
  2 48  1  0
  3  4  1  0
  3 74  1  0
  3 73  1  0
  4 76  1  0
  4 75  1  0
  4  5  1  0
  5 13  1  0
  5  7  1  0
  5  6  1  1
  7  8  1  6
  7  9  1  0
  7 48  1  0
  9 10  1  0
  9 77  1  0
  9 78  1  0
 10 79  1  0
 10 11  1  0
 10 80  1  0
 11 35  1  0
 11 13  1  0
 11 12  1  1
 12 82  1  0
 12 81  1  0
 12 83  1  0
 13 14  1  6
 13 15  1  0
 15 85  1  0
 15 16  1  0
 15 84  1  0
 16 17  1  6
 16 35  1  0
 16 18  1  0
 18 19  1  0
 19 20  1  6
 19 21  1  0
 19 32  1  0
 21 22  1  0
 22 23  1  6
 22 24  1  0
 22 26  1  0
 24 25  1  0
 24 86  1  0
 24 87  1  0
 25 88  1  0
 26 28  1  0
 26 29  1  0
 26 27  1  1
 28 89  1  0
 29 30  1  6
 29 32  1  0
 29 31  1  0
 31 90  1  0
 32 34  1  0
 32 33  1  1
 34 91  1  0
 35 36  1  6
 35 37  1  0
 37 40  1  0
 37 39  1  0
 37 38  1  1
 39 92  1  0
 39 94  1  0
 39 93  1  0
 40 42  1  0
 40 41  1  6
 40 43  1  0
 42 95  1  0
 43 44  1  0
 43 96  1  0
 43 97  1  0
 44 99  1  0
 44 98  1  0
 44 45  1  0
 45 46  1  0
 45 47  1  0
 45100  1  1
 46101  1  0
 46103  1  0
 46102  1  0
 47104  1  0
 47106  1  0
 47105  1  0
 48 50  1  0
 48 49  1  1
 49107  1  0
 49108  1  0
 49109  1  0
 50 51  1  6
 50 68  1  0
 50 52  1  0
 52 53  1  0
 53 55  1  0
 53 65  1  0
 53 54  1  1
 55 56  1  0
 56 57  1  6
 56 58  1  0
 56 59  1  0
 58111  1  0
 58112  1  0
 58110  1  0
 59 61  1  0
 59 62  1  0
 59 60  1  1
 61113  1  0
 62 63  1  6
 62 64  1  0
 62 65  1  0
 64114  1  0
 65 66  1  1
 65 67  1  0
 67115  1  0
 68 69  1  0
 68117  1  0
 68116  1  0
 69 70  1  6
 69 71  1  0
 69 72  1  0
 71118  1  0
 72119  1  0
 72120  1  0
M  END
>  <id>  (562) 
666

>  <scaffolds>  (562) 
['C1CCC(OC2CC3CCC4C(CCC5CCCC(OC6CCCCO6)C54)C3C2)OC1', 'C1CCOCC1', 'C1CCC(C2CCCC2)CC1', 'C1CCCCC1', 'C1CCC2C(C1)CCC1C3CCCC3CCC21', 'C1CCC2CCCCC2C1']

>  <name>  (562) 
(22S)-16[beta]-[([beta]-D-glucopyranosyl)oxy]-3[beta],22-dihydroxy-5[alpha]-cholestan-1[beta]-yl [alpha]-L-rhamnopyranoside

>  <formula>  (562) 
C39H68O13

>  <SMILES>  (562) 
[H][C@@]46CC[C@]1([H])[C@]([H])(CC[C@@]3(C)[C@@]1([H])C[C@H](O[C@]2([H])O[C@H](CO)[C@@H](O)[C@H](O)[C@H]2O)[C@]3([H])[C@H](C)[C@@H](O)CCC(C)C)[C@@]4(C)[C@H](O[C@]5([H])O[C@@H](C)[C@H](O)[C@@H](O)[C@H]5O)C[C@H](O)C6

>  <ChEMBL_id>  (562) 


>  <ZINC_id>  (562) 


>  <PubChem_id>  (562) 


>  <DrugBank_id>  (562) 


>  <CAS_no>  (562) 
142182-46-5

>  <references>  (562) 
[{'journal': {'name': 'Journal of Natural Products', 'id': 5}, 'title': 'Steroidal Glycosides from the Bulbs of Ornithogalum thyrsoides', 'year': 2004, 'start_page': 1690, 'volume': 67, 'issue': 10, 'doi': '10.1021/np040108i', 'isbn': '', 'despositor': {'code': 'NFA', 'first_name': 'Ngonidzashe', 'last_name': 'Faya', 'id': 21}, 'refauthors_set': [{'author': {'first_name': 'Minpei', 'initials': 'M', 'last_name': 'Kuroda', 'id': 644}, 'first_author': True, 'id': 893}, {'author': {'first_name': 'Yoshihiro ', 'initials': 'Y', 'last_name': 'Mimaki', 'id': 643}, 'first_author': None, 'id': 1204}, {'author': {'first_name': 'Kazutomo', 'initials': 'K', 'last_name': 'Ori', 'id': 793}, 'first_author': None, 'id': 1205}, {'author': {'first_name': 'Hiroshi', 'initials': 'H', 'last_name': 'Sakagami', 'id': 653}, 'first_author': None, 'id': 1206}, {'author': {'first_name': 'Yutaka', 'initials': 'Y', 'last_name': 'Sashida', 'id': 645}, 'first_author': None, 'id': 1207}], 'id': 308}]

>  <classifications>  (562) 
[{'classification': 'Steroids and steroid derivatives (Classyfire)', 'id': 942}]

>  <molecular_mass>  (562) 
744.95

$$$$
SANC00667_minRM1.pdb
     RDKit          3D

125130  0  0  1  0  0  0  0  0999 V2000
   -3.2000   -3.3000   -1.3710 H   0  0  0  0  0  0  0  0  0  0  0  0
   -3.2210   -3.2880   -0.2460 C   0  0  2  0  0  0  0  0  0  0  0  0
   -1.8770   -3.8220    0.2430 C   0  0  0  0  0  0  0  0  0  0  0  0
   -0.7520   -2.9900   -0.3470 C   0  0  0  0  0  0  0  0  0  0  0  0
   -0.9270   -1.5280    0.0420 C   0  0  2  0  0  0  0  0  0  0  0  0
   -0.8200   -1.4350    1.1560 H   0  0  0  0  0  0  0  0  0  0  0  0
   -2.3010   -0.9850   -0.3990 C   0  0  2  0  0  0  0  0  0  0  0  0
   -2.3730   -1.0730   -1.5170 H   0  0  0  0  0  0  0  0  0  0  0  0
   -2.3890    0.5030   -0.0450 C   0  0  0  0  0  0  0  0  0  0  0  0
   -1.2200    1.3460   -0.5590 C   0  0  0  0  0  0  0  0  0  0  0  0
    0.1200    0.7670   -0.1250 C   0  0  1  0  0  0  0  0  0  0  0  0
    0.2560    0.8450    1.3920 C   0  0  0  0  0  0  0  0  0  0  0  0
    0.1480   -0.6870   -0.6370 C   0  0  1  0  0  0  0  0  0  0  0  0
   -0.0480   -0.6990   -1.7440 H   0  0  0  0  0  0  0  0  0  0  0  0
    1.5950   -1.1060   -0.4160 C   0  0  0  0  0  0  0  0  0  0  0  0
    2.4040    0.1780   -0.7190 C   0  0  2  0  0  0  0  0  0  0  0  0
    2.9570    0.0830   -1.6910 H   0  0  0  0  0  0  0  0  0  0  0  0
    3.2870    0.4360    0.3520 O   0  0  0  0  0  0  0  0  0  0  0  0
    4.5480   -0.1560    0.2460 C   0  0  2  0  0  0  0  0  0  0  0  0
    5.0790    0.0950   -0.7190 H   0  0  0  0  0  0  0  0  0  0  0  0
    4.3100   -1.5350    0.3740 O   0  0  0  0  0  0  0  0  0  0  0  0
    5.4810   -2.3100    0.3750 C   0  0  2  0  0  0  0  0  0  0  0  0
    6.0850   -2.1600   -0.5620 H   0  0  0  0  0  0  0  0  0  0  0  0
    4.9870   -3.7670    0.4750 C   0  0  0  0  0  0  0  0  0  0  0  0
    4.3750   -4.0090   -0.7750 O   0  0  0  0  0  0  0  0  0  0  0  0
    3.7020   -5.1770   -0.9370 C   0  0  0  0  0  0  0  0  0  0  0  0
    3.0800   -5.2620   -2.2980 C   0  0  0  0  0  0  0  0  0  0  0  0
    3.6540   -5.9990   -0.0340 O   0  0  0  0  0  0  0  0  0  0  0  0
    6.3200   -1.9510    1.6270 C   0  0  1  0  0  0  0  0  0  0  0  0
    5.7490   -2.1870    2.5640 H   0  0  0  0  0  0  0  0  0  0  0  0
    7.4850   -2.7090    1.5200 O   0  0  0  0  0  0  0  0  0  0  0  0
    6.6620   -0.4390    1.5750 C   0  0  2  0  0  0  0  0  0  0  0  0
    7.3230   -0.2170    0.6930 H   0  0  0  0  0  0  0  0  0  0  0  0
    7.3090   -0.1700    2.7760 O   0  0  0  0  0  0  0  0  0  0  0  0
    5.3400    0.3570    1.4820 C   0  0  1  0  0  0  0  0  0  0  0  0
    4.7370    0.2250    2.4210 H   0  0  0  0  0  0  0  0  0  0  0  0
    5.7230    1.6820    1.2880 O   0  0  0  0  0  0  0  0  0  0  0  0
    1.3720    1.3450   -0.8270 C   0  0  2  0  0  0  0  0  0  0  0  0
    1.1370    1.4600   -1.9200 H   0  0  0  0  0  0  0  0  0  0  0  0
    1.8670    2.7050   -0.3350 C   0  0  2  0  0  0  0  0  0  0  0  0
    2.1360    2.6460    0.7500 H   0  0  0  0  0  0  0  0  0  0  0  0
    0.7800    3.7590   -0.5130 C   0  0  0  0  0  0  0  0  0  0  0  0
    3.1450    3.1200   -1.1120 C   0  0  1  0  0  0  0  0  0  0  0  0
    3.9180    2.3110   -1.0650 H   0  0  0  0  0  0  0  0  0  0  0  0
    2.9170    3.2140   -2.4820 O   0  0  0  0  0  0  0  0  0  0  0  0
    3.7450    4.4220   -0.5470 C   0  0  0  0  0  0  0  0  0  0  0  0
    5.1300    4.6630   -1.1380 C   0  0  0  0  0  0  0  0  0  0  0  0
    5.7540    5.9680   -0.6310 C   0  0  1  0  0  0  0  0  0  0  0  0
    6.1140    5.8640    0.8470 C   0  0  0  0  0  0  0  0  0  0  0  0
    7.0130    6.2730   -1.4390 C   0  0  0  0  0  0  0  0  0  0  0  0
   -3.4560   -1.8320    0.2120 C   0  0  2  0  0  0  0  0  0  0  0  0
   -3.4670   -1.7070    1.7260 C   0  0  0  0  0  0  0  0  0  0  0  0
   -4.8400   -1.4080   -0.3690 C   0  0  2  0  0  0  0  0  0  0  0  0
   -4.7490   -1.3390   -1.4880 H   0  0  0  0  0  0  0  0  0  0  0  0
   -5.1620   -0.0740   -0.0610 O   0  0  0  0  0  0  0  0  0  0  0  0
   -5.9870    0.2480    1.0180 C   0  0  2  0  0  0  0  0  0  0  0  0
   -5.8850   -0.4040    1.9270 H   0  0  0  0  0  0  0  0  0  0  0  0
   -7.3130    0.0560    0.6400 O   0  0  0  0  0  0  0  0  0  0  0  0
   -7.7640    0.8100   -0.4630 C   0  0  1  0  0  0  0  0  0  0  0  0
   -7.1760    0.5730   -1.3910 H   0  0  0  0  0  0  0  0  0  0  0  0
   -9.2240    0.4040   -0.6470 C   0  0  0  0  0  0  0  0  0  0  0  0
   -7.6580    2.3140   -0.1220 C   0  0  2  0  0  0  0  0  0  0  0  0
   -8.3060    2.5640    0.7620 H   0  0  0  0  0  0  0  0  0  0  0  0
   -8.0340    2.9900   -1.2820 O   0  0  0  0  0  0  0  0  0  0  0  0
   -6.1780    2.6480    0.1910 C   0  0  1  0  0  0  0  0  0  0  0  0
   -5.5310    2.4830   -0.7150 H   0  0  0  0  0  0  0  0  0  0  0  0
   -6.1930    3.9950    0.5560 O   0  0  0  0  0  0  0  0  0  0  0  0
   -5.6750    1.7420    1.3400 C   0  0  1  0  0  0  0  0  0  0  0  0
   -4.5670    1.8680    1.4890 H   0  0  0  0  0  0  0  0  0  0  0  0
   -6.3810    2.1540    2.4680 O   0  0  0  0  0  0  0  0  0  0  0  0
   -5.9720   -2.3770   -0.0160 C   0  0  0  0  0  0  0  0  0  0  0  0
   -5.6390   -3.8070   -0.4500 C   0  0  2  0  0  0  0  0  0  0  0  0
   -5.5620   -3.8640   -1.5700 H   0  0  0  0  0  0  0  0  0  0  0  0
   -6.6010   -4.7000    0.0280 O   0  0  0  0  0  0  0  0  0  0  0  0
   -4.3250   -4.2390    0.2040 C   0  0  0  0  0  0  0  0  0  0  0  0
   -1.8250   -3.8390    1.3520 H   0  0  0  0  0  0  0  0  0  0  0  0
   -1.7490   -4.8870   -0.0450 H   0  0  0  0  0  0  0  0  0  0  0  0
    0.2270   -3.3790    0.0070 H   0  0  0  0  0  0  0  0  0  0  0  0
   -0.7130   -3.1080   -1.4500 H   0  0  0  0  0  0  0  0  0  0  0  0
   -3.3110    0.9490   -0.4770 H   0  0  0  0  0  0  0  0  0  0  0  0
   -2.5000    0.6230    1.0550 H   0  0  0  0  0  0  0  0  0  0  0  0
   -1.2720    1.4440   -1.6640 H   0  0  0  0  0  0  0  0  0  0  0  0
   -1.3380    2.3910   -0.1880 H   0  0  0  0  0  0  0  0  0  0  0  0
   -0.3640    0.0920    1.9090 H   0  0  0  0  0  0  0  0  0  0  0  0
    1.2780    0.6680    1.7550 H   0  0  0  0  0  0  0  0  0  0  0  0
   -0.0490    1.8190    1.7990 H   0  0  0  0  0  0  0  0  0  0  0  0
    1.7610   -1.4780    0.6150 H   0  0  0  0  0  0  0  0  0  0  0  0
    1.9070   -1.9430   -1.0740 H   0  0  0  0  0  0  0  0  0  0  0  0
    5.8320   -4.4730    0.6530 H   0  0  0  0  0  0  0  0  0  0  0  0
    4.2690   -3.9030    1.3180 H   0  0  0  0  0  0  0  0  0  0  0  0
    3.8240   -5.1260   -3.0990 H   0  0  0  0  0  0  0  0  0  0  0  0
    2.5950   -6.2420   -2.4600 H   0  0  0  0  0  0  0  0  0  0  0  0
    2.3170   -4.4800   -2.4280 H   0  0  0  0  0  0  0  0  0  0  0  0
    8.0150   -2.5410    2.3040 H   0  0  0  0  0  0  0  0  0  0  0  0
    7.5710    0.7560    2.7620 H   0  0  0  0  0  0  0  0  0  0  0  0
    4.9240    2.2220    1.2780 H   0  0  0  0  0  0  0  0  0  0  0  0
    0.3910    3.8130   -1.5410 H   0  0  0  0  0  0  0  0  0  0  0  0
   -0.0990    3.5630    0.1250 H   0  0  0  0  0  0  0  0  0  0  0  0
    1.1200    4.7710   -0.2450 H   0  0  0  0  0  0  0  0  0  0  0  0
    2.3740    3.9880   -2.6590 H   0  0  0  0  0  0  0  0  0  0  0  0
    3.0840    5.2910   -0.7510 H   0  0  0  0  0  0  0  0  0  0  0  0
    3.7880    4.3630    0.5590 H   0  0  0  0  0  0  0  0  0  0  0  0
    5.8030    3.8070   -0.9140 H   0  0  0  0  0  0  0  0  0  0  0  0
    5.0620    4.6770   -2.2480 H   0  0  0  0  0  0  0  0  0  0  0  0
    5.0260    6.8090   -0.7710 H   0  0  0  0  0  0  0  0  0  0  0  0
    6.7450    4.9880    1.0640 H   0  0  0  0  0  0  0  0  0  0  0  0
    6.6690    6.7480    1.1970 H   0  0  0  0  0  0  0  0  0  0  0  0
    5.2290    5.7910    1.4990 H   0  0  0  0  0  0  0  0  0  0  0  0
    6.8010    6.3950   -2.5100 H   0  0  0  0  0  0  0  0  0  0  0  0
    7.4950    7.2070   -1.1130 H   0  0  0  0  0  0  0  0  0  0  0  0
    7.7680    5.4790   -1.3490 H   0  0  0  0  0  0  0  0  0  0  0  0
   -3.4500   -0.6520    2.0500 H   0  0  0  0  0  0  0  0  0  0  0  0
   -4.3450   -2.1720    2.1970 H   0  0  0  0  0  0  0  0  0  0  0  0
   -2.5990   -2.1850    2.2070 H   0  0  0  0  0  0  0  0  0  0  0  0
   -9.8400    0.6170    0.2370 H   0  0  0  0  0  0  0  0  0  0  0  0
   -9.6690    0.9410   -1.4980 H   0  0  0  0  0  0  0  0  0  0  0  0
   -9.3230   -0.6710   -0.8610 H   0  0  0  0  0  0  0  0  0  0  0  0
   -8.3170    3.8770   -1.0110 H   0  0  0  0  0  0  0  0  0  0  0  0
   -5.3650    4.2000    0.9740 H   0  0  0  0  0  0  0  0  0  0  0  0
   -6.1120    1.6070    3.2110 H   0  0  0  0  0  0  0  0  0  0  0  0
   -6.2130   -2.3690    1.0680 H   0  0  0  0  0  0  0  0  0  0  0  0
   -6.9110   -2.0480   -0.5130 H   0  0  0  0  0  0  0  0  0  0  0  0
   -7.4490   -4.4450   -0.3490 H   0  0  0  0  0  0  0  0  0  0  0  0
   -4.0880   -5.2840   -0.0910 H   0  0  0  0  0  0  0  0  0  0  0  0
   -4.4170   -4.2860    1.3070 H   0  0  0  0  0  0  0  0  0  0  0  0
  2  1  1  6
  2 75  1  0
  2 51  1  0
  2  3  1  0
  3  4  1  0
  3 77  1  0
  3 76  1  0
  4 79  1  0
  4 78  1  0
  4  5  1  0
  5 13  1  0
  5  7  1  0
  5  6  1  1
  7  8  1  6
  7  9  1  0
  7 51  1  0
  9 10  1  0
  9 80  1  0
  9 81  1  0
 10 82  1  0
 10 83  1  0
 10 11  1  0
 11 38  1  0
 11 13  1  0
 11 12  1  1
 12 85  1  0
 12 86  1  0
 12 84  1  0
 13 14  1  6
 13 15  1  0
 15 88  1  0
 15 16  1  0
 15 87  1  0
 16 17  1  6
 16 38  1  0
 16 18  1  0
 18 19  1  0
 19 20  1  6
 19 21  1  0
 19 35  1  0
 21 22  1  0
 22 23  1  6
 22 24  1  0
 22 29  1  0
 24 25  1  0
 24 89  1  0
 24 90  1  0
 25 26  1  0
 26 27  1  0
 26 28  2  0
 27 91  1  0
 27 92  1  0
 27 93  1  0
 29 31  1  0
 29 32  1  0
 29 30  1  1
 31 94  1  0
 32 33  1  6
 32 35  1  0
 32 34  1  0
 34 95  1  0
 35 37  1  0
 35 36  1  1
 37 96  1  0
 38 39  1  6
 38 40  1  0
 40 43  1  0
 40 42  1  0
 40 41  1  1
 42 97  1  0
 42 99  1  0
 42 98  1  0
 43 45  1  0
 43 44  1  6
 43 46  1  0
 45100  1  0
 46 47  1  0
 46101  1  0
 46102  1  0
 47104  1  0
 47103  1  0
 47 48  1  0
 48 50  1  0
 48105  1  1
 48 49  1  0
 49106  1  0
 49107  1  0
 49108  1  0
 50109  1  0
 50111  1  0
 50110  1  0
 51 53  1  0
 51 52  1  1
 52112  1  0
 52113  1  0
 52114  1  0
 53 54  1  6
 53 55  1  0
 53 71  1  0
 55 56  1  0
 56 58  1  0
 56 68  1  0
 56 57  1  1
 58 59  1  0
 59 60  1  6
 59 61  1  0
 59 62  1  0
 61116  1  0
 61117  1  0
 61115  1  0
 62 64  1  0
 62 65  1  0
 62 63  1  1
 64118  1  0
 65 66  1  6
 65 67  1  0
 65 68  1  0
 67119  1  0
 68 69  1  1
 68 70  1  0
 70120  1  0
 71122  1  0
 71 72  1  0
 71121  1  0
 72 73  1  6
 72 74  1  0
 72 75  1  0
 74123  1  0
 75124  1  0
 75125  1  0
M  END
>  <id>  (563) 
667

>  <scaffolds>  (563) 
['C1CCC(OC2CC3CCC4C(CCC5CCCC(OC6CCCCO6)C54)C3C2)OC1', 'C1CCOCC1', 'C1CCC(C2CCCC2)CC1', 'C1CCCCC1', 'C1CCC2C(C1)CCC1C3CCCC3CCC21', 'C1CCC2CCCCC2C1']

>  <name>  (563) 
(22S)-16[beta]-[(6-O-acetyl-[beta]-D-glucopyranosyl)oxy]-3[beta],22-dihydroxy-5[alpha]-cholestan-1[beta]-yl [alpha]-L-rhamnopyranoside

>  <formula>  (563) 
C41H70O14

>  <SMILES>  (563) 
[H][C@@]46CC[C@]1([H])[C@]([H])(CC[C@@]3(C)[C@@]1([H])C[C@H](O[C@]2([H])O[C@H](COC(C)=O)[C@@H](O)[C@H](O)[C@H]2O)[C@]3([H])[C@H](C)[C@@H](O)CCC(C)C)[C@@]4(C)[C@H](O[C@]5([H])O[C@@H](C)[C@H](O)[C@@H](O)[C@H]5O)C[C@H](O)C6

>  <ChEMBL_id>  (563) 


>  <ZINC_id>  (563) 


>  <PubChem_id>  (563) 


>  <DrugBank_id>  (563) 


>  <CAS_no>  (563) 
142182-47-6

>  <references>  (563) 
[{'journal': {'name': 'Journal of Natural Products', 'id': 5}, 'title': 'Steroidal Glycosides from the Bulbs of Ornithogalum thyrsoides', 'year': 2004, 'start_page': 1690, 'volume': 67, 'issue': 10, 'doi': '10.1021/np040108i', 'isbn': '', 'despositor': {'code': 'NFA', 'first_name': 'Ngonidzashe', 'last_name': 'Faya', 'id': 21}, 'refauthors_set': [{'author': {'first_name': 'Minpei', 'initials': 'M', 'last_name': 'Kuroda', 'id': 644}, 'first_author': True, 'id': 893}, {'author': {'first_name': 'Yoshihiro ', 'initials': 'Y', 'last_name': 'Mimaki', 'id': 643}, 'first_author': None, 'id': 1204}, {'author': {'first_name': 'Kazutomo', 'initials': 'K', 'last_name': 'Ori', 'id': 793}, 'first_author': None, 'id': 1205}, {'author': {'first_name': 'Hiroshi', 'initials': 'H', 'last_name': 'Sakagami', 'id': 653}, 'first_author': None, 'id': 1206}, {'author': {'first_name': 'Yutaka', 'initials': 'Y', 'last_name': 'Sashida', 'id': 645}, 'first_author': None, 'id': 1207}], 'id': 308}]

>  <classifications>  (563) 
[{'classification': 'Steroids and steroid derivatives (Classyfire)', 'id': 942}]

>  <molecular_mass>  (563) 
786.98

$$$$
SANC00668_minRM1.pdb
     RDKit          3D

117122  0  0  1  0  0  0  0  0999 V2000
   -3.2630   -2.8590   -2.1840 H   0  0  0  0  0  0  0  0  0  0  0  0
   -3.2590   -3.0980   -1.0850 C   0  0  2  0  0  0  0  0  0  0  0  0
   -2.0210   -3.9450   -0.8040 C   0  0  0  0  0  0  0  0  0  0  0  0
   -0.7790   -3.2010   -1.2640 C   0  0  0  0  0  0  0  0  0  0  0  0
   -0.6860   -1.8510   -0.5670 C   0  0  2  0  0  0  0  0  0  0  0  0
   -0.5330   -2.0230    0.5320 H   0  0  0  0  0  0  0  0  0  0  0  0
   -1.9570   -1.0040   -0.7880 C   0  0  2  0  0  0  0  0  0  0  0  0
   -2.0720   -0.8170   -1.8880 H   0  0  0  0  0  0  0  0  0  0  0  0
   -1.7730    0.3560   -0.1070 C   0  0  0  0  0  0  0  0  0  0  0  0
   -0.5000    1.0950   -0.5270 C   0  0  0  0  0  0  0  0  0  0  0  0
    0.7360    0.2290   -0.3290 C   0  0  1  0  0  0  0  0  0  0  0  0
    0.9490   -0.0330    1.1580 C   0  0  0  0  0  0  0  0  0  0  0  0
    0.4980   -1.0700   -1.1250 C   0  0  1  0  0  0  0  0  0  0  0  0
    0.2720   -0.8190   -2.1980 H   0  0  0  0  0  0  0  0  0  0  0  0
    1.8610   -1.7510   -1.0900 C   0  0  0  0  0  0  0  0  0  0  0  0
    2.8720   -0.5770   -1.1560 C   0  0  2  0  0  0  0  0  0  0  0  0
    3.3960   -0.5620   -2.1490 H   0  0  0  0  0  0  0  0  0  0  0  0
    3.7830   -0.6800   -0.0850 O   0  0  0  0  0  0  0  0  0  0  0  0
    4.9590   -1.3900   -0.3560 C   0  0  2  0  0  0  0  0  0  0  0  0
    5.4330   -1.1410   -1.3470 H   0  0  0  0  0  0  0  0  0  0  0  0
    4.6600   -2.7400   -0.4820 O   0  0  0  0  0  0  0  0  0  0  0  0
    4.1460   -3.3890    0.6600 C   0  0  1  0  0  0  0  0  0  0  0  0
    3.1440   -2.9560    0.9430 H   0  0  0  0  0  0  0  0  0  0  0  0
    3.9930   -4.8520    0.2420 C   0  0  0  0  0  0  0  0  0  0  0  0
    5.1440   -3.2590    1.8320 C   0  0  2  0  0  0  0  0  0  0  0  0
    6.1120   -3.7700    1.5840 H   0  0  0  0  0  0  0  0  0  0  0  0
    4.4960   -3.8090    2.9390 O   0  0  0  0  0  0  0  0  0  0  0  0
    5.3910   -1.7570    2.1210 C   0  0  1  0  0  0  0  0  0  0  0  0
    4.4420   -1.2510    2.4510 H   0  0  0  0  0  0  0  0  0  0  0  0
    6.3390   -1.7480    3.1430 O   0  0  0  0  0  0  0  0  0  0  0  0
    5.9050   -1.0670    0.8360 C   0  0  1  0  0  0  0  0  0  0  0  0
    5.9550    0.0490    0.9800 H   0  0  0  0  0  0  0  0  0  0  0  0
    7.1730   -1.6010    0.6100 O   0  0  0  0  0  0  0  0  0  0  0  0
    2.0370    0.7310   -0.9950 C   0  0  2  0  0  0  0  0  0  0  0  0
    1.7890    1.0750   -2.0350 H   0  0  0  0  0  0  0  0  0  0  0  0
    2.7440    1.8930   -0.3000 C   0  0  2  0  0  0  0  0  0  0  0  0
    2.9920    1.6240    0.7560 H   0  0  0  0  0  0  0  0  0  0  0  0
    1.8390    3.1200   -0.3040 C   0  0  0  0  0  0  0  0  0  0  0  0
    4.0760    2.2290   -1.0190 C   0  0  1  0  0  0  0  0  0  0  0  0
    4.7320    1.3240   -1.0960 H   0  0  0  0  0  0  0  0  0  0  0  0
    3.8610    2.5490   -2.3630 O   0  0  0  0  0  0  0  0  0  0  0  0
    4.8400    3.3370   -0.2690 C   0  0  0  0  0  0  0  0  0  0  0  0
    6.0200    3.8030   -1.0450 C   0  0  0  0  0  0  0  0  0  0  0  0
    6.5770    5.0030   -0.8770 C   0  0  0  0  0  0  0  0  0  0  0  0
    6.0820    6.0050    0.0980 C   0  0  0  0  0  0  0  0  0  0  0  0
    7.7560    5.4310   -1.6810 C   0  0  0  0  0  0  0  0  0  0  0  0
   -3.2250   -1.7650   -0.3050 C   0  0  2  0  0  0  0  0  0  0  0  0
   -3.1680   -1.9840    1.1960 C   0  0  0  0  0  0  0  0  0  0  0  0
   -4.5270   -0.9980   -0.6900 C   0  0  2  0  0  0  0  0  0  0  0  0
   -4.4510   -0.6950   -1.7710 H   0  0  0  0  0  0  0  0  0  0  0  0
   -4.5970    0.2670   -0.0810 O   0  0  0  0  0  0  0  0  0  0  0  0
   -5.3220    0.4670    1.0960 C   0  0  2  0  0  0  0  0  0  0  0  0
   -5.3060   -0.3790    1.8320 H   0  0  0  0  0  0  0  0  0  0  0  0
   -6.6710    0.5810    0.7760 O   0  0  0  0  0  0  0  0  0  0  0  0
   -7.0230    1.6200   -0.1070 C   0  0  1  0  0  0  0  0  0  0  0  0
   -6.5160    1.4980   -1.1020 H   0  0  0  0  0  0  0  0  0  0  0  0
   -8.5360    1.4970   -0.2720 C   0  0  0  0  0  0  0  0  0  0  0  0
   -6.6460    2.9770    0.5280 C   0  0  2  0  0  0  0  0  0  0  0  0
   -7.2220    3.1350    1.4780 H   0  0  0  0  0  0  0  0  0  0  0  0
   -6.9160    3.9380   -0.4460 O   0  0  0  0  0  0  0  0  0  0  0  0
   -5.1240    2.9880    0.8170 C   0  0  1  0  0  0  0  0  0  0  0  0
   -4.5360    2.9290   -0.1380 H   0  0  0  0  0  0  0  0  0  0  0  0
   -4.9070    4.2070    1.4570 O   0  0  0  0  0  0  0  0  0  0  0  0
   -4.7570    1.7820    1.7120 C   0  0  1  0  0  0  0  0  0  0  0  0
   -3.6410    1.6940    1.8180 H   0  0  0  0  0  0  0  0  0  0  0  0
   -5.3570    2.0430    2.9420 O   0  0  0  0  0  0  0  0  0  0  0  0
   -5.8040   -1.8150   -0.4930 C   0  0  0  0  0  0  0  0  0  0  0  0
   -5.7310   -3.1400   -1.2560 C   0  0  2  0  0  0  0  0  0  0  0  0
   -5.6780   -2.9490   -2.3640 H   0  0  0  0  0  0  0  0  0  0  0  0
   -6.8330   -3.9490   -0.9520 O   0  0  0  0  0  0  0  0  0  0  0  0
   -4.5050   -3.9220   -0.7820 C   0  0  0  0  0  0  0  0  0  0  0  0
   -1.9490   -4.2190    0.2680 H   0  0  0  0  0  0  0  0  0  0  0  0
   -2.0890   -4.9220   -1.3310 H   0  0  0  0  0  0  0  0  0  0  0  0
    0.1250   -3.8150   -1.0610 H   0  0  0  0  0  0  0  0  0  0  0  0
   -0.7800   -3.0810   -2.3690 H   0  0  0  0  0  0  0  0  0  0  0  0
   -2.6260    1.0250   -0.3450 H   0  0  0  0  0  0  0  0  0  0  0  0
   -1.8040    0.2400    0.9970 H   0  0  0  0  0  0  0  0  0  0  0  0
   -0.5820    1.4360   -1.5800 H   0  0  0  0  0  0  0  0  0  0  0  0
   -0.4170    2.0380    0.0560 H   0  0  0  0  0  0  0  0  0  0  0  0
    0.2300   -0.7640    1.5630 H   0  0  0  0  0  0  0  0  0  0  0  0
    1.9360   -0.4420    1.4080 H   0  0  0  0  0  0  0  0  0  0  0  0
    0.8340    0.8760    1.7670 H   0  0  0  0  0  0  0  0  0  0  0  0
    1.9820   -2.3640   -0.1690 H   0  0  0  0  0  0  0  0  0  0  0  0
    2.0080   -2.4670   -1.9220 H   0  0  0  0  0  0  0  0  0  0  0  0
    4.9410   -5.3010   -0.0860 H   0  0  0  0  0  0  0  0  0  0  0  0
    3.6080   -5.4570    1.0760 H   0  0  0  0  0  0  0  0  0  0  0  0
    3.2830   -4.9610   -0.5900 H   0  0  0  0  0  0  0  0  0  0  0  0
    5.1760   -4.2190    3.4870 H   0  0  0  0  0  0  0  0  0  0  0  0
    6.7130   -0.8660    3.2010 H   0  0  0  0  0  0  0  0  0  0  0  0
    7.5370   -1.1800   -0.1790 H   0  0  0  0  0  0  0  0  0  0  0  0
    0.9710    3.0030    0.3620 H   0  0  0  0  0  0  0  0  0  0  0  0
    2.3680    4.0310    0.0270 H   0  0  0  0  0  0  0  0  0  0  0  0
    1.4220    3.3440   -1.2920 H   0  0  0  0  0  0  0  0  0  0  0  0
    3.5190    3.4460   -2.4120 H   0  0  0  0  0  0  0  0  0  0  0  0
    4.1620    4.1900   -0.0280 H   0  0  0  0  0  0  0  0  0  0  0  0
    5.1720    2.9560    0.7190 H   0  0  0  0  0  0  0  0  0  0  0  0
    6.4240    3.0980   -1.7820 H   0  0  0  0  0  0  0  0  0  0  0  0
    6.7400    6.0450    0.9820 H   0  0  0  0  0  0  0  0  0  0  0  0
    6.0660    7.0200   -0.3280 H   0  0  0  0  0  0  0  0  0  0  0  0
    5.0640    5.7990    0.4650 H   0  0  0  0  0  0  0  0  0  0  0  0
    7.4420    6.0770   -2.5180 H   0  0  0  0  0  0  0  0  0  0  0  0
    8.4700    6.0160   -1.0880 H   0  0  0  0  0  0  0  0  0  0  0  0
    8.3210    4.5980   -2.1060 H   0  0  0  0  0  0  0  0  0  0  0  0
   -3.0040   -1.0390    1.7390 H   0  0  0  0  0  0  0  0  0  0  0  0
   -4.0770   -2.4400    1.6110 H   0  0  0  0  0  0  0  0  0  0  0  0
   -2.3470   -2.6500    1.5030 H   0  0  0  0  0  0  0  0  0  0  0  0
   -9.0730    1.5930    0.6810 H   0  0  0  0  0  0  0  0  0  0  0  0
   -8.9210    2.2700   -0.9510 H   0  0  0  0  0  0  0  0  0  0  0  0
   -8.8180    0.5240   -0.6960 H   0  0  0  0  0  0  0  0  0  0  0  0
   -7.1130    4.7550    0.0250 H   0  0  0  0  0  0  0  0  0  0  0  0
   -4.0420    4.1710    1.8770 H   0  0  0  0  0  0  0  0  0  0  0  0
   -5.1570    1.3080    3.5320 H   0  0  0  0  0  0  0  0  0  0  0  0
   -6.0220   -2.0160    0.5750 H   0  0  0  0  0  0  0  0  0  0  0  0
   -6.6810   -1.2300   -0.8480 H   0  0  0  0  0  0  0  0  0  0  0  0
   -7.6250   -3.4790   -1.2250 H   0  0  0  0  0  0  0  0  0  0  0  0
   -4.4660   -4.9060   -1.3030 H   0  0  0  0  0  0  0  0  0  0  0  0
   -4.5830   -4.1860    0.2910 H   0  0  0  0  0  0  0  0  0  0  0  0
  2  1  1  6
  2  3  1  0
  2 71  1  0
  2 47  1  0
  3 73  1  0
  3  4  1  0
  3 72  1  0
  4 75  1  0
  4 74  1  0
  4  5  1  0
  5 13  1  0
  5  7  1  0
  5  6  1  1
  7  8  1  6
  7 47  1  0
  7  9  1  0
  9 10  1  0
  9 76  1  0
  9 77  1  0
 10 78  1  0
 10 11  1  0
 10 79  1  0
 11 13  1  0
 11 34  1  0
 11 12  1  1
 12 81  1  0
 12 80  1  0
 12 82  1  0
 13 14  1  6
 13 15  1  0
 15 84  1  0
 15 16  1  0
 15 83  1  0
 16 17  1  6
 16 34  1  0
 16 18  1  0
 18 19  1  0
 19 20  1  6
 19 21  1  0
 19 31  1  0
 21 22  1  0
 22 24  1  0
 22 23  1  1
 22 25  1  0
 24 87  1  0
 24 85  1  0
 24 86  1  0
 25 26  1  6
 25 28  1  0
 25 27  1  0
 27 88  1  0
 28 31  1  0
 28 29  1  1
 28 30  1  0
 30 89  1  0
 31 33  1  0
 31 32  1  1
 33 90  1  0
 34 35  1  6
 34 36  1  0
 36 39  1  0
 36 38  1  0
 36 37  1  1
 38 93  1  0
 38 92  1  0
 38 91  1  0
 39 41  1  0
 39 40  1  6
 39 42  1  0
 41 94  1  0
 42 43  1  0
 42 95  1  0
 42 96  1  0
 43 97  1  0
 43 44  2  0
 44 46  1  0
 44 45  1  0
 45 99  1  0
 45100  1  0
 45 98  1  0
 46101  1  0
 46103  1  0
 46102  1  0
 47 49  1  0
 47 48  1  1
 48106  1  0
 48105  1  0
 48104  1  0
 49 50  1  6
 49 67  1  0
 49 51  1  0
 51 52  1  0
 52 54  1  0
 52 64  1  0
 52 53  1  1
 54 55  1  0
 55 56  1  6
 55 57  1  0
 55 58  1  0
 57108  1  0
 57109  1  0
 57107  1  0
 58 60  1  0
 58 61  1  0
 58 59  1  1
 60110  1  0
 61 62  1  6
 61 63  1  0
 61 64  1  0
 63111  1  0
 64 65  1  1
 64 66  1  0
 66112  1  0
 67 68  1  0
 67114  1  0
 67113  1  0
 68 69  1  6
 68 70  1  0
 68 71  1  0
 70115  1  0
 71116  1  0
 71117  1  0
M  END
>  <id>  (564) 
668

>  <scaffolds>  (564) 
['C1CCC(OC2CC3CCC4C(CCC5CCCC(OC6CCCCO6)C54)C3C2)OC1', 'C1CCOCC1', 'C1CCC(C2CCCC2)CC1', 'C1CCCCC1', 'C1CCC2C(C1)CCC1C3CCCC3CCC21', 'C1CCC2CCCCC2C1']

>  <name>  (564) 
(22S)-16[beta]-[([alpha]-L-rhamnopyranosyl)oxy]-3[beta],22-dihydroxycholest-24-en-1[beta]-yl [alpha]-L-rhamnopyranoside

>  <formula>  (564) 
C39H66O12

>  <SMILES>  (564) 
[H][C@@]46CC[C@]1([H])[C@]([H])(CC[C@@]3(C)[C@@]1([H])C[C@H](O[C@]2([H])O[C@@H](C)[C@H](O)[C@@H](O)[C@H]2O)[C@]3([H])[C@H](C)[C@@H](O)CC=C(C)C)[C@@]4(C)[C@H](O[C@]5([H])O[C@@H](C)[C@H](O)[C@@H](O)[C@H]5O)C[C@H](O)C6

>  <ChEMBL_id>  (564) 


>  <ZINC_id>  (564) 


>  <PubChem_id>  (564) 


>  <DrugBank_id>  (564) 


>  <CAS_no>  (564) 
790300-67-3

>  <references>  (564) 
[{'journal': {'name': 'Journal of Natural Products', 'id': 5}, 'title': 'Steroidal Glycosides from the Bulbs of Ornithogalum thyrsoides', 'year': 2004, 'start_page': 1690, 'volume': 67, 'issue': 10, 'doi': '10.1021/np040108i', 'isbn': '', 'despositor': {'code': 'NFA', 'first_name': 'Ngonidzashe', 'last_name': 'Faya', 'id': 21}, 'refauthors_set': [{'author': {'first_name': 'Minpei', 'initials': 'M', 'last_name': 'Kuroda', 'id': 644}, 'first_author': True, 'id': 893}, {'author': {'first_name': 'Yoshihiro ', 'initials': 'Y', 'last_name': 'Mimaki', 'id': 643}, 'first_author': None, 'id': 1204}, {'author': {'first_name': 'Kazutomo', 'initials': 'K', 'last_name': 'Ori', 'id': 793}, 'first_author': None, 'id': 1205}, {'author': {'first_name': 'Hiroshi', 'initials': 'H', 'last_name': 'Sakagami', 'id': 653}, 'first_author': None, 'id': 1206}, {'author': {'first_name': 'Yutaka', 'initials': 'Y', 'last_name': 'Sashida', 'id': 645}, 'first_author': None, 'id': 1207}], 'id': 308}]

>  <classifications>  (564) 
[{'classification': 'Steroids and steroid derivatives (Classyfire)', 'id': 942}]

>  <molecular_mass>  (564) 
726.93

$$$$
SANC00669_minRM1.pdb
     RDKit          3D

115120  0  0  1  0  0  0  0  0999 V2000
    6.9200    0.6020   -0.1100 H   0  0  0  0  0  0  0  0  0  0  0  0
    5.8790    1.0270   -0.0850 C   0  0  2  0  0  0  0  0  0  0  0  0
    4.9050    0.1650   -0.6040 O   0  0  0  0  0  0  0  0  0  0  0  0
    4.8400   -1.1220   -0.0370 C   0  0  2  0  0  0  0  0  0  0  0  0
    4.7990   -1.0730    1.0870 H   0  0  0  0  0  0  0  0  0  0  0  0
    6.0780   -1.9270   -0.4490 C   0  0  0  0  0  0  0  0  0  0  0  0
    5.9710   -3.3380    0.1410 C   0  0  2  0  0  0  0  0  0  0  0  0
    5.9890   -3.2890    1.2660 H   0  0  0  0  0  0  0  0  0  0  0  0
    7.0830   -4.0310   -0.3600 O   0  0  0  0  0  0  0  0  0  0  0  0
    4.6680   -3.9970   -0.3300 C   0  0  0  0  0  0  0  0  0  0  0  0
    3.5080   -3.1330    0.0510 C   0  0  0  0  0  0  0  0  0  0  0  0
    2.5670   -3.6000    0.8680 C   0  0  0  0  0  0  0  0  0  0  0  0
    1.3780   -2.8040    1.2550 C   0  0  0  0  0  0  0  0  0  0  0  0
    1.0680   -1.7520    0.1900 C   0  0  2  0  0  0  0  0  0  0  0  0
    0.7560   -2.2640   -0.7590 H   0  0  0  0  0  0  0  0  0  0  0  0
    2.3080   -0.8830   -0.0900 C   0  0  2  0  0  0  0  0  0  0  0  0
    2.6050   -0.3680    0.8680 H   0  0  0  0  0  0  0  0  0  0  0  0
    1.9260    0.2200   -1.0920 C   0  0  0  0  0  0  0  0  0  0  0  0
    0.7360    1.0620   -0.6240 C   0  0  0  0  0  0  0  0  0  0  0  0
   -0.4770    0.1690   -0.3840 C   0  0  1  0  0  0  0  0  0  0  0  0
   -0.9000   -0.5100   -1.6840 C   0  0  0  0  0  0  0  0  0  0  0  0
   -0.0510   -0.8460    0.6940 C   0  0  1  0  0  0  0  0  0  0  0  0
    0.3320   -0.2920    1.5940 H   0  0  0  0  0  0  0  0  0  0  0  0
   -1.3630   -1.5160    1.0780 C   0  0  0  0  0  0  0  0  0  0  0  0
   -2.4130   -0.3810    0.9780 C   0  0  2  0  0  0  0  0  0  0  0  0
   -2.7740   -0.0790    1.9960 H   0  0  0  0  0  0  0  0  0  0  0  0
   -3.4760   -0.8060    0.1510 O   0  0  0  0  0  0  0  0  0  0  0  0
   -4.5520   -1.4090    0.8140 C   0  0  2  0  0  0  0  0  0  0  0  0
   -4.8700   -0.8840    1.7590 H   0  0  0  0  0  0  0  0  0  0  0  0
   -4.1650   -2.6610    1.2760 O   0  0  0  0  0  0  0  0  0  0  0  0
   -3.8180   -3.6110    0.2940 C   0  0  1  0  0  0  0  0  0  0  0  0
   -2.9160   -3.2680   -0.2890 H   0  0  0  0  0  0  0  0  0  0  0  0
   -3.4850   -4.8820    1.0750 C   0  0  0  0  0  0  0  0  0  0  0  0
   -5.0210   -3.8480   -0.6470 C   0  0  2  0  0  0  0  0  0  0  0  0
   -5.8990   -4.2510   -0.0760 H   0  0  0  0  0  0  0  0  0  0  0  0
   -4.5510   -4.7150   -1.6370 O   0  0  0  0  0  0  0  0  0  0  0  0
   -5.3880   -2.5020   -1.3230 C   0  0  1  0  0  0  0  0  0  0  0  0
   -4.5410   -2.1270   -1.9610 H   0  0  0  0  0  0  0  0  0  0  0  0
   -6.5020   -2.8020   -2.1110 O   0  0  0  0  0  0  0  0  0  0  0  0
   -5.7040   -1.4540   -0.2330 C   0  0  1  0  0  0  0  0  0  0  0  0
   -5.8220   -0.4360   -0.6960 H   0  0  0  0  0  0  0  0  0  0  0  0
   -6.8910   -1.8810    0.3620 O   0  0  0  0  0  0  0  0  0  0  0  0
   -1.6930    0.8270    0.3040 C   0  0  2  0  0  0  0  0  0  0  0  0
   -1.3090    1.4750    1.1370 H   0  0  0  0  0  0  0  0  0  0  0  0
   -2.5790    1.7070   -0.5770 C   0  0  2  0  0  0  0  0  0  0  0  0
   -2.9820    1.1200   -1.4400 H   0  0  0  0  0  0  0  0  0  0  0  0
   -1.7710    2.8860   -1.1140 C   0  0  0  0  0  0  0  0  0  0  0  0
   -3.8010    2.2280    0.2240 C   0  0  1  0  0  0  0  0  0  0  0  0
   -4.4150    1.3770    0.6160 H   0  0  0  0  0  0  0  0  0  0  0  0
   -3.4100    2.8730    1.3970 O   0  0  0  0  0  0  0  0  0  0  0  0
   -4.6930    3.1280   -0.6600 C   0  0  0  0  0  0  0  0  0  0  0  0
   -5.7990    3.7290    0.1290 C   0  0  0  0  0  0  0  0  0  0  0  0
   -6.3380    4.9190   -0.1330 C   0  0  0  0  0  0  0  0  0  0  0  0
   -5.8680    5.8010   -1.2280 C   0  0  0  0  0  0  0  0  0  0  0  0
   -7.4530    5.4680    0.6930 C   0  0  0  0  0  0  0  0  0  0  0  0
    3.5120   -1.7540   -0.5570 C   0  0  1  0  0  0  0  0  0  0  0  0
    3.5250   -1.9160   -2.0760 C   0  0  0  0  0  0  0  0  0  0  0  0
    5.6590    1.2370    1.2720 O   0  0  0  0  0  0  0  0  0  0  0  0
    4.4330    1.8400    1.6220 C   0  0  1  0  0  0  0  0  0  0  0  0
    3.5620    1.1860    1.3330 H   0  0  0  0  0  0  0  0  0  0  0  0
    4.4940    1.9970    3.1410 C   0  0  0  0  0  0  0  0  0  0  0  0
    4.3280    3.2250    0.9440 C   0  0  2  0  0  0  0  0  0  0  0  0
    5.1460    3.9060    1.3050 H   0  0  0  0  0  0  0  0  0  0  0  0
    3.0450    3.6940    1.2330 O   0  0  0  0  0  0  0  0  0  0  0  0
    4.4270    3.0430   -0.5910 C   0  0  1  0  0  0  0  0  0  0  0  0
    3.5640    2.4240   -0.9800 H   0  0  0  0  0  0  0  0  0  0  0  0
    4.3730    4.3360   -1.1070 O   0  0  0  0  0  0  0  0  0  0  0  0
    5.7510    2.3230   -0.9350 C   0  0  1  0  0  0  0  0  0  0  0  0
    5.7780    2.0500   -2.0280 H   0  0  0  0  0  0  0  0  0  0  0  0
    6.7640    3.2240   -0.6130 O   0  0  0  0  0  0  0  0  0  0  0  0
    6.2120   -1.9520   -1.5480 H   0  0  0  0  0  0  0  0  0  0  0  0
    7.0040   -1.4400   -0.0790 H   0  0  0  0  0  0  0  0  0  0  0  0
    7.0700   -4.9080    0.0640 H   0  0  0  0  0  0  0  0  0  0  0  0
    4.6790   -4.1420   -1.4370 H   0  0  0  0  0  0  0  0  0  0  0  0
    4.5850   -5.0250    0.0780 H   0  0  0  0  0  0  0  0  0  0  0  0
    2.6240   -4.6070    1.2980 H   0  0  0  0  0  0  0  0  0  0  0  0
    0.5050   -3.4770    1.4010 H   0  0  0  0  0  0  0  0  0  0  0  0
    1.5510   -2.3450    2.2530 H   0  0  0  0  0  0  0  0  0  0  0  0
    2.7860    0.9050   -1.2790 H   0  0  0  0  0  0  0  0  0  0  0  0
    1.6930   -0.1970   -2.0930 H   0  0  0  0  0  0  0  0  0  0  0  0
    0.9990    1.6420    0.2860 H   0  0  0  0  0  0  0  0  0  0  0  0
    0.5140    1.8420   -1.3880 H   0  0  0  0  0  0  0  0  0  0  0  0
   -0.2280   -1.3370   -1.9690 H   0  0  0  0  0  0  0  0  0  0  0  0
   -1.8970   -0.9670   -1.6470 H   0  0  0  0  0  0  0  0  0  0  0  0
   -0.9140    0.1890   -2.5330 H   0  0  0  0  0  0  0  0  0  0  0  0
   -1.5900   -2.3680    0.4010 H   0  0  0  0  0  0  0  0  0  0  0  0
   -1.3430   -1.9600    2.0920 H   0  0  0  0  0  0  0  0  0  0  0  0
   -4.3160   -5.2230    1.7030 H   0  0  0  0  0  0  0  0  0  0  0  0
   -3.2300   -5.7070    0.3940 H   0  0  0  0  0  0  0  0  0  0  0  0
   -2.6280   -4.7350    1.7470 H   0  0  0  0  0  0  0  0  0  0  0  0
   -5.3000   -5.2120   -1.9510 H   0  0  0  0  0  0  0  0  0  0  0  0
   -6.9360   -1.9780   -2.3430 H   0  0  0  0  0  0  0  0  0  0  0  0
   -7.1310   -1.2410    1.0410 H   0  0  0  0  0  0  0  0  0  0  0  0
   -0.9950    2.5640   -1.8290 H   0  0  0  0  0  0  0  0  0  0  0  0
   -2.3970    3.6030   -1.6600 H   0  0  0  0  0  0  0  0  0  0  0  0
   -1.2480    3.4470   -0.3270 H   0  0  0  0  0  0  0  0  0  0  0  0
   -3.0630    3.7410    1.1720 H   0  0  0  0  0  0  0  0  0  0  0  0
   -4.0710    3.8980   -1.1670 H   0  0  0  0  0  0  0  0  0  0  0  0
   -5.1250    2.5270   -1.4890 H   0  0  0  0  0  0  0  0  0  0  0  0
   -6.1650    3.1270    0.9700 H   0  0  0  0  0  0  0  0  0  0  0  0
   -5.8540    5.2940   -2.2010 H   0  0  0  0  0  0  0  0  0  0  0  0
   -6.4900    6.6960   -1.3610 H   0  0  0  0  0  0  0  0  0  0  0  0
   -4.8460    6.1660   -1.0430 H   0  0  0  0  0  0  0  0  0  0  0  0
   -7.1370    6.3730    1.2230 H   0  0  0  0  0  0  0  0  0  0  0  0
   -8.3260    5.7350    0.0710 H   0  0  0  0  0  0  0  0  0  0  0  0
   -7.8280    4.7750    1.4580 H   0  0  0  0  0  0  0  0  0  0  0  0
    3.8540   -1.0180   -2.6050 H   0  0  0  0  0  0  0  0  0  0  0  0
    4.1850   -2.7230   -2.4210 H   0  0  0  0  0  0  0  0  0  0  0  0
    2.5390   -2.1920   -2.4620 H   0  0  0  0  0  0  0  0  0  0  0  0
    5.3700    2.5770    3.4730 H   0  0  0  0  0  0  0  0  0  0  0  0
    3.5970    2.5060    3.5200 H   0  0  0  0  0  0  0  0  0  0  0  0
    4.5600    1.0250    3.6490 H   0  0  0  0  0  0  0  0  0  0  0  0
    3.1090    4.6400    1.3730 H   0  0  0  0  0  0  0  0  0  0  0  0
    4.7370    4.3150   -2.0010 H   0  0  0  0  0  0  0  0  0  0  0  0
    7.6090    2.8000   -0.8070 H   0  0  0  0  0  0  0  0  0  0  0  0
  2  1  1  1
  2 68  1  0
  2  3  1  0
  2 58  1  0
  3  4  1  0
  4 56  1  0
  4  6  1  0
  4  5  1  1
  6 71  1  0
  6 72  1  0
  6  7  1  0
  7  9  1  0
  7 10  1  0
  7  8  1  1
  9 73  1  0
 10 74  1  0
 10 11  1  0
 10 75  1  0
 11 56  1  0
 11 12  2  0
 12 13  1  0
 12 76  1  0
 13 14  1  0
 13 77  1  0
 13 78  1  0
 14 15  1  6
 14 16  1  0
 14 22  1  0
 16 18  1  0
 16 56  1  0
 16 17  1  1
 18 80  1  0
 18 79  1  0
 18 19  1  0
 19 82  1  0
 19 20  1  0
 19 81  1  0
 20 21  1  6
 20 43  1  0
 20 22  1  0
 21 85  1  0
 21 83  1  0
 21 84  1  0
 22 24  1  0
 22 23  1  1
 24 86  1  0
 24 25  1  0
 24 87  1  0
 25 27  1  0
 25 43  1  0
 25 26  1  1
 27 28  1  0
 28 40  1  0
 28 30  1  0
 28 29  1  1
 30 31  1  0
 31 34  1  0
 31 32  1  6
 31 33  1  0
 33 89  1  0
 33 88  1  0
 33 90  1  0
 34 36  1  0
 34 37  1  0
 34 35  1  1
 36 91  1  0
 37 39  1  0
 37 38  1  6
 37 40  1  0
 39 92  1  0
 40 41  1  6
 40 42  1  0
 42 93  1  0
 43 45  1  0
 43 44  1  1
 45 46  1  6
 45 47  1  0
 45 48  1  0
 47 94  1  0
 47 95  1  0
 47 96  1  0
 48 51  1  0
 48 49  1  1
 48 50  1  0
 50 97  1  0
 51 99  1  0
 51 98  1  0
 51 52  1  0
 52 53  2  0
 52100  1  0
 53 54  1  0
 53 55  1  0
 54101  1  0
 54102  1  0
 54103  1  0
 55105  1  0
 55104  1  0
 55106  1  0
 56 57  1  6
 57107  1  0
 57109  1  0
 57108  1  0
 58 59  1  0
 59 62  1  0
 59 60  1  1
 59 61  1  0
 61110  1  0
 61111  1  0
 61112  1  0
 62 65  1  0
 62 64  1  0
 62 63  1  1
 64113  1  0
 65 67  1  0
 65 66  1  6
 65 68  1  0
 67114  1  0
 68 69  1  6
 68 70  1  0
 70115  1  0
M  END
>  <id>  (565) 
669

>  <scaffolds>  (565) 
['C1=C2CCCCC2C2CCC3CCCC3C2C1', 'C1=CCCCC1', 'C1=CCC2CCCCC2C1', 'C1=C2CCCC(OC3CCCCO3)C2C2CCC3CC(OC4CCCCO4)CC3C2C1', 'C1=C2CCCCC2C2CCC3CC(OC4CCCCO4)CC3C2C1', 'C1CCOCC1', 'C1CCCCC1', 'C1=C2CCCCC2CCC1']

>  <name>  (565) 
(22S)-16[beta]-[([alpha]-L-rhamnopyranosyl)oxy]-3[beta],22-dihydroxycholesta-5,24-dien-1[beta]-yl [alpha]-L-rhamnopyranoside

>  <formula>  (565) 
C39H64O12

>  <SMILES>  (565) 
[H][C@@]6(O[C@@H]5C[C@H](O)CC4=CC[C@]1([H])[C@]([H])(CC[C@@]3(C)[C@@]1([H])C[C@H](O[C@]2([H])O[C@@H](C)[C@H](O)[C@@H](O)[C@H]2O)[C@]3([H])[C@H](C)[C@@H](O)CC=C(C)C)[C@]45C)O[C@@H](C)[C@H](O)[C@@H](O)[C@H]6O

>  <ChEMBL_id>  (565) 


>  <ZINC_id>  (565) 


>  <PubChem_id>  (565) 


>  <DrugBank_id>  (565) 


>  <CAS_no>  (565) 
790300-68-4

>  <references>  (565) 
[{'journal': {'name': 'Journal of Natural Products', 'id': 5}, 'title': 'Steroidal Glycosides from the Bulbs of Ornithogalum thyrsoides', 'year': 2004, 'start_page': 1690, 'volume': 67, 'issue': 10, 'doi': '10.1021/np040108i', 'isbn': '', 'despositor': {'code': 'NFA', 'first_name': 'Ngonidzashe', 'last_name': 'Faya', 'id': 21}, 'refauthors_set': [{'author': {'first_name': 'Minpei', 'initials': 'M', 'last_name': 'Kuroda', 'id': 644}, 'first_author': True, 'id': 893}, {'author': {'first_name': 'Yoshihiro ', 'initials': 'Y', 'last_name': 'Mimaki', 'id': 643}, 'first_author': None, 'id': 1204}, {'author': {'first_name': 'Kazutomo', 'initials': 'K', 'last_name': 'Ori', 'id': 793}, 'first_author': None, 'id': 1205}, {'author': {'first_name': 'Hiroshi', 'initials': 'H', 'last_name': 'Sakagami', 'id': 653}, 'first_author': None, 'id': 1206}, {'author': {'first_name': 'Yutaka', 'initials': 'Y', 'last_name': 'Sashida', 'id': 645}, 'first_author': None, 'id': 1207}], 'id': 308}]

>  <classifications>  (565) 
[{'classification': 'Steroids and steroid derivatives (Classyfire)', 'id': 942}]

>  <molecular_mass>  (565) 
724.92

$$$$
SANC00670_minRM1.pdb
     RDKit          3D

128135  0  0  1  0  0  0  0  0999 V2000
   -7.5080    0.7030    0.4320 H   0  0  0  0  0  0  0  0  0  0  0  0
   -6.4010    0.8530    0.5650 C   0  0  2  0  0  0  0  0  0  0  0  0
   -5.6660   -0.3230    0.7890 O   0  0  0  0  0  0  0  0  0  0  0  0
   -6.0100   -1.4150   -0.0220 C   0  0  2  0  0  0  0  0  0  0  0  0
   -6.3370   -1.1230   -1.0550 H   0  0  0  0  0  0  0  0  0  0  0  0
   -7.1010   -2.2500    0.6980 C   0  0  1  0  0  0  0  0  0  0  0  0
   -6.8060   -2.4500    1.7640 H   0  0  0  0  0  0  0  0  0  0  0  0
   -8.2760   -1.5040    0.6210 O   0  0  0  0  0  0  0  0  0  0  0  0
   -7.2800   -3.5830   -0.0760 C   0  0  2  0  0  0  0  0  0  0  0  0
   -7.6610   -3.3760   -1.1130 H   0  0  0  0  0  0  0  0  0  0  0  0
   -8.1840   -4.3180    0.6940 O   0  0  0  0  0  0  0  0  0  0  0  0
   -5.9160   -4.3120   -0.1340 C   0  0  1  0  0  0  0  0  0  0  0  0
   -5.5780   -4.5970    0.9000 H   0  0  0  0  0  0  0  0  0  0  0  0
   -6.0050   -5.5740   -1.0210 C   0  0  0  0  0  0  0  0  0  0  0  0
   -4.8280   -6.3010   -0.8640 O   0  0  0  0  0  0  0  0  0  0  0  0
   -4.9870   -3.4830   -0.7810 O   0  0  0  0  0  0  0  0  0  0  0  0
   -4.7200   -2.2900   -0.0730 C   0  0  1  0  0  0  0  0  0  0  0  0
   -4.3160   -2.4960    0.9600 H   0  0  0  0  0  0  0  0  0  0  0  0
   -3.8320   -1.6160   -0.9080 O   0  0  0  0  0  0  0  0  0  0  0  0
   -2.4930   -2.0760   -0.8560 C   0  0  1  0  0  0  0  0  0  0  0  0
   -2.4340   -3.1950   -0.9200 H   0  0  0  0  0  0  0  0  0  0  0  0
   -1.8190   -1.4330   -2.0700 C   0  0  0  0  0  0  0  0  0  0  0  0
   -0.3440   -1.8060   -2.0830 C   0  0  0  0  0  0  0  0  0  0  0  0
    0.3970   -1.4010   -0.7990 C   0  0  1  0  0  0  0  0  0  0  0  0
    0.4860    0.1230   -0.7080 C   0  0  0  0  0  0  0  0  0  0  0  0
   -0.3620   -1.8730    0.4070 C   0  0  0  0  0  0  0  0  0  0  0  0
    0.2180   -2.4450    1.4630 C   0  0  0  0  0  0  0  0  0  0  0  0
    1.6770   -2.7020    1.5700 C   0  0  0  0  0  0  0  0  0  0  0  0
    2.4670   -1.8880    0.5450 C   0  0  2  0  0  0  0  0  0  0  0  0
    2.4550   -0.8170    0.8660 H   0  0  0  0  0  0  0  0  0  0  0  0
    1.8090   -2.0440   -0.8320 C   0  0  2  0  0  0  0  0  0  0  0  0
    1.6900   -3.1430   -1.0250 H   0  0  0  0  0  0  0  0  0  0  0  0
    2.6620   -1.4630   -1.9680 C   0  0  0  0  0  0  0  0  0  0  0  0
    4.1500   -1.8130   -1.9090 C   0  0  0  0  0  0  0  0  0  0  0  0
    4.7140   -1.5510   -0.5190 C   0  0  1  0  0  0  0  0  0  0  0  0
    4.6070   -0.0810   -0.1560 C   0  0  0  0  0  0  0  0  0  0  0  0
    4.4680    0.7950   -0.9860 O   0  0  0  0  0  0  0  0  0  0  0  0
    3.8930   -2.4070    0.4590 C   0  0  1  0  0  0  0  0  0  0  0  0
    3.8640   -3.4680    0.0880 H   0  0  0  0  0  0  0  0  0  0  0  0
    4.7240   -2.3890    1.7320 C   0  0  0  0  0  0  0  0  0  0  0  0
    6.1660   -2.5510    1.1920 C   0  0  2  0  0  0  0  0  0  0  0  0
    6.4520   -3.6370    1.1990 H   0  0  0  0  0  0  0  0  0  0  0  0
    7.0540   -2.0040    2.1160 O   0  0  0  0  0  0  0  0  0  0  0  0
    7.6830   -0.7940    1.7780 C   0  0  1  0  0  0  0  0  0  0  0  0
    6.9560    0.0660    1.8300 H   0  0  0  0  0  0  0  0  0  0  0  0
    8.6970   -0.6720    2.7230 O   0  0  0  0  0  0  0  0  0  0  0  0
    8.3600   -0.9210    0.4000 C   0  0  2  0  0  0  0  0  0  0  0  0
    8.9840   -1.8500    0.3970 H   0  0  0  0  0  0  0  0  0  0  0  0
    9.1760    0.3050    0.1540 C   0  0  0  0  0  0  0  0  0  0  0  0
   10.4740    0.2990   -0.1550 C   0  0  0  0  0  0  0  0  0  0  0  0
   11.2640   -0.9490   -0.3290 C   0  0  0  0  0  0  0  0  0  0  0  0
   11.2280    1.5670   -0.3520 C   0  0  0  0  0  0  0  0  0  0  0  0
    7.2580   -1.0300   -0.6630 C   0  0  1  0  0  0  0  0  0  0  0  0
    6.8260   -0.0080   -0.8080 H   0  0  0  0  0  0  0  0  0  0  0  0
    7.9020   -1.4220   -1.9920 C   0  0  0  0  0  0  0  0  0  0  0  0
    6.1660   -2.0380   -0.2770 C   0  0  2  0  0  0  0  0  0  0  0  0
    6.3110   -2.9550   -0.9070 H   0  0  0  0  0  0  0  0  0  0  0  0
   -1.8250   -1.5790    0.4310 C   0  0  0  0  0  0  0  0  0  0  0  0
   -6.0260    1.3880   -0.6610 O   0  0  0  0  0  0  0  0  0  0  0  0
   -4.6970    1.8490   -0.7670 C   0  0  1  0  0  0  0  0  0  0  0  0
   -3.9640    1.0090   -0.6230 H   0  0  0  0  0  0  0  0  0  0  0  0
   -4.5890    2.4070   -2.1830 C   0  0  0  0  0  0  0  0  0  0  0  0
   -4.4760    2.9580    0.2870 C   0  0  2  0  0  0  0  0  0  0  0  0
   -5.2050    3.8020    0.1570 H   0  0  0  0  0  0  0  0  0  0  0  0
   -3.1220    3.3460    0.2180 O   0  0  0  0  0  0  0  0  0  0  0  0
   -2.8040    4.5250   -0.3820 C   0  0  0  0  0  0  0  0  0  0  0  0
   -3.6510    5.1700   -0.9780 O   0  0  0  0  0  0  0  0  0  0  0  0
   -1.3820    4.8720   -0.2620 C   0  0  0  0  0  0  0  0  0  0  0  0
   -0.5430    4.2580    0.6690 C   0  0  0  0  0  0  0  0  0  0  0  0
    0.7900    4.6200    0.7420 C   0  0  0  0  0  0  0  0  0  0  0  0
    1.2820    5.6070   -0.1240 C   0  0  0  0  0  0  0  0  0  0  0  0
    2.6030    5.8730    0.0520 O   0  0  0  0  0  0  0  0  0  0  0  0
    3.2000    6.8160   -0.8020 C   0  0  0  0  0  0  0  0  0  0  0  0
    0.4510    6.2330   -1.0520 C   0  0  0  0  0  0  0  0  0  0  0  0
   -0.8860    5.8590   -1.1120 C   0  0  0  0  0  0  0  0  0  0  0  0
   -4.6480    2.3260    1.6900 C   0  0  1  0  0  0  0  0  0  0  0  0
   -3.9120    1.4920    1.8530 H   0  0  0  0  0  0  0  0  0  0  0  0
   -4.3840    3.3440    2.6040 O   0  0  0  0  0  0  0  0  0  0  0  0
   -6.0840    1.7570    1.7900 C   0  0  1  0  0  0  0  0  0  0  0  0
   -6.1980    1.1550    2.7330 H   0  0  0  0  0  0  0  0  0  0  0  0
   -6.9200    2.8710    1.8080 O   0  0  0  0  0  0  0  0  0  0  0  0
   -8.9520   -1.9760    1.1190 H   0  0  0  0  0  0  0  0  0  0  0  0
   -8.5770   -4.9870    0.1300 H   0  0  0  0  0  0  0  0  0  0  0  0
   -6.8240   -6.2410   -0.6660 H   0  0  0  0  0  0  0  0  0  0  0  0
   -6.2450   -5.3120   -2.0750 H   0  0  0  0  0  0  0  0  0  0  0  0
   -4.3250   -6.2290   -1.6840 H   0  0  0  0  0  0  0  0  0  0  0  0
   -2.3110   -1.7700   -3.0080 H   0  0  0  0  0  0  0  0  0  0  0  0
   -1.9670   -0.3320   -2.0720 H   0  0  0  0  0  0  0  0  0  0  0  0
   -0.2450   -2.9000   -2.2550 H   0  0  0  0  0  0  0  0  0  0  0  0
    0.1360   -1.3370   -2.9670 H   0  0  0  0  0  0  0  0  0  0  0  0
   -0.4900    0.6180   -0.8000 H   0  0  0  0  0  0  0  0  0  0  0  0
    0.9050    0.4620    0.2510 H   0  0  0  0  0  0  0  0  0  0  0  0
    1.1230    0.5520   -1.4990 H   0  0  0  0  0  0  0  0  0  0  0  0
   -0.3670   -2.7710    2.3310 H   0  0  0  0  0  0  0  0  0  0  0  0
    2.0300   -2.4720    2.5980 H   0  0  0  0  0  0  0  0  0  0  0  0
    1.8590   -3.7930    1.4540 H   0  0  0  0  0  0  0  0  0  0  0  0
    2.2680   -1.8250   -2.9430 H   0  0  0  0  0  0  0  0  0  0  0  0
    2.5310   -0.3600   -2.0290 H   0  0  0  0  0  0  0  0  0  0  0  0
    4.3090   -2.8720   -2.2030 H   0  0  0  0  0  0  0  0  0  0  0  0
    4.7050   -1.2300   -2.6740 H   0  0  0  0  0  0  0  0  0  0  0  0
    4.6870    0.1680    0.9210 H   0  0  0  0  0  0  0  0  0  0  0  0
    4.5910   -1.4640    2.3260 H   0  0  0  0  0  0  0  0  0  0  0  0
    4.4550   -3.1990    2.4360 H   0  0  0  0  0  0  0  0  0  0  0  0
    8.3360   -0.8560    3.6000 H   0  0  0  0  0  0  0  0  0  0  0  0
    8.6370    1.2520    0.2770 H   0  0  0  0  0  0  0  0  0  0  0  0
   10.9430   -1.5010   -1.2260 H   0  0  0  0  0  0  0  0  0  0  0  0
   12.3430   -0.7660   -0.4380 H   0  0  0  0  0  0  0  0  0  0  0  0
   11.1570   -1.6300    0.5310 H   0  0  0  0  0  0  0  0  0  0  0  0
   12.0030    1.6860    0.4210 H   0  0  0  0  0  0  0  0  0  0  0  0
   11.7380    1.5890   -1.3280 H   0  0  0  0  0  0  0  0  0  0  0  0
   10.6000    2.4720   -0.3010 H   0  0  0  0  0  0  0  0  0  0  0  0
    8.4100   -2.3970   -1.9520 H   0  0  0  0  0  0  0  0  0  0  0  0
    7.1670   -1.4790   -2.8070 H   0  0  0  0  0  0  0  0  0  0  0  0
    8.6610   -0.6890   -2.3050 H   0  0  0  0  0  0  0  0  0  0  0  0
   -1.9890   -0.4880    0.5670 H   0  0  0  0  0  0  0  0  0  0  0  0
   -2.3200   -2.0320    1.3180 H   0  0  0  0  0  0  0  0  0  0  0  0
   -5.2670    3.2540   -2.3570 H   0  0  0  0  0  0  0  0  0  0  0  0
   -3.5680    2.7590   -2.3870 H   0  0  0  0  0  0  0  0  0  0  0  0
   -4.8230    1.6440   -2.9390 H   0  0  0  0  0  0  0  0  0  0  0  0
   -0.9300    3.4920    1.3490 H   0  0  0  0  0  0  0  0  0  0  0  0
    1.4580    4.1410    1.4630 H   0  0  0  0  0  0  0  0  0  0  0  0
    2.7930    7.8320   -0.6680 H   0  0  0  0  0  0  0  0  0  0  0  0
    4.2530    6.8120   -0.4830 H   0  0  0  0  0  0  0  0  0  0  0  0
    3.1550    6.5410   -1.8680 H   0  0  0  0  0  0  0  0  0  0  0  0
    0.8080    7.0080   -1.7340 H   0  0  0  0  0  0  0  0  0  0  0  0
   -1.5470    6.3510   -1.8340 H   0  0  0  0  0  0  0  0  0  0  0  0
   -4.9840    3.2660    3.3520 H   0  0  0  0  0  0  0  0  0  0  0  0
   -7.8330    2.5630    1.8290 H   0  0  0  0  0  0  0  0  0  0  0  0
  2  1  1  6
  2 59  1  0
  2  3  1  0
  2 79  1  0
  3  4  1  0
  4  5  1  6
  4 17  1  0
  4  6  1  0
  6  9  1  0
  6  8  1  0
  6  7  1  1
  8 82  1  0
  9 10  1  6
  9 12  1  0
  9 11  1  0
 11 83  1  0
 12 14  1  0
 12 16  1  0
 12 13  1  1
 14 85  1  0
 14 15  1  0
 14 84  1  0
 15 86  1  0
 16 17  1  0
 17 19  1  0
 17 18  1  1
 19 20  1  0
 20 22  1  0
 20 21  1  6
 20 58  1  0
 22 87  1  0
 22 23  1  0
 22 88  1  0
 23 90  1  0
 23 89  1  0
 23 24  1  0
 24 31  1  0
 24 25  1  1
 24 26  1  0
 25 93  1  0
 25 91  1  0
 25 92  1  0
 26 58  1  0
 26 27  2  0
 27 28  1  0
 27 94  1  0
 28 29  1  0
 28 96  1  0
 28 95  1  0
 29 31  1  0
 29 38  1  0
 29 30  1  1
 31 33  1  0
 31 32  1  6
 33 97  1  0
 33 98  1  0
 33 34  1  0
 34100  1  0
 34 99  1  0
 34 35  1  0
 35 56  1  0
 35 36  1  1
 35 38  1  0
 36 37  2  0
 36101  1  0
 38 39  1  6
 38 40  1  0
 40 41  1  0
 40102  1  0
 40103  1  0
 41 56  1  0
 41 42  1  6
 41 43  1  0
 43 44  1  0
 44 47  1  0
 44 45  1  6
 44 46  1  0
 46104  1  0
 47 53  1  0
 47 49  1  0
 47 48  1  1
 49 50  2  0
 49105  1  0
 50 52  1  0
 50 51  1  0
 51106  1  0
 51107  1  0
 51108  1  0
 52110  1  0
 52111  1  0
 52109  1  0
 53 55  1  0
 53 54  1  6
 53 56  1  0
 55113  1  0
 55114  1  0
 55112  1  0
 56 57  1  6
 58115  1  0
 58116  1  0
 59 60  1  0
 60 62  1  0
 60 61  1  6
 60 63  1  0
 62119  1  0
 62118  1  0
 62117  1  0
 63 64  1  6
 63 65  1  0
 63 76  1  0
 65 66  1  0
 66 67  2  0
 66 68  1  0
 68 75  2  0
 68 69  1  0
 69 70  2  0
 69120  1  0
 70 71  1  0
 70121  1  0
 71 74  2  0
 71 72  1  0
 72 73  1  0
 73124  1  0
 73122  1  0
 73123  1  0
 74125  1  0
 74 75  1  0
 75126  1  0
 76 79  1  0
 76 77  1  1
 76 78  1  0
 78127  1  0
 79 81  1  0
 79 80  1  1
 81128  1  0
M  END
>  <id>  (566) 
670

>  <scaffolds>  (566) 
['c1ccccc1', 'C1=C2CCCCC2C2CCC3CCCC3C2C1', 'C1=CCCCC1', 'C1=CCC2CCCCC2C1', 'O=C(OC1CCC(OC2CCCOC2OC2CCC3C(=CCC4C3CCC3C5CCCOC5CC34)C2)OC1)c1ccccc1', 'C1CCOCC1', 'C1=C2CC(OC3CCCCO3)CCC2C2CCC3CCCC3C2C1', 'C1CCCCC1', 'C1=C2CC(OC3OCCCC3OC3CCCCO3)CCC2C2CCC3C4CCCOC4CC3C2C1', 'C1=C2CCCCC2CCC1', 'C1CCC(OC2CCCOC2)OC1']

>  <name>  (566) 
Saundersioside F

>  <formula>  (566) 
C47H66O15

>  <SMILES>  (566) 
[H][C@@]8(O[C@@H]1[C@@H](O)[C@H](O)[C@@H](CO)O[C@@]1([H])O[C@H]6CC[C@@]2(C)C(=CC[C@]3([H])[C@]2([H])CC[C@@]5(C=O)[C@@]3([H])C[C@]4([H])O[C@@H](O)[C@H](C=C(C)C)[C@@H](C)[C@@]45[H])C6)O[C@@H](C)[C@H](OC(=O)c7ccc(OC)cc7)[C@@H](O)[C@H]8O

>  <ChEMBL_id>  (566) 


>  <ZINC_id>  (566) 


>  <PubChem_id>  (566) 


>  <DrugBank_id>  (566) 


>  <CAS_no>  (566) 
174867-65-3

>  <references>  (566) 
[{'journal': {'name': 'Phytochemistry', 'id': 10}, 'title': 'Saundersiosides C-H, rearranged cholestane glycosides from the bulbs of Ornithogalum saundersiae and their cytostatic activity on HL-60 cells', 'year': 1999, 'start_page': 435, 'volume': 52, 'issue': 3, 'doi': '10.1016/S0031-9422(99)00239-3', 'isbn': '', 'despositor': {'code': 'rah', 'first_name': 'Rowan', 'last_name': 'Hatherley', 'id': 20}, 'refauthors_set': [{'author': {'first_name': 'Minpei', 'initials': 'M', 'last_name': 'Kuroda', 'id': 644}, 'first_author': True, 'id': 1029}, {'author': {'first_name': 'Yoshihiro ', 'initials': 'Y', 'last_name': 'Mimaki', 'id': 643}, 'first_author': None, 'id': 1189}, {'author': {'first_name': 'Yutaka', 'initials': 'Y', 'last_name': 'Sashida', 'id': 645}, 'first_author': None, 'id': 1190}], 'id': 338}]

>  <classifications>  (566) 
[{'classification': 'Steroids and steroid derivatives (Classyfire)', 'id': 942}]

>  <molecular_mass>  (566) 
871.02

$$$$
SANC00671_minRM1.pdb
     RDKit          3D

127134  0  0  1  0  0  0  0  0999 V2000
    7.5930    0.0060   -0.4740 H   0  0  0  0  0  0  0  0  0  0  0  0
    6.5250    0.3320   -0.6040 C   0  0  2  0  0  0  0  0  0  0  0  0
    5.6090   -0.7110   -0.8180 O   0  0  0  0  0  0  0  0  0  0  0  0
    5.7510   -1.8270    0.0180 C   0  0  2  0  0  0  0  0  0  0  0  0
    6.0660   -1.5650    1.0630 H   0  0  0  0  0  0  0  0  0  0  0  0
    6.7390   -2.8330   -0.6280 C   0  0  1  0  0  0  0  0  0  0  0  0
    6.4630   -3.0180   -1.7020 H   0  0  0  0  0  0  0  0  0  0  0  0
    8.0070   -2.2670   -0.5130 O   0  0  0  0  0  0  0  0  0  0  0  0
    6.6910   -4.1550    0.1840 C   0  0  2  0  0  0  0  0  0  0  0  0
    7.0660   -3.9760    1.2280 H   0  0  0  0  0  0  0  0  0  0  0  0
    7.5000   -5.0360   -0.5370 O   0  0  0  0  0  0  0  0  0  0  0  0
    5.2330   -4.6760    0.2130 C   0  0  1  0  0  0  0  0  0  0  0  0
    4.8960   -4.9570   -0.8220 H   0  0  0  0  0  0  0  0  0  0  0  0
    5.1040   -5.8910    1.1600 C   0  0  0  0  0  0  0  0  0  0  0  0
    3.8540   -6.4590    0.9100 O   0  0  0  0  0  0  0  0  0  0  0  0
    4.4160   -3.6900    0.7870 O   0  0  0  0  0  0  0  0  0  0  0  0
    4.3480   -2.5090    0.0180 C   0  0  1  0  0  0  0  0  0  0  0  0
    3.9820   -2.7050   -1.0300 H   0  0  0  0  0  0  0  0  0  0  0  0
    3.5110   -1.6790    0.7570 O   0  0  0  0  0  0  0  0  0  0  0  0
    2.1410   -2.0370    0.7590 C   0  0  1  0  0  0  0  0  0  0  0  0
    1.9900   -3.1420    0.8830 H   0  0  0  0  0  0  0  0  0  0  0  0
    1.5470   -1.2820    1.9520 C   0  0  0  0  0  0  0  0  0  0  0  0
    0.0530   -1.5610    2.0280 C   0  0  0  0  0  0  0  0  0  0  0  0
   -0.7040   -1.1860    0.7430 C   0  0  1  0  0  0  0  0  0  0  0  0
   -0.7210    0.3340    0.5710 C   0  0  0  0  0  0  0  0  0  0  0  0
   -0.0060   -1.7680   -0.4520 C   0  0  0  0  0  0  0  0  0  0  0  0
   -0.6440   -2.3910   -1.4440 C   0  0  0  0  0  0  0  0  0  0  0  0
   -2.1150   -2.5930   -1.4870 C   0  0  0  0  0  0  0  0  0  0  0  0
   -2.8300   -1.6430   -0.5260 C   0  0  2  0  0  0  0  0  0  0  0  0
   -2.7520   -0.6120   -0.9480 H   0  0  0  0  0  0  0  0  0  0  0  0
   -2.1490   -1.7430    0.8490 C   0  0  2  0  0  0  0  0  0  0  0  0
   -2.0840   -2.8330    1.1110 H   0  0  0  0  0  0  0  0  0  0  0  0
   -2.9360   -1.0560    1.9720 C   0  0  0  0  0  0  0  0  0  0  0  0
   -4.4430   -1.3320    1.9630 C   0  0  0  0  0  0  0  0  0  0  0  0
   -5.0240   -1.0740    0.5680 C   0  0  1  0  0  0  0  0  0  0  0  0
   -4.7860    0.4200    0.2670 C   0  0  0  0  0  0  0  0  0  0  0  0
   -5.0970    0.6720   -1.0690 O   0  0  0  0  0  0  0  0  0  0  0  0
   -4.2850   -2.0460   -0.3660 C   0  0  1  0  0  0  0  0  0  0  0  0
   -4.3030   -3.0740    0.0950 H   0  0  0  0  0  0  0  0  0  0  0  0
   -5.1600   -2.1260   -1.6070 C   0  0  0  0  0  0  0  0  0  0  0  0
   -6.5760   -2.1910   -0.9910 C   0  0  2  0  0  0  0  0  0  0  0  0
   -6.8710   -3.2660   -0.8480 H   0  0  0  0  0  0  0  0  0  0  0  0
   -7.5220   -1.7670   -1.9210 O   0  0  0  0  0  0  0  0  0  0  0  0
   -8.0720   -0.4870   -1.7500 C   0  0  1  0  0  0  0  0  0  0  0  0
   -7.3240    0.3220   -1.9680 H   0  0  0  0  0  0  0  0  0  0  0  0
   -9.1220   -0.4430   -2.6650 O   0  0  0  0  0  0  0  0  0  0  0  0
   -8.6850   -0.3740   -0.3400 C   0  0  2  0  0  0  0  0  0  0  0  0
   -9.3840   -1.2380   -0.1750 H   0  0  0  0  0  0  0  0  0  0  0  0
   -9.4160    0.9240   -0.2240 C   0  0  0  0  0  0  0  0  0  0  0  0
  -10.6280    1.0530    0.3200 C   0  0  0  0  0  0  0  0  0  0  0  0
  -11.3960   -0.0820    0.8970 C   0  0  0  0  0  0  0  0  0  0  0  0
  -11.3150    2.3730    0.3820 C   0  0  0  0  0  0  0  0  0  0  0  0
   -7.5440   -0.4060    0.6840 C   0  0  1  0  0  0  0  0  0  0  0  0
   -7.0570    0.6050    0.6700 H   0  0  0  0  0  0  0  0  0  0  0  0
   -8.1390   -0.5880    2.0800 C   0  0  0  0  0  0  0  0  0  0  0  0
   -6.5090   -1.5020    0.4020 C   0  0  2  0  0  0  0  0  0  0  0  0
   -6.6920   -2.3310    1.1360 H   0  0  0  0  0  0  0  0  0  0  0  0
    1.4710   -1.5570   -0.5330 C   0  0  0  0  0  0  0  0  0  0  0  0
    6.2500    0.9270    0.6190 O   0  0  0  0  0  0  0  0  0  0  0  0
    5.0250    1.6150    0.7310 C   0  0  1  0  0  0  0  0  0  0  0  0
    4.1550    0.9180    0.5910 H   0  0  0  0  0  0  0  0  0  0  0  0
    5.0220    2.1830    2.1470 C   0  0  0  0  0  0  0  0  0  0  0  0
    5.0010    2.7440   -0.3250 C   0  0  2  0  0  0  0  0  0  0  0  0
    5.8700    3.4450   -0.1990 H   0  0  0  0  0  0  0  0  0  0  0  0
    3.7380    3.3690   -0.2480 O   0  0  0  0  0  0  0  0  0  0  0  0
    3.6360    4.5720    0.3740 C   0  0  0  0  0  0  0  0  0  0  0  0
    4.5970    5.0760    0.9280 O   0  0  0  0  0  0  0  0  0  0  0  0
    2.2790    5.1330    0.3230 C   0  0  0  0  0  0  0  0  0  0  0  0
    1.3380    4.7190   -0.6160 C   0  0  0  0  0  0  0  0  0  0  0  0
    0.0700    5.2750   -0.6280 C   0  0  0  0  0  0  0  0  0  0  0  0
   -0.2500    6.2330    0.3420 C   0  0  0  0  0  0  0  0  0  0  0  0
   -1.5220    6.6940    0.2980 O   0  0  0  0  0  0  0  0  0  0  0  0
    0.6900    6.6730    1.2720 C   0  0  0  0  0  0  0  0  0  0  0  0
    1.9650    6.1260    1.2400 C   0  0  0  0  0  0  0  0  0  0  0  0
    5.0510    2.0950   -1.7290 C   0  0  1  0  0  0  0  0  0  0  0  0
    4.1720    1.4140   -1.8940 H   0  0  0  0  0  0  0  0  0  0  0  0
    4.9930    3.1520   -2.6340 O   0  0  0  0  0  0  0  0  0  0  0  0
    6.3540    1.2670   -1.8360 C   0  0  1  0  0  0  0  0  0  0  0  0
    6.3410    0.6460   -2.7730 H   0  0  0  0  0  0  0  0  0  0  0  0
    7.3830    2.2050   -1.8750 O   0  0  0  0  0  0  0  0  0  0  0  0
    8.6270   -2.8470   -0.9680 H   0  0  0  0  0  0  0  0  0  0  0  0
    7.7590   -5.7490    0.0400 H   0  0  0  0  0  0  0  0  0  0  0  0
    5.8830   -6.6530    0.9280 H   0  0  0  0  0  0  0  0  0  0  0  0
    5.2670   -5.5940    2.2210 H   0  0  0  0  0  0  0  0  0  0  0  0
    3.4310   -6.6230    1.7530 H   0  0  0  0  0  0  0  0  0  0  0  0
    2.0480   -1.5920    2.8950 H   0  0  0  0  0  0  0  0  0  0  0  0
    1.7600   -0.1940    1.8800 H   0  0  0  0  0  0  0  0  0  0  0  0
   -0.1050   -2.6340    2.2660 H   0  0  0  0  0  0  0  0  0  0  0  0
   -0.3680   -1.0150    2.8980 H   0  0  0  0  0  0  0  0  0  0  0  0
    0.2770    0.7890    0.6280 H   0  0  0  0  0  0  0  0  0  0  0  0
   -1.1380    0.6390   -0.3990 H   0  0  0  0  0  0  0  0  0  0  0  0
   -1.3220    0.8340    1.3450 H   0  0  0  0  0  0  0  0  0  0  0  0
   -0.1010   -2.8000   -2.3020 H   0  0  0  0  0  0  0  0  0  0  0  0
   -2.4930   -2.4500   -2.5220 H   0  0  0  0  0  0  0  0  0  0  0  0
   -2.3390   -3.6580   -1.2580 H   0  0  0  0  0  0  0  0  0  0  0  0
   -2.5310   -1.3680    2.9590 H   0  0  0  0  0  0  0  0  0  0  0  0
   -2.7670    0.0460    1.9450 H   0  0  0  0  0  0  0  0  0  0  0  0
   -4.6430   -2.3730    2.2950 H   0  0  0  0  0  0  0  0  0  0  0  0
   -4.9490   -0.7070    2.7290 H   0  0  0  0  0  0  0  0  0  0  0  0
   -5.4220    1.0450    0.9470 H   0  0  0  0  0  0  0  0  0  0  0  0
   -3.7410    0.7340    0.5080 H   0  0  0  0  0  0  0  0  0  0  0  0
   -4.8640    1.5850   -1.2510 H   0  0  0  0  0  0  0  0  0  0  0  0
   -5.0290   -1.2810   -2.3080 H   0  0  0  0  0  0  0  0  0  0  0  0
   -4.9430   -3.0170   -2.2280 H   0  0  0  0  0  0  0  0  0  0  0  0
   -8.8750   -0.9400   -3.4560 H   0  0  0  0  0  0  0  0  0  0  0  0
   -8.8950    1.7930   -0.6420 H   0  0  0  0  0  0  0  0  0  0  0  0
  -10.9400   -1.0620    0.6790 H   0  0  0  0  0  0  0  0  0  0  0  0
  -11.4720   -0.0020    1.9900 H   0  0  0  0  0  0  0  0  0  0  0  0
  -12.4210   -0.1190    0.5070 H   0  0  0  0  0  0  0  0  0  0  0  0
  -12.0970    2.4420   -0.3900 H   0  0  0  0  0  0  0  0  0  0  0  0
  -11.8100    2.5380    1.3510 H   0  0  0  0  0  0  0  0  0  0  0  0
  -10.6410    3.2280    0.2250 H   0  0  0  0  0  0  0  0  0  0  0  0
   -8.6840   -1.5350    2.1950 H   0  0  0  0  0  0  0  0  0  0  0  0
   -7.3690   -0.5700    2.8650 H   0  0  0  0  0  0  0  0  0  0  0  0
   -8.8540    0.2100    2.3240 H   0  0  0  0  0  0  0  0  0  0  0  0
    1.6950   -0.4840   -0.7230 H   0  0  0  0  0  0  0  0  0  0  0  0
    1.9090   -2.0740   -1.4140 H   0  0  0  0  0  0  0  0  0  0  0  0
    5.8350    2.9060    2.3120 H   0  0  0  0  0  0  0  0  0  0  0  0
    4.0770    2.6980    2.3660 H   0  0  0  0  0  0  0  0  0  0  0  0
    5.1450    1.3930    2.9020 H   0  0  0  0  0  0  0  0  0  0  0  0
    1.5910    3.9540   -1.3470 H   0  0  0  0  0  0  0  0  0  0  0  0
   -0.6710    4.9740   -1.3780 H   0  0  0  0  0  0  0  0  0  0  0  0
   -1.6210    7.4040    0.9680 H   0  0  0  0  0  0  0  0  0  0  0  0
    0.4390    7.4340    2.0160 H   0  0  0  0  0  0  0  0  0  0  0  0
    2.7210    6.4780    1.9410 H   0  0  0  0  0  0  0  0  0  0  0  0
    5.4920    2.9180   -3.4240 H   0  0  0  0  0  0  0  0  0  0  0  0
    8.2170    1.7330   -1.9670 H   0  0  0  0  0  0  0  0  0  0  0  0
  2  1  1  1
  2 78  1  0
  2  3  1  0
  2 59  1  0
  3  4  1  0
  4  6  1  0
  4 17  1  0
  4  5  1  1
  6  7  1  6
  6  8  1  0
  6  9  1  0
  8 81  1  0
  9 11  1  0
  9 12  1  0
  9 10  1  1
 11 82  1  0
 12 13  1  6
 12 16  1  0
 12 14  1  0
 14 15  1  0
 14 83  1  0
 14 84  1  0
 15 85  1  0
 16 17  1  0
 17 18  1  6
 17 19  1  0
 19 20  1  0
 20 58  1  0
 20 21  1  1
 20 22  1  0
 22 87  1  0
 22 23  1  0
 22 86  1  0
 23 24  1  0
 23 88  1  0
 23 89  1  0
 24 26  1  0
 24 25  1  6
 24 31  1  0
 25 91  1  0
 25 90  1  0
 25 92  1  0
 26 27  2  0
 26 58  1  0
 27 93  1  0
 27 28  1  0
 28 94  1  0
 28 95  1  0
 28 29  1  0
 29 30  1  6
 29 38  1  0
 29 31  1  0
 31 32  1  1
 31 33  1  0
 33 97  1  0
 33 34  1  0
 33 96  1  0
 34 35  1  0
 34 98  1  0
 34 99  1  0
 35 38  1  0
 35 36  1  6
 35 56  1  0
 36 37  1  0
 36101  1  0
 36100  1  0
 37102  1  0
 38 40  1  0
 38 39  1  1
 40103  1  0
 40104  1  0
 40 41  1  0
 41 43  1  0
 41 42  1  1
 41 56  1  0
 43 44  1  0
 44 46  1  0
 44 45  1  6
 44 47  1  0
 46105  1  0
 47 49  1  0
 47 48  1  1
 47 53  1  0
 49106  1  0
 49 50  2  0
 50 52  1  0
 50 51  1  0
 51109  1  0
 51107  1  0
 51108  1  0
 52110  1  0
 52112  1  0
 52111  1  0
 53 56  1  0
 53 54  1  1
 53 55  1  0
 55113  1  0
 55115  1  0
 55114  1  0
 56 57  1  1
 58117  1  0
 58116  1  0
 59 60  1  0
 60 63  1  0
 60 61  1  1
 60 62  1  0
 62118  1  0
 62119  1  0
 62120  1  0
 63 75  1  0
 63 65  1  0
 63 64  1  1
 65 66  1  0
 66 68  1  0
 66 67  2  0
 68 69  2  0
 68 74  1  0
 69121  1  0
 69 70  1  0
 70122  1  0
 70 71  2  0
 71 72  1  0
 71 73  1  0
 72123  1  0
 73 74  2  0
 73124  1  0
 74125  1  0
 75 77  1  0
 75 76  1  6
 75 78  1  0
 77126  1  0
 78 79  1  6
 78 80  1  0
 80127  1  0
M  END
>  <id>  (567) 
671

>  <scaffolds>  (567) 
['c1ccccc1', 'C1=C2CCCCC2C2CCC3CCCC3C2C1', 'C1=CCCCC1', 'C1=CCC2CCCCC2C1', 'O=C(OC1CCC(OC2CCCOC2OC2CCC3C(=CCC4C3CCC3C5CCCOC5CC34)C2)OC1)c1ccccc1', 'C1CCOCC1', 'C1=C2CC(OC3CCCCO3)CCC2C2CCC3CCCC3C2C1', 'C1CCCCC1', 'C1=C2CC(OC3OCCCC3OC3CCCCO3)CCC2C2CCC3C4CCCOC4CC3C2C1', 'C1=C2CCCCC2CCC1', 'C1CCC(OC2CCCOC2)OC1']

>  <name>  (567) 
Saundersioside G

>  <formula>  (567) 
C46H66O15

>  <SMILES>  (567) 
[H][C@@]8(O[C@@H]1[C@@H](O)[C@H](O)[C@@H](CO)O[C@@]1([H])O[C@H]6CC[C@@]2(C)C(=CC[C@]3([H])[C@]2([H])CC[C@@]5(CO)[C@@]3([H])C[C@]4([H])O[C@@H](O)[C@H](C=C(C)C)[C@@H](C)[C@@]45[H])C6)O[C@@H](C)[C@H](OC(=O)c7ccc(O)cc7)[C@@H](O)[C@H]8O

>  <ChEMBL_id>  (567) 


>  <ZINC_id>  (567) 


>  <PubChem_id>  (567) 


>  <DrugBank_id>  (567) 


>  <CAS_no>  (567) 
174867-66-4

>  <references>  (567) 
[{'journal': {'name': 'Phytochemistry', 'id': 10}, 'title': 'Saundersiosides C-H, rearranged cholestane glycosides from the bulbs of Ornithogalum saundersiae and their cytostatic activity on HL-60 cells', 'year': 1999, 'start_page': 435, 'volume': 52, 'issue': 3, 'doi': '10.1016/S0031-9422(99)00239-3', 'isbn': '', 'despositor': {'code': 'rah', 'first_name': 'Rowan', 'last_name': 'Hatherley', 'id': 20}, 'refauthors_set': [{'author': {'first_name': 'Minpei', 'initials': 'M', 'last_name': 'Kuroda', 'id': 644}, 'first_author': True, 'id': 1029}, {'author': {'first_name': 'Yoshihiro ', 'initials': 'Y', 'last_name': 'Mimaki', 'id': 643}, 'first_author': None, 'id': 1189}, {'author': {'first_name': 'Yutaka', 'initials': 'Y', 'last_name': 'Sashida', 'id': 645}, 'first_author': None, 'id': 1190}], 'id': 338}]

>  <classifications>  (567) 
[{'classification': 'Steroids and steroid derivatives (Classyfire)', 'id': 942}]

>  <molecular_mass>  (567) 
859.0

$$$$
SANC00672_minRM1.pdb
     RDKit          3D

130137  0  0  1  0  0  0  0  0999 V2000
   -7.5340    0.7030    0.4370 H   0  0  0  0  0  0  0  0  0  0  0  0
   -6.4270    0.8530    0.5680 C   0  0  2  0  0  0  0  0  0  0  0  0
   -5.6920   -0.3230    0.7940 O   0  0  0  0  0  0  0  0  0  0  0  0
   -6.0370   -1.4180   -0.0100 C   0  0  2  0  0  0  0  0  0  0  0  0
   -6.3690   -1.1320   -1.0440 H   0  0  0  0  0  0  0  0  0  0  0  0
   -7.1240   -2.2540    0.7140 C   0  0  1  0  0  0  0  0  0  0  0  0
   -6.8250   -2.4480    1.7810 H   0  0  0  0  0  0  0  0  0  0  0  0
   -8.3000   -1.5110    0.6410 O   0  0  0  0  0  0  0  0  0  0  0  0
   -7.3030   -3.5920   -0.0520 C   0  0  2  0  0  0  0  0  0  0  0  0
   -7.6990   -3.3910   -1.0850 H   0  0  0  0  0  0  0  0  0  0  0  0
   -8.1930   -4.3250    0.7340 O   0  0  0  0  0  0  0  0  0  0  0  0
   -5.9370   -4.3160   -0.1250 C   0  0  1  0  0  0  0  0  0  0  0  0
   -5.5940   -4.6060    0.9060 H   0  0  0  0  0  0  0  0  0  0  0  0
   -6.0230   -5.5700   -1.0240 C   0  0  0  0  0  0  0  0  0  0  0  0
   -4.8520   -6.3010   -0.8030 O   0  0  0  0  0  0  0  0  0  0  0  0
   -5.0150   -3.4810   -0.7730 O   0  0  0  0  0  0  0  0  0  0  0  0
   -4.7470   -2.2920   -0.0610 C   0  0  1  0  0  0  0  0  0  0  0  0
   -4.3450   -2.5010    0.9720 H   0  0  0  0  0  0  0  0  0  0  0  0
   -3.8590   -1.6130   -0.8920 O   0  0  0  0  0  0  0  0  0  0  0  0
   -2.5230   -2.0800   -0.8580 C   0  0  1  0  0  0  0  0  0  0  0  0
   -2.4680   -3.1990   -0.9310 H   0  0  0  0  0  0  0  0  0  0  0  0
   -1.8620   -1.4290   -2.0760 C   0  0  0  0  0  0  0  0  0  0  0  0
   -0.3860   -1.7980   -2.1080 C   0  0  0  0  0  0  0  0  0  0  0  0
    0.3690   -1.3940   -0.8310 C   0  0  1  0  0  0  0  0  0  0  0  0
    0.4510    0.1300   -0.7280 C   0  0  0  0  0  0  0  0  0  0  0  0
   -0.3760   -1.8900    0.3760 C   0  0  0  0  0  0  0  0  0  0  0  0
    0.2120   -2.5020    1.4050 C   0  0  0  0  0  0  0  0  0  0  0  0
    1.6720   -2.7630    1.4870 C   0  0  0  0  0  0  0  0  0  0  0  0
    2.4450   -1.8860    0.5020 C   0  0  2  0  0  0  0  0  0  0  0  0
    2.4000   -0.8340    0.8760 H   0  0  0  0  0  0  0  0  0  0  0  0
    1.7890   -2.0190   -0.8820 C   0  0  2  0  0  0  0  0  0  0  0  0
    1.6820   -3.1160   -1.0980 H   0  0  0  0  0  0  0  0  0  0  0  0
    2.6320   -1.4150   -2.0130 C   0  0  0  0  0  0  0  0  0  0  0  0
    4.1240   -1.7570   -1.9560 C   0  0  0  0  0  0  0  0  0  0  0  0
    4.6860   -1.4580   -0.5620 C   0  0  1  0  0  0  0  0  0  0  0  0
    4.5150    0.0580   -0.3400 C   0  0  0  0  0  0  0  0  0  0  0  0
    4.8160    0.3590    0.9900 O   0  0  0  0  0  0  0  0  0  0  0  0
    3.8850   -2.3530    0.3970 C   0  0  1  0  0  0  0  0  0  0  0  0
    3.8750   -3.4020   -0.0160 H   0  0  0  0  0  0  0  0  0  0  0  0
    4.7140   -2.4040    1.6700 C   0  0  0  0  0  0  0  0  0  0  0  0
    6.1590   -2.4960    1.1240 C   0  0  2  0  0  0  0  0  0  0  0  0
    6.4820   -3.5720    1.0900 H   0  0  0  0  0  0  0  0  0  0  0  0
    7.0260   -1.9540    2.0730 O   0  0  0  0  0  0  0  0  0  0  0  0
    7.7320   -0.7860    1.7490 C   0  0  1  0  0  0  0  0  0  0  0  0
    7.0830    0.1270    1.8570 H   0  0  0  0  0  0  0  0  0  0  0  0
    8.7760   -0.7670    2.6740 O   0  0  0  0  0  0  0  0  0  0  0  0
    8.3720   -0.9040    0.3500 C   0  0  2  0  0  0  0  0  0  0  0  0
    8.9580   -1.8570    0.3050 H   0  0  0  0  0  0  0  0  0  0  0  0
    9.2260    0.2990    0.1150 C   0  0  0  0  0  0  0  0  0  0  0  0
   10.5120    0.2690   -0.2400 C   0  0  0  0  0  0  0  0  0  0  0  0
   11.2670   -0.9900   -0.4740 C   0  0  0  0  0  0  0  0  0  0  0  0
   11.2870    1.5260   -0.4250 C   0  0  0  0  0  0  0  0  0  0  0  0
    7.2410   -0.9330   -0.6870 C   0  0  1  0  0  0  0  0  0  0  0  0
    6.8110    0.1020   -0.7540 H   0  0  0  0  0  0  0  0  0  0  0  0
    7.8440   -1.2580   -2.0530 C   0  0  0  0  0  0  0  0  0  0  0  0
    6.1430   -1.9400   -0.3280 C   0  0  2  0  0  0  0  0  0  0  0  0
    6.2910   -2.8440   -0.9790 H   0  0  0  0  0  0  0  0  0  0  0  0
   -1.8370   -1.5930    0.4230 C   0  0  0  0  0  0  0  0  0  0  0  0
   -6.0530    1.3830   -0.6590 O   0  0  0  0  0  0  0  0  0  0  0  0
   -4.7260    1.8450   -0.7710 C   0  0  1  0  0  0  0  0  0  0  0  0
   -3.9910    1.0070   -0.6250 H   0  0  0  0  0  0  0  0  0  0  0  0
   -4.6230    2.3950   -2.1900 C   0  0  0  0  0  0  0  0  0  0  0  0
   -4.5050    2.9590    0.2780 C   0  0  2  0  0  0  0  0  0  0  0  0
   -5.2330    3.8050    0.1390 H   0  0  0  0  0  0  0  0  0  0  0  0
   -3.1500    3.3470    0.2080 O   0  0  0  0  0  0  0  0  0  0  0  0
   -2.8270    4.5080   -0.4180 C   0  0  0  0  0  0  0  0  0  0  0  0
   -3.6720    5.1480   -1.0210 O   0  0  0  0  0  0  0  0  0  0  0  0
   -1.4010    4.8460   -0.3160 C   0  0  0  0  0  0  0  0  0  0  0  0
   -0.5510    4.2240    0.5990 C   0  0  0  0  0  0  0  0  0  0  0  0
    0.7850    4.5790    0.6560 C   0  0  0  0  0  0  0  0  0  0  0  0
    1.2690    5.5660   -0.2170 C   0  0  0  0  0  0  0  0  0  0  0  0
    2.6020    5.8040   -0.0810 O   0  0  0  0  0  0  0  0  0  0  0  0
    3.1580    6.8400   -0.8510 C   0  0  0  0  0  0  0  0  0  0  0  0
    0.4270    6.2010   -1.1280 C   0  0  0  0  0  0  0  0  0  0  0  0
   -0.9130    5.8380   -1.1650 C   0  0  0  0  0  0  0  0  0  0  0  0
   -4.6770    2.3410    1.6860 C   0  0  1  0  0  0  0  0  0  0  0  0
   -3.9320    1.5170    1.8620 H   0  0  0  0  0  0  0  0  0  0  0  0
   -4.4330    3.3790    2.5840 O   0  0  0  0  0  0  0  0  0  0  0  0
   -6.1070    1.7580    1.7920 C   0  0  1  0  0  0  0  0  0  0  0  0
   -6.2060    1.1530    2.7360 H   0  0  0  0  0  0  0  0  0  0  0  0
   -6.9560    2.8630    1.8120 O   0  0  0  0  0  0  0  0  0  0  0  0
   -8.9780   -1.9840    1.1350 H   0  0  0  0  0  0  0  0  0  0  0  0
   -8.5800   -5.0120    0.1840 H   0  0  0  0  0  0  0  0  0  0  0  0
   -6.8880   -6.2100   -0.7290 H   0  0  0  0  0  0  0  0  0  0  0  0
   -6.1960   -5.2900   -2.0900 H   0  0  0  0  0  0  0  0  0  0  0  0
   -4.4760   -6.5120   -1.6640 H   0  0  0  0  0  0  0  0  0  0  0  0
   -2.3640   -1.7630   -3.0100 H   0  0  0  0  0  0  0  0  0  0  0  0
   -2.0110   -0.3290   -2.0690 H   0  0  0  0  0  0  0  0  0  0  0  0
   -0.2850   -2.8910   -2.2830 H   0  0  0  0  0  0  0  0  0  0  0  0
    0.0820   -1.3260   -2.9970 H   0  0  0  0  0  0  0  0  0  0  0  0
   -0.5250    0.6250   -0.8180 H   0  0  0  0  0  0  0  0  0  0  0  0
    0.8710    0.4600    0.2330 H   0  0  0  0  0  0  0  0  0  0  0  0
    1.0840    0.5690   -1.5170 H   0  0  0  0  0  0  0  0  0  0  0  0
   -0.3680   -2.8560    2.2670 H   0  0  0  0  0  0  0  0  0  0  0  0
    2.0350   -2.5880    2.5240 H   0  0  0  0  0  0  0  0  0  0  0  0
    1.8560   -3.8460    1.3090 H   0  0  0  0  0  0  0  0  0  0  0  0
    2.2330   -1.7490   -2.9950 H   0  0  0  0  0  0  0  0  0  0  0  0
    2.5140   -0.3060   -2.0330 H   0  0  0  0  0  0  0  0  0  0  0  0
    4.2860   -2.8200   -2.2360 H   0  0  0  0  0  0  0  0  0  0  0  0
    4.6720   -1.1910   -2.7390 H   0  0  0  0  0  0  0  0  0  0  0  0
    5.1940    0.6180   -1.0350 H   0  0  0  0  0  0  0  0  0  0  0  0
    3.4910    0.4080   -0.6190 H   0  0  0  0  0  0  0  0  0  0  0  0
    4.5860    1.2820    1.1270 H   0  0  0  0  0  0  0  0  0  0  0  0
    4.5560   -1.5370    2.3390 H   0  0  0  0  0  0  0  0  0  0  0  0
    4.4640   -3.2750    2.3070 H   0  0  0  0  0  0  0  0  0  0  0  0
    8.4530   -1.0900    3.5240 H   0  0  0  0  0  0  0  0  0  0  0  0
    8.7220    1.2580    0.2850 H   0  0  0  0  0  0  0  0  0  0  0  0
   10.8480   -1.5630   -1.3180 H   0  0  0  0  0  0  0  0  0  0  0  0
   12.3290   -0.8200   -0.7100 H   0  0  0  0  0  0  0  0  0  0  0  0
   11.2510   -1.6490    0.4100 H   0  0  0  0  0  0  0  0  0  0  0  0
   10.6860    2.4400   -0.3180 H   0  0  0  0  0  0  0  0  0  0  0  0
   12.1000    1.5990    0.3140 H   0  0  0  0  0  0  0  0  0  0  0  0
   11.7520    1.5730   -1.4220 H   0  0  0  0  0  0  0  0  0  0  0  0
    8.3240   -2.2470   -2.0860 H   0  0  0  0  0  0  0  0  0  0  0  0
    7.0920   -1.2440   -2.8540 H   0  0  0  0  0  0  0  0  0  0  0  0
    8.6190   -0.5310   -2.3390 H   0  0  0  0  0  0  0  0  0  0  0  0
   -2.0010   -0.5030    0.5710 H   0  0  0  0  0  0  0  0  0  0  0  0
   -2.3170   -2.0520    1.3150 H   0  0  0  0  0  0  0  0  0  0  0  0
   -5.2930    3.2510   -2.3610 H   0  0  0  0  0  0  0  0  0  0  0  0
   -3.6010    2.7310   -2.4100 H   0  0  0  0  0  0  0  0  0  0  0  0
   -4.8810    1.6330   -2.9400 H   0  0  0  0  0  0  0  0  0  0  0  0
   -0.9300    3.4550    1.2810 H   0  0  0  0  0  0  0  0  0  0  0  0
    1.4580    4.1020    1.3760 H   0  0  0  0  0  0  0  0  0  0  0  0
    3.1250    6.6370   -1.9350 H   0  0  0  0  0  0  0  0  0  0  0  0
    2.7100    7.8270   -0.6510 H   0  0  0  0  0  0  0  0  0  0  0  0
    4.2110    6.8590   -0.5260 H   0  0  0  0  0  0  0  0  0  0  0  0
    0.7790    6.9730   -1.8170 H   0  0  0  0  0  0  0  0  0  0  0  0
   -1.5860    6.3410   -1.8690 H   0  0  0  0  0  0  0  0  0  0  0  0
   -4.9960    3.2650    3.3580 H   0  0  0  0  0  0  0  0  0  0  0  0
   -7.8590    2.5420    1.9030 H   0  0  0  0  0  0  0  0  0  0  0  0
  2  1  1  6
  2 59  1  0
  2  3  1  0
  2 79  1  0
  3  4  1  0
  4  5  1  6
  4 17  1  0
  4  6  1  0
  6  9  1  0
  6  8  1  0
  6  7  1  1
  8 82  1  0
  9 10  1  6
  9 12  1  0
  9 11  1  0
 11 83  1  0
 12 14  1  0
 12 16  1  0
 12 13  1  1
 14 85  1  0
 14 15  1  0
 14 84  1  0
 15 86  1  0
 16 17  1  0
 17 19  1  0
 17 18  1  1
 19 20  1  0
 20 22  1  0
 20 21  1  6
 20 58  1  0
 22 87  1  0
 22 23  1  0
 22 88  1  0
 23 90  1  0
 23 89  1  0
 23 24  1  0
 24 31  1  0
 24 25  1  1
 24 26  1  0
 25 93  1  0
 25 91  1  0
 25 92  1  0
 26 58  1  0
 26 27  2  0
 27 28  1  0
 27 94  1  0
 28 29  1  0
 28 96  1  0
 28 95  1  0
 29 31  1  0
 29 38  1  0
 29 30  1  1
 31 33  1  0
 31 32  1  6
 33 97  1  0
 33 98  1  0
 33 34  1  0
 34100  1  0
 34 99  1  0
 34 35  1  0
 35 36  1  1
 35 56  1  0
 35 38  1  0
 36101  1  0
 36102  1  0
 36 37  1  0
 37103  1  0
 38 39  1  6
 38 40  1  0
 40 41  1  0
 40105  1  0
 40104  1  0
 41 56  1  0
 41 42  1  6
 41 43  1  0
 43 44  1  0
 44 47  1  0
 44 45  1  6
 44 46  1  0
 46106  1  0
 47 53  1  0
 47 49  1  0
 47 48  1  1
 49 50  2  0
 49107  1  0
 50 51  1  0
 50 52  1  0
 51108  1  0
 51109  1  0
 51110  1  0
 52113  1  0
 52111  1  0
 52112  1  0
 53 55  1  0
 53 54  1  6
 53 56  1  0
 55115  1  0
 55116  1  0
 55114  1  0
 56 57  1  6
 58117  1  0
 58118  1  0
 59 60  1  0
 60 62  1  0
 60 61  1  6
 60 63  1  0
 62121  1  0
 62120  1  0
 62119  1  0
 63 64  1  6
 63 65  1  0
 63 76  1  0
 65 66  1  0
 66 67  2  0
 66 68  1  0
 68 75  2  0
 68 69  1  0
 69 70  2  0
 69122  1  0
 70 71  1  0
 70123  1  0
 71 74  2  0
 71 72  1  0
 72 73  1  0
 73124  1  0
 73125  1  0
 73126  1  0
 74127  1  0
 74 75  1  0
 75128  1  0
 76 79  1  0
 76 77  1  1
 76 78  1  0
 78129  1  0
 79 81  1  0
 79 80  1  1
 81130  1  0
M  END
>  <id>  (568) 
672

>  <scaffolds>  (568) 
['c1ccccc1', 'C1=C2CCCCC2C2CCC3CCCC3C2C1', 'C1=CCCCC1', 'C1=CCC2CCCCC2C1', 'O=C(OC1CCC(OC2CCCOC2OC2CCC3C(=CCC4C3CCC3C5CCCOC5CC34)C2)OC1)c1ccccc1', 'C1CCOCC1', 'C1=C2CC(OC3CCCCO3)CCC2C2CCC3CCCC3C2C1', 'C1CCCCC1', 'C1=C2CC(OC3OCCCC3OC3CCCCO3)CCC2C2CCC3C4CCCOC4CC3C2C1', 'C1=C2CCCCC2CCC1', 'C1CCC(OC2CCCOC2)OC1']

>  <name>  (568) 
Saundersioside H

>  <formula>  (568) 
C47H68O15

>  <SMILES>  (568) 
[H][C@@]8(O[C@@H]1[C@@H](O)[C@H](O)[C@@H](CO)O[C@@]1([H])O[C@H]6CC[C@@]2(C)C(=CC[C@]3([H])[C@]2([H])CC[C@@]5(CO)[C@@]3([H])C[C@]4([H])O[C@@H](O)[C@H](C=C(C)C)[C@@H](C)[C@@]45[H])C6)O[C@@H](C)[C@H](OC(=O)c7ccc(OC)cc7)[C@@H](O)[C@H]8O

>  <ChEMBL_id>  (568) 


>  <ZINC_id>  (568) 


>  <PubChem_id>  (568) 


>  <DrugBank_id>  (568) 


>  <CAS_no>  (568) 
174867-67-5

>  <references>  (568) 
[{'journal': {'name': 'Phytochemistry', 'id': 10}, 'title': 'Saundersiosides C-H, rearranged cholestane glycosides from the bulbs of Ornithogalum saundersiae and their cytostatic activity on HL-60 cells', 'year': 1999, 'start_page': 435, 'volume': 52, 'issue': 3, 'doi': '10.1016/S0031-9422(99)00239-3', 'isbn': '', 'despositor': {'code': 'rah', 'first_name': 'Rowan', 'last_name': 'Hatherley', 'id': 20}, 'refauthors_set': [{'author': {'first_name': 'Minpei', 'initials': 'M', 'last_name': 'Kuroda', 'id': 644}, 'first_author': True, 'id': 1029}, {'author': {'first_name': 'Yoshihiro ', 'initials': 'Y', 'last_name': 'Mimaki', 'id': 643}, 'first_author': None, 'id': 1189}, {'author': {'first_name': 'Yutaka', 'initials': 'Y', 'last_name': 'Sashida', 'id': 645}, 'first_author': None, 'id': 1190}], 'id': 338}]

>  <classifications>  (568) 
[{'classification': 'Steroids and steroid derivatives (Classyfire)', 'id': 942}]

>  <molecular_mass>  (568) 
873.03

$$$$
SANC00673_minRM1.pdb
     RDKit          3D

 46 47  0  0  1  0  0  0  0  0999 V2000
    7.1210    1.4850   -0.0770 C   0  0  0  0  0  0  0  0  0  0  0  0
    6.5080    0.2390    0.1390 O   0  0  0  0  0  0  0  0  0  0  0  0
    5.1460    0.2400    0.2610 C   0  0  0  0  0  0  0  0  0  0  0  0
    4.3710    1.3450    0.5890 C   0  0  0  0  0  0  0  0  0  0  0  0
    2.9960    1.1940    0.7310 C   0  0  0  0  0  0  0  0  0  0  0  0
    2.3970   -0.0490    0.5610 C   0  0  0  0  0  0  0  0  0  0  0  0
    0.9210   -0.1880    0.7250 C   0  0  0  0  0  0  0  0  0  0  0  0
    0.2190    0.1390   -0.6090 C   0  0  1  0  0  0  0  0  0  0  0  0
    0.5600    1.1380   -0.9910 H   0  0  0  0  0  0  0  0  0  0  0  0
    0.6090   -0.7110   -1.6380 O   0  0  0  0  0  0  0  0  0  0  0  0
   -1.2760    0.1070   -0.3880 C   0  0  0  0  0  0  0  0  0  0  0  0
   -1.9080   -1.1050   -0.1350 C   0  0  0  0  0  0  0  0  0  0  0  0
   -3.2870   -1.1170    0.0730 C   0  0  0  0  0  0  0  0  0  0  0  0
   -4.0290   -2.2140    0.3850 O   0  0  0  0  0  0  0  0  0  0  0  0
   -3.4680   -3.4680    0.0790 C   0  0  0  0  0  0  0  0  0  0  0  0
   -4.0240    0.0710    0.0190 C   0  0  0  0  0  0  0  0  0  0  0  0
   -5.3870    0.0390    0.0930 O   0  0  0  0  0  0  0  0  0  0  0  0
   -5.8470    0.1790    1.4190 C   0  0  0  0  0  0  0  0  0  0  0  0
   -3.3590    1.2850   -0.1990 C   0  0  0  0  0  0  0  0  0  0  0  0
   -4.1730    2.3730   -0.1500 O   0  0  0  0  0  0  0  0  0  0  0  0
   -3.6290    3.5990   -0.5710 C   0  0  0  0  0  0  0  0  0  0  0  0
   -1.9820    1.3050   -0.4150 C   0  0  0  0  0  0  0  0  0  0  0  0
    3.1630   -1.1590    0.2200 C   0  0  0  0  0  0  0  0  0  0  0  0
    4.5400   -1.0140    0.0630 C   0  0  0  0  0  0  0  0  0  0  0  0
    5.2170   -2.1510   -0.2340 O   0  0  0  0  0  0  0  0  0  0  0  0
    7.1320    2.1110    0.8310 H   0  0  0  0  0  0  0  0  0  0  0  0
    8.1600    1.2260   -0.3320 H   0  0  0  0  0  0  0  0  0  0  0  0
    6.6800    2.0610   -0.9070 H   0  0  0  0  0  0  0  0  0  0  0  0
    4.8140    2.3320    0.7460 H   0  0  0  0  0  0  0  0  0  0  0  0
    2.3870    2.0680    0.9780 H   0  0  0  0  0  0  0  0  0  0  0  0
    0.6510   -1.2030    1.0860 H   0  0  0  0  0  0  0  0  0  0  0  0
    0.5430    0.4890    1.5200 H   0  0  0  0  0  0  0  0  0  0  0  0
    0.4800   -1.6250   -1.3640 H   0  0  0  0  0  0  0  0  0  0  0  0
   -1.3290   -2.0290   -0.0960 H   0  0  0  0  0  0  0  0  0  0  0  0
   -3.1020   -3.5530   -0.9580 H   0  0  0  0  0  0  0  0  0  0  0  0
   -2.6590   -3.7520    0.7730 H   0  0  0  0  0  0  0  0  0  0  0  0
   -4.3070   -4.1670    0.2170 H   0  0  0  0  0  0  0  0  0  0  0  0
   -6.9430    0.1400    1.3280 H   0  0  0  0  0  0  0  0  0  0  0  0
   -5.5110   -0.6380    2.0780 H   0  0  0  0  0  0  0  0  0  0  0  0
   -5.5580    1.1400    1.8740 H   0  0  0  0  0  0  0  0  0  0  0  0
   -2.8600    3.9860    0.1160 H   0  0  0  0  0  0  0  0  0  0  0  0
   -3.2220    3.5740   -1.5950 H   0  0  0  0  0  0  0  0  0  0  0  0
   -4.4900    4.2820   -0.5490 H   0  0  0  0  0  0  0  0  0  0  0  0
   -1.4510    2.2380   -0.6130 H   0  0  0  0  0  0  0  0  0  0  0  0
    2.7030   -2.1410    0.0680 H   0  0  0  0  0  0  0  0  0  0  0  0
    6.1080   -1.9260   -0.5400 H   0  0  0  0  0  0  0  0  0  0  0  0
  1 28  1  0
  1 27  1  0
  1  2  1  0
  1 26  1  0
  2  3  1  0
  3 24  2  0
  3  4  1  0
  4  5  2  0
  4 29  1  0
  5  6  1  0
  5 30  1  0
  6 23  2  0
  6  7  1  0
  7  8  1  0
  7 31  1  0
  7 32  1  0
  8 10  1  0
  8  9  1  6
  8 11  1  0
 10 33  1  0
 11 22  2  0
 11 12  1  0
 12 34  1  0
 12 13  2  0
 13 16  1  0
 13 14  1  0
 14 15  1  0
 15 35  1  0
 15 37  1  0
 15 36  1  0
 16 19  2  0
 16 17  1  0
 17 18  1  0
 18 38  1  0
 18 40  1  0
 18 39  1  0
 19 22  1  0
 19 20  1  0
 20 21  1  0
 21 42  1  0
 21 43  1  0
 21 41  1  0
 22 44  1  0
 23 24  1  0
 23 45  1  0
 24 25  1  0
 25 46  1  0
M  END
>  <id>  (569) 
673

>  <scaffolds>  (569) 
['c1ccccc1', 'c1ccc(CCc2ccccc2)cc1']

>  <name>  (569) 
Combretastatin

>  <formula>  (569) 
C18H22O6

>  <SMILES>  (569) 
COc2ccc(C[C@@H](O)c1cc(OC)c(OC)c(OC)c1)cc2O

>  <ChEMBL_id>  (569) 
CHEMBL151766

>  <ZINC_id>  (569) 


>  <PubChem_id>  (569) 
 335929

>  <DrugBank_id>  (569) 


>  <CAS_no>  (569) 
82855-09-2

>  <references>  (569) 
[{'journal': {'name': 'Canadian Journal of Chemistry', 'id': 30}, 'title': 'Isolation and structure of combretastatin', 'year': 1982, 'start_page': 1374, 'volume': 60, 'issue': 11, 'doi': '10.1139/v82-202', 'isbn': '', 'despositor': {'code': 'rah', 'first_name': 'Rowan', 'last_name': 'Hatherley', 'id': 20}, 'refauthors_set': [{'author': {'first_name': 'George', 'initials': 'GR', 'last_name': 'Pettit', 'id': 478}, 'first_author': True, 'id': 1359}, {'author': {'first_name': 'Gordon', 'initials': 'GM', 'last_name': 'Cragg', 'id': 672}, 'first_author': None, 'id': 1360}, {'author': {'first_name': 'Delbert', 'initials': 'DL', 'last_name': 'Herald', 'id': 838}, 'first_author': None, 'id': 1361}, {'author': {'first_name': 'Jean', 'initials': 'JM', 'last_name': 'Schmidt', 'id': 839}, 'first_author': None, 'id': 1362}, {'author': {'first_name': 'Prasert', 'initials': 'P', 'last_name': 'Lohavanijaya', 'id': 840}, 'first_author': None, 'id': 1363}], 'id': 389}]

>  <classifications>  (569) 
[{'classification': 'Stilbenes (Classyfire)', 'id': 988}]

>  <molecular_mass>  (569) 
334.36

$$$$
SANC00674_minRM1.pdb
     RDKit          3D

 40 41  0  0  0  0  0  0  0  0999 V2000
    3.5770    2.6330    1.6280 C   0  0  0  0  0  0  0  0  0  0  0  0
    4.1790    1.4750    1.0850 O   0  0  0  0  0  0  0  0  0  0  0  0
    3.3140    0.4630    0.7600 C   0  0  0  0  0  0  0  0  0  0  0  0
    2.1630    0.1610    1.4830 C   0  0  0  0  0  0  0  0  0  0  0  0
    1.3910   -0.9290    1.0990 C   0  0  0  0  0  0  0  0  0  0  0  0
    1.7780   -1.7260    0.0250 C   0  0  0  0  0  0  0  0  0  0  0  0
    0.9640   -2.8760   -0.3550 C   0  0  0  0  0  0  0  0  0  0  0  0
   -0.3460   -2.7870   -0.5880 C   0  0  0  0  0  0  0  0  0  0  0  0
   -1.0790   -1.5250   -0.5490 C   0  0  0  0  0  0  0  0  0  0  0  0
   -0.5830   -0.4240   -1.2320 C   0  0  0  0  0  0  0  0  0  0  0  0
   -1.3170    0.7680   -1.2140 C   0  0  0  0  0  0  0  0  0  0  0  0
   -0.7660    1.8060   -1.8810 O   0  0  0  0  0  0  0  0  0  0  0  0
   -2.5270    0.8480   -0.5210 C   0  0  0  0  0  0  0  0  0  0  0  0
   -3.1660    2.0550   -0.4390 O   0  0  0  0  0  0  0  0  0  0  0  0
   -4.3250    2.1160   -1.2390 C   0  0  0  0  0  0  0  0  0  0  0  0
   -2.9980   -0.2740    0.1760 C   0  0  0  0  0  0  0  0  0  0  0  0
   -4.1770   -0.0690    0.8220 O   0  0  0  0  0  0  0  0  0  0  0  0
   -4.6400   -1.0970    1.6670 C   0  0  0  0  0  0  0  0  0  0  0  0
   -2.2830   -1.4670    0.1590 C   0  0  0  0  0  0  0  0  0  0  0  0
    2.9440   -1.4490   -0.6820 C   0  0  0  0  0  0  0  0  0  0  0  0
    3.7030   -0.3350   -0.3320 C   0  0  0  0  0  0  0  0  0  0  0  0
    4.8120   -0.1220   -1.0800 O   0  0  0  0  0  0  0  0  0  0  0  0
    3.3660    2.5170    2.7100 H   0  0  0  0  0  0  0  0  0  0  0  0
    4.3370    3.4220    1.4980 H   0  0  0  0  0  0  0  0  0  0  0  0
    2.6510    2.9460    1.1160 H   0  0  0  0  0  0  0  0  0  0  0  0
    1.8580    0.7570    2.3540 H   0  0  0  0  0  0  0  0  0  0  0  0
    0.4790   -1.1640    1.6560 H   0  0  0  0  0  0  0  0  0  0  0  0
    1.4930   -3.8300   -0.4420 H   0  0  0  0  0  0  0  0  0  0  0  0
   -0.9390   -3.6740   -0.8360 H   0  0  0  0  0  0  0  0  0  0  0  0
    0.3580   -0.4760   -1.7870 H   0  0  0  0  0  0  0  0  0  0  0  0
   -1.3780    2.5510   -1.8790 H   0  0  0  0  0  0  0  0  0  0  0  0
   -5.0990    1.3860   -0.9560 H   0  0  0  0  0  0  0  0  0  0  0  0
   -4.7160    3.1300   -1.0630 H   0  0  0  0  0  0  0  0  0  0  0  0
   -4.1100    1.9880   -2.3130 H   0  0  0  0  0  0  0  0  0  0  0  0
   -4.9280   -2.0060    1.1130 H   0  0  0  0  0  0  0  0  0  0  0  0
   -3.9280   -1.3610    2.4660 H   0  0  0  0  0  0  0  0  0  0  0  0
   -5.5430   -0.6540    2.1200 H   0  0  0  0  0  0  0  0  0  0  0  0
   -2.6260   -2.3610    0.6820 H   0  0  0  0  0  0  0  0  0  0  0  0
    3.2610   -2.0840   -1.5110 H   0  0  0  0  0  0  0  0  0  0  0  0
    5.2480    0.6900   -0.7830 H   0  0  0  0  0  0  0  0  0  0  0  0
  1  2  1  0
  1 25  1  0
  1 24  1  0
  1 23  1  0
  2  3  1  0
  3 21  2  0
  3  4  1  0
  4  5  2  0
  4 26  1  0
  5  6  1  0
  5 27  1  0
  6 20  2  0
  6  7  1  0
  7  8  2  0
  7 28  1  0
  8 29  1  0
  8  9  1  0
  9 10  2  0
  9 19  1  0
 10 30  1  0
 10 11  1  0
 11 12  1  0
 11 13  2  0
 12 31  1  0
 13 14  1  0
 13 16  1  0
 14 15  1  0
 15 34  1  0
 15 33  1  0
 15 32  1  0
 16 19  2  0
 16 17  1  0
 17 18  1  0
 18 35  1  0
 18 37  1  0
 18 36  1  0
 19 38  1  0
 20 39  1  0
 20 21  1  0
 21 22  1  0
 22 40  1  0
M  END
>  <id>  (570) 
674

>  <scaffolds>  (570) 
['c1ccccc1', 'C(=Cc1ccccc1)c1ccccc1']

>  <name>  (570) 
Combretastatin A-3

>  <formula>  (570) 
C17H18O5

>  <SMILES>  (570) 
COc2ccc(/C=C\c1cc(O)c(OC)c(OC)c1)cc2O

>  <ChEMBL_id>  (570) 


>  <ZINC_id>  (570) 


>  <PubChem_id>  (570) 


>  <DrugBank_id>  (570) 


>  <CAS_no>  (570) 
111394-45-7

>  <references>  (570) 
[{'journal': {'name': 'Canadian Journal of Chemistry', 'id': 30}, 'title': 'Isolation, structure, and synthesis of combretastatin A-2, A-3, and B-2', 'year': 1987, 'start_page': 2390, 'volume': 65, 'issue': 10, 'doi': '10.1139/v87-399', 'isbn': '', 'despositor': {'code': 'rah', 'first_name': 'Rowan', 'last_name': 'Hatherley', 'id': 20}, 'refauthors_set': [{'author': {'first_name': 'George', 'initials': 'GR', 'last_name': 'Pettit', 'id': 478}, 'first_author': True, 'id': 1364}, {'author': {'first_name': 'Sheo', 'initials': 'SB', 'last_name': 'Singh', 'id': 781}, 'first_author': None, 'id': 1365}], 'id': 390}]

>  <classifications>  (570) 
[{'classification': 'Stilbenes (Classyfire)', 'id': 988}]

>  <molecular_mass>  (570) 
302.32

$$$$
SANC00675_minRM1.pdb
     RDKit          3D

 42 43  0  0  0  0  0  0  0  0999 V2000
   -7.0430    1.3640    0.1790 C   0  0  0  0  0  0  0  0  0  0  0  0
   -6.3510    0.1420    0.1530 O   0  0  0  0  0  0  0  0  0  0  0  0
   -4.9970    0.1970   -0.0310 C   0  0  0  0  0  0  0  0  0  0  0  0
   -4.2480    1.3510   -0.2160 C   0  0  0  0  0  0  0  0  0  0  0  0
   -2.8730    1.2480   -0.4050 C   0  0  0  0  0  0  0  0  0  0  0  0
   -2.2470    0.0080   -0.4110 C   0  0  0  0  0  0  0  0  0  0  0  0
   -0.7710   -0.0900   -0.6120 C   0  0  0  0  0  0  0  0  0  0  0  0
   -0.0710   -0.1300    0.7490 C   0  0  0  0  0  0  0  0  0  0  0  0
    1.4050   -0.2200    0.5290 C   0  0  0  0  0  0  0  0  0  0  0  0
    2.0170   -1.4640    0.4980 C   0  0  0  0  0  0  0  0  0  0  0  0
    3.3940   -1.5360    0.2610 C   0  0  0  0  0  0  0  0  0  0  0  0
    3.9220   -2.7790    0.2460 O   0  0  0  0  0  0  0  0  0  0  0  0
    4.1420   -0.3740    0.0570 C   0  0  0  0  0  0  0  0  0  0  0  0
    5.5010   -0.4700   -0.0750 O   0  0  0  0  0  0  0  0  0  0  0  0
    5.9280   -0.3020   -1.4090 C   0  0  0  0  0  0  0  0  0  0  0  0
    3.5030    0.8740    0.1050 C   0  0  0  0  0  0  0  0  0  0  0  0
    4.3320    1.9280   -0.1200 O   0  0  0  0  0  0  0  0  0  0  0  0
    3.8180    3.2120    0.1300 C   0  0  0  0  0  0  0  0  0  0  0  0
    2.1330    0.9550    0.3320 C   0  0  0  0  0  0  0  0  0  0  0  0
   -2.9870   -1.1540   -0.2120 C   0  0  0  0  0  0  0  0  0  0  0  0
   -4.3650   -1.0610   -0.0240 C   0  0  0  0  0  0  0  0  0  0  0  0
   -5.0070   -2.2440    0.1350 O   0  0  0  0  0  0  0  0  0  0  0  0
   -6.7310    2.0250    1.0040 H   0  0  0  0  0  0  0  0  0  0  0  0
   -6.9800    1.9170   -0.7730 H   0  0  0  0  0  0  0  0  0  0  0  0
   -8.0890    1.0630    0.3430 H   0  0  0  0  0  0  0  0  0  0  0  0
   -4.7030    2.3430   -0.2190 H   0  0  0  0  0  0  0  0  0  0  0  0
   -2.2870    2.1610   -0.5510 H   0  0  0  0  0  0  0  0  0  0  0  0
   -0.5100   -0.9900   -1.2080 H   0  0  0  0  0  0  0  0  0  0  0  0
   -0.3880    0.7590   -1.2190 H   0  0  0  0  0  0  0  0  0  0  0  0
   -0.3350    0.7640    1.3530 H   0  0  0  0  0  0  0  0  0  0  0  0
   -0.4460   -0.9830    1.3550 H   0  0  0  0  0  0  0  0  0  0  0  0
    1.4450   -2.3830    0.6550 H   0  0  0  0  0  0  0  0  0  0  0  0
    4.8800   -2.7240    0.1370 H   0  0  0  0  0  0  0  0  0  0  0  0
    5.4990   -1.0490   -2.0960 H   0  0  0  0  0  0  0  0  0  0  0  0
    5.7190    0.7000   -1.8150 H   0  0  0  0  0  0  0  0  0  0  0  0
    7.0190   -0.4410   -1.3590 H   0  0  0  0  0  0  0  0  0  0  0  0
    4.6950    3.8660    0.0010 H   0  0  0  0  0  0  0  0  0  0  0  0
    3.0450    3.5140   -0.5960 H   0  0  0  0  0  0  0  0  0  0  0  0
    3.4260    3.3400    1.1510 H   0  0  0  0  0  0  0  0  0  0  0  0
    1.6090    1.9130    0.3610 H   0  0  0  0  0  0  0  0  0  0  0  0
   -2.5030   -2.1360   -0.2060 H   0  0  0  0  0  0  0  0  0  0  0  0
   -5.9270   -2.0890    0.3800 H   0  0  0  0  0  0  0  0  0  0  0  0
  1 24  1  0
  1  2  1  0
  1 25  1  0
  1 23  1  0
  2  3  1  0
  3  4  2  0
  3 21  1  0
  4  5  1  0
  4 26  1  0
  5 27  1  0
  5  6  2  0
  6  7  1  0
  6 20  1  0
  7 29  1  0
  7 28  1  0
  7  8  1  0
  8  9  1  0
  8 30  1  0
  8 31  1  0
  9 19  2  0
  9 10  1  0
 10 11  2  0
 10 32  1  0
 11 13  1  0
 11 12  1  0
 12 33  1  0
 13 14  1  0
 13 16  2  0
 14 15  1  0
 15 34  1  0
 15 35  1  0
 15 36  1  0
 16 17  1  0
 16 19  1  0
 17 18  1  0
 18 38  1  0
 18 37  1  0
 18 39  1  0
 19 40  1  0
 20 41  1  0
 20 21  2  0
 21 22  1  0
 22 42  1  0
M  END
>  <id>  (571) 
675

>  <scaffolds>  (571) 
['c1ccccc1', 'c1ccc(CCc2ccccc2)cc1']

>  <name>  (571) 
Combretastatin B-2

>  <formula>  (571) 
C17H20O5

>  <SMILES>  (571) 
COc2ccc(CCc1cc(O)c(OC)c(OC)c1)cc2O

>  <ChEMBL_id>  (571) 


>  <ZINC_id>  (571) 


>  <PubChem_id>  (571) 


>  <DrugBank_id>  (571) 


>  <CAS_no>  (571) 
111394-46-8

>  <references>  (571) 
[{'journal': {'name': 'Canadian Journal of Chemistry', 'id': 30}, 'title': 'Isolation, structure, and synthesis of combretastatin A-2, A-3, and B-2', 'year': 1987, 'start_page': 2390, 'volume': 65, 'issue': 10, 'doi': '10.1139/v87-399', 'isbn': '', 'despositor': {'code': 'rah', 'first_name': 'Rowan', 'last_name': 'Hatherley', 'id': 20}, 'refauthors_set': [{'author': {'first_name': 'George', 'initials': 'GR', 'last_name': 'Pettit', 'id': 478}, 'first_author': True, 'id': 1364}, {'author': {'first_name': 'Sheo', 'initials': 'SB', 'last_name': 'Singh', 'id': 781}, 'first_author': None, 'id': 1365}], 'id': 390}]

>  <classifications>  (571) 
[{'classification': 'Stilbenes (Classyfire)', 'id': 988}]

>  <molecular_mass>  (571) 
304.34

$$$$
SANC00676_minRM1.pdb
     RDKit          3D

 38 40  0  0  0  0  0  0  0  0999 V2000
    3.5660    2.4620   -1.7290 C   0  0  0  0  0  0  0  0  0  0  0  0
    4.1170    1.2710   -1.2220 O   0  0  0  0  0  0  0  0  0  0  0  0
    3.2140    0.3090   -0.8580 C   0  0  0  0  0  0  0  0  0  0  0  0
    1.9960    0.0970   -1.4910 C   0  0  0  0  0  0  0  0  0  0  0  0
    1.1840   -0.9520   -1.0750 C   0  0  0  0  0  0  0  0  0  0  0  0
    1.5910   -1.7900   -0.0420 C   0  0  0  0  0  0  0  0  0  0  0  0
    0.7470   -2.9070    0.3700 C   0  0  0  0  0  0  0  0  0  0  0  0
   -0.5590   -2.7850    0.6120 C   0  0  0  0  0  0  0  0  0  0  0  0
   -1.2660   -1.5090    0.5490 C   0  0  0  0  0  0  0  0  0  0  0  0
   -2.4550   -1.4360   -0.1740 C   0  0  0  0  0  0  0  0  0  0  0  0
   -3.1750   -0.2330   -0.2420 C   0  0  0  0  0  0  0  0  0  0  0  0
   -4.3290   -0.0110   -0.9250 O   0  0  0  0  0  0  0  0  0  0  0  0
   -4.9530   -1.1330   -1.4960 C   0  0  0  0  0  0  0  0  0  0  0  0
   -2.6560    0.8510    0.4410 C   0  0  0  0  0  0  0  0  0  0  0  0
   -3.1550    2.1240    0.5410 O   0  0  0  0  0  0  0  0  0  0  0  0
   -2.2480    2.8320    1.3830 C   0  0  0  0  0  0  0  0  0  0  0  0
   -1.1830    1.9560    1.7480 O   0  0  0  0  0  0  0  0  0  0  0  0
   -1.4620    0.7480    1.1690 C   0  0  0  0  0  0  0  0  0  0  0  0
   -0.7310   -0.4140    1.2460 C   0  0  0  0  0  0  0  0  0  0  0  0
    2.8160   -1.5960    0.5910 C   0  0  0  0  0  0  0  0  0  0  0  0
    3.6260   -0.5350    0.1880 C   0  0  0  0  0  0  0  0  0  0  0  0
    4.7960   -0.4110    0.8600 O   0  0  0  0  0  0  0  0  0  0  0  0
    2.6990    2.8380   -1.1540 H   0  0  0  0  0  0  0  0  0  0  0  0
    4.3840    3.1930   -1.6470 H   0  0  0  0  0  0  0  0  0  0  0  0
    3.2810    2.3700   -2.7920 H   0  0  0  0  0  0  0  0  0  0  0  0
    1.6600    0.7410   -2.3080 H   0  0  0  0  0  0  0  0  0  0  0  0
    0.2260   -1.1200   -1.5760 H   0  0  0  0  0  0  0  0  0  0  0  0
    1.2520   -3.8750    0.4610 H   0  0  0  0  0  0  0  0  0  0  0  0
   -1.1680   -3.6520    0.8930 H   0  0  0  0  0  0  0  0  0  0  0  0
   -2.8100   -2.3330   -0.6850 H   0  0  0  0  0  0  0  0  0  0  0  0
   -4.3650   -1.5810   -2.3150 H   0  0  0  0  0  0  0  0  0  0  0  0
   -5.2120   -1.9150   -0.7640 H   0  0  0  0  0  0  0  0  0  0  0  0
   -5.8830   -0.7150   -1.9170 H   0  0  0  0  0  0  0  0  0  0  0  0
   -1.8380    3.7060    0.8370 H   0  0  0  0  0  0  0  0  0  0  0  0
   -2.7780    3.1740    2.3000 H   0  0  0  0  0  0  0  0  0  0  0  0
    0.1990   -0.4820    1.8120 H   0  0  0  0  0  0  0  0  0  0  0  0
    3.1410   -2.2590    1.3990 H   0  0  0  0  0  0  0  0  0  0  0  0
    5.2760    0.3500    0.5370 H   0  0  0  0  0  0  0  0  0  0  0  0
  1 25  1  0
  1 24  1  0
  1  2  1  0
  1 23  1  0
  2  3  1  0
  3  4  2  0
  3 21  1  0
  4 26  1  0
  4  5  1  0
  5 27  1  0
  5  6  2  0
  6  7  1  0
  6 20  1  0
  7 28  1  0
  7  8  2  0
  8  9  1  0
  8 29  1  0
  9 10  2  0
  9 19  1  0
 10 30  1  0
 10 11  1  0
 11 12  1  0
 11 14  2  0
 12 13  1  0
 13 31  1  0
 13 33  1  0
 13 32  1  0
 14 15  1  0
 14 18  1  0
 15 16  1  0
 16 34  1  0
 16 17  1  0
 16 35  1  0
 17 18  1  0
 18 19  2  0
 19 36  1  0
 20 21  2  0
 20 37  1  0
 21 22  1  0
 22 38  1  0
M  END
>  <id>  (572) 
676

>  <scaffolds>  (572) 
['c1ccccc1', 'C(=Cc1ccccc1)c1ccccc1', 'C(=Cc1ccc2c(c1)OCO2)c1ccccc1', 'c1ccc2c(c1)OCO2']

>  <name>  (572) 
Combretastatin A-2

>  <formula>  (572) 
C17H16O5

>  <SMILES>  (572) 
COc3ccc(/C=C\c2cc(OC)c1OCOc1c2)cc3O

>  <ChEMBL_id>  (572) 


>  <ZINC_id>  (572) 


>  <PubChem_id>  (572) 


>  <DrugBank_id>  (572) 


>  <CAS_no>  (572) 
111394-44-6

>  <references>  (572) 
[{'journal': {'name': 'Canadian Journal of Chemistry', 'id': 30}, 'title': 'Isolation, structure, and synthesis of combretastatin A-2, A-3, and B-2', 'year': 1987, 'start_page': 2390, 'volume': 65, 'issue': 10, 'doi': '10.1139/v87-399', 'isbn': '', 'despositor': {'code': 'rah', 'first_name': 'Rowan', 'last_name': 'Hatherley', 'id': 20}, 'refauthors_set': [{'author': {'first_name': 'George', 'initials': 'GR', 'last_name': 'Pettit', 'id': 478}, 'first_author': True, 'id': 1364}, {'author': {'first_name': 'Sheo', 'initials': 'SB', 'last_name': 'Singh', 'id': 781}, 'first_author': None, 'id': 1365}], 'id': 390}]

>  <classifications>  (572) 
[{'classification': 'Stilbenes (Classyfire)', 'id': 988}]

>  <molecular_mass>  (572) 
300.31

$$$$
SANC00677_minRM1.pdb
     RDKit          3D

 41 42  0  0  0  0  0  0  0  0999 V2000
   -2.8440    3.5540   -0.3430 C   0  0  0  0  0  0  0  0  0  0  0  0
   -3.3980    2.3090    0.0420 O   0  0  0  0  0  0  0  0  0  0  0  0
   -2.6230    1.2070   -0.1470 C   0  0  0  0  0  0  0  0  0  0  0  0
   -1.2480    1.2140   -0.3740 C   0  0  0  0  0  0  0  0  0  0  0  0
   -0.5780   -0.0010   -0.4830 C   0  0  0  0  0  0  0  0  0  0  0  0
    0.8990   -0.0040   -0.7100 C   0  0  0  0  0  0  0  0  0  0  0  0
    1.6110   -0.0250    0.6440 C   0  0  0  0  0  0  0  0  0  0  0  0
    3.0870    0.0140    0.4300 C   0  0  0  0  0  0  0  0  0  0  0  0
    3.7820   -1.1680    0.1860 C   0  0  0  0  0  0  0  0  0  0  0  0
    5.1500   -1.1470   -0.0520 C   0  0  0  0  0  0  0  0  0  0  0  0
    5.8140    0.0820   -0.0340 C   0  0  0  0  0  0  0  0  0  0  0  0
    7.1600    0.1860   -0.1880 O   0  0  0  0  0  0  0  0  0  0  0  0
    5.1340    1.2780    0.2150 C   0  0  0  0  0  0  0  0  0  0  0  0
    3.7660    1.2310    0.4420 C   0  0  0  0  0  0  0  0  0  0  0  0
   -1.2440   -1.2160   -0.3530 C   0  0  0  0  0  0  0  0  0  0  0  0
   -2.6190   -1.2110   -0.1190 C   0  0  0  0  0  0  0  0  0  0  0  0
   -3.3980   -2.3090    0.0710 O   0  0  0  0  0  0  0  0  0  0  0  0
   -2.8280   -3.5560   -0.2440 C   0  0  0  0  0  0  0  0  0  0  0  0
   -3.3220   -0.0020   -0.0470 C   0  0  0  0  0  0  0  0  0  0  0  0
   -4.6840   -0.0010    0.0340 O   0  0  0  0  0  0  0  0  0  0  0  0
   -5.1320    0.0050    1.3700 C   0  0  0  0  0  0  0  0  0  0  0  0
   -2.0350    3.8880    0.3380 H   0  0  0  0  0  0  0  0  0  0  0  0
   -2.4750    3.5760   -1.3820 H   0  0  0  0  0  0  0  0  0  0  0  0
   -3.6990    4.2470   -0.2550 H   0  0  0  0  0  0  0  0  0  0  0  0
   -0.6870    2.1440   -0.4780 H   0  0  0  0  0  0  0  0  0  0  0  0
    1.2140   -0.8710   -1.3290 H   0  0  0  0  0  0  0  0  0  0  0  0
    1.2210    0.8770   -1.3050 H   0  0  0  0  0  0  0  0  0  0  0  0
    1.2720    0.8250    1.2740 H   0  0  0  0  0  0  0  0  0  0  0  0
    1.3150   -0.9260    1.2260 H   0  0  0  0  0  0  0  0  0  0  0  0
    3.2530   -2.1260    0.1890 H   0  0  0  0  0  0  0  0  0  0  0  0
    5.6920   -2.0800   -0.2360 H   0  0  0  0  0  0  0  0  0  0  0  0
    7.4590   -0.5410   -0.7720 H   0  0  0  0  0  0  0  0  0  0  0  0
    5.6760    2.2300    0.2430 H   0  0  0  0  0  0  0  0  0  0  0  0
    3.2220    2.1630    0.6210 H   0  0  0  0  0  0  0  0  0  0  0  0
   -0.6780   -2.1460   -0.4220 H   0  0  0  0  0  0  0  0  0  0  0  0
   -3.6720   -4.2550   -0.1460 H   0  0  0  0  0  0  0  0  0  0  0  0
   -2.4390   -3.6200   -1.2750 H   0  0  0  0  0  0  0  0  0  0  0  0
   -2.0330   -3.8600    0.4610 H   0  0  0  0  0  0  0  0  0  0  0  0
   -4.8200    0.9060    1.9250 H   0  0  0  0  0  0  0  0  0  0  0  0
   -6.2300    0.0070    1.2770 H   0  0  0  0  0  0  0  0  0  0  0  0
   -4.8240   -0.8900    1.9340 H   0  0  0  0  0  0  0  0  0  0  0  0
  1 23  1  0
  1 24  1  0
  1  2  1  0
  1 22  1  0
  2  3  1  0
  3  4  2  0
  3 19  1  0
  4  5  1  0
  4 25  1  0
  5  6  1  0
  5 15  2  0
  6 26  1  0
  6 27  1  0
  6  7  1  0
  7  8  1  0
  7 29  1  0
  7 28  1  0
  8  9  2  0
  8 14  1  0
  9 10  1  0
  9 30  1  0
 10 31  1  0
 10 11  2  0
 11 12  1  0
 11 13  1  0
 12 32  1  0
 13 33  1  0
 13 14  2  0
 14 34  1  0
 15 35  1  0
 15 16  1  0
 16 19  2  0
 16 17  1  0
 17 18  1  0
 18 37  1  0
 18 36  1  0
 18 38  1  0
 19 20  1  0
 20 21  1  0
 21 40  1  0
 21 39  1  0
 21 41  1  0
M  END
>  <id>  (573) 
677

>  <scaffolds>  (573) 
['c1ccccc1', 'c1ccc(CCc2ccccc2)cc1']

>  <name>  (573) 
Phenol, 4-[2-(3,4,5-trimethoxyphenyl)ethyl]-

>  <formula>  (573) 
C17H20O4

>  <SMILES>  (573) 
COc2cc(CCc1ccc(O)cc1)cc(OC)c2OC

>  <ChEMBL_id>  (573) 


>  <ZINC_id>  (573) 


>  <PubChem_id>  (573) 


>  <DrugBank_id>  (573) 


>  <CAS_no>  (573) 
39499-95-1

>  <references>  (573) 
[{'journal': {'name': 'Journal of Natural Products', 'id': 5}, 'title': 'Isolation, structure, synthesis, and antimitotic properties of combretastatins B-3 and B-4 from Combretum caffrum', 'year': 1988, 'start_page': 517, 'volume': 51, 'issue': 3, 'doi': '10.1021/np50057a011', 'isbn': '', 'despositor': {'code': 'rah', 'first_name': 'Rowan', 'last_name': 'Hatherley', 'id': 20}, 'refauthors_set': [{'author': {'first_name': 'George', 'initials': 'GR', 'last_name': 'Pettit', 'id': 478}, 'first_author': True, 'id': 1366}, {'author': {'first_name': 'Sheo', 'initials': 'SB', 'last_name': 'Singh', 'id': 781}, 'first_author': None, 'id': 1367}, {'author': {'first_name': 'Jean', 'initials': 'JM', 'last_name': 'Schmidt', 'id': 839}, 'first_author': None, 'id': 1368}], 'id': 391}]

>  <classifications>  (573) 
[{'classification': 'Stilbenes (Classyfire)', 'id': 988}]

>  <molecular_mass>  (573) 
288.34

$$$$
SANC00678_minRM1.pdb
     RDKit          3D

 41 42  0  0  0  0  0  0  0  0999 V2000
   -5.6480    2.5420    0.1760 C   0  0  0  0  0  0  0  0  0  0  0  0
   -4.2670    2.4200   -0.0460 O   0  0  0  0  0  0  0  0  0  0  0  0
   -3.7410    1.1640   -0.1160 C   0  0  0  0  0  0  0  0  0  0  0  0
   -2.3610    1.1600   -0.3460 C   0  0  0  0  0  0  0  0  0  0  0  0
   -1.7030   -0.0590   -0.4480 C   0  0  0  0  0  0  0  0  0  0  0  0
   -0.2270   -0.0820   -0.6810 C   0  0  0  0  0  0  0  0  0  0  0  0
    0.4920   -0.0500    0.6700 C   0  0  0  0  0  0  0  0  0  0  0  0
    1.9680   -0.0890    0.4450 C   0  0  0  0  0  0  0  0  0  0  0  0
    2.6280   -1.3090    0.3700 C   0  0  0  0  0  0  0  0  0  0  0  0
    4.0020   -1.3630    0.1560 C   0  0  0  0  0  0  0  0  0  0  0  0
    4.7160   -0.1810    0.0120 C   0  0  0  0  0  0  0  0  0  0  0  0
    6.0670   -0.0770   -0.1770 O   0  0  0  0  0  0  0  0  0  0  0  0
    6.7780   -1.2750   -0.3620 C   0  0  0  0  0  0  0  0  0  0  0  0
    4.0470    1.0570    0.0660 C   0  0  0  0  0  0  0  0  0  0  0  0
    4.6620    2.2610   -0.0370 O   0  0  0  0  0  0  0  0  0  0  0  0
    2.6720    1.1010    0.2860 C   0  0  0  0  0  0  0  0  0  0  0  0
   -2.3950   -1.2560   -0.3140 C   0  0  0  0  0  0  0  0  0  0  0  0
   -3.7740   -1.2160   -0.0810 C   0  0  0  0  0  0  0  0  0  0  0  0
   -4.3340   -2.4550    0.0290 O   0  0  0  0  0  0  0  0  0  0  0  0
   -5.7170   -2.5320    0.2590 C   0  0  0  0  0  0  0  0  0  0  0  0
   -4.4730   -0.0140    0.0230 C   0  0  0  0  0  0  0  0  0  0  0  0
   -5.8090    3.6320    0.1880 H   0  0  0  0  0  0  0  0  0  0  0  0
   -6.2590    2.1030   -0.6290 H   0  0  0  0  0  0  0  0  0  0  0  0
   -5.9740    2.1310    1.1450 H   0  0  0  0  0  0  0  0  0  0  0  0
   -1.8170    2.1020   -0.4460 H   0  0  0  0  0  0  0  0  0  0  0  0
    0.0760   -0.9800   -1.2620 H   0  0  0  0  0  0  0  0  0  0  0  0
    0.0940    0.7720   -1.3140 H   0  0  0  0  0  0  0  0  0  0  0  0
    0.1970    0.8530    1.2460 H   0  0  0  0  0  0  0  0  0  0  0  0
    0.1610   -0.8980    1.3070 H   0  0  0  0  0  0  0  0  0  0  0  0
    2.0700   -2.2430    0.4840 H   0  0  0  0  0  0  0  0  0  0  0  0
    4.4860   -2.3410    0.1110 H   0  0  0  0  0  0  0  0  0  0  0  0
    6.4360   -1.8620   -1.2300 H   0  0  0  0  0  0  0  0  0  0  0  0
    7.8080   -0.9340   -0.5500 H   0  0  0  0  0  0  0  0  0  0  0  0
    6.7770   -1.9180    0.5350 H   0  0  0  0  0  0  0  0  0  0  0  0
    5.5320    2.1450   -0.4370 H   0  0  0  0  0  0  0  0  0  0  0  0
    2.1620    2.0690    0.3370 H   0  0  0  0  0  0  0  0  0  0  0  0
   -1.8770   -2.2160   -0.3870 H   0  0  0  0  0  0  0  0  0  0  0  0
   -6.0270   -2.0820    1.2160 H   0  0  0  0  0  0  0  0  0  0  0  0
   -6.3200   -2.0990   -0.5570 H   0  0  0  0  0  0  0  0  0  0  0  0
   -5.9100   -3.6150    0.3010 H   0  0  0  0  0  0  0  0  0  0  0  0
   -5.5460    0.0030    0.2080 H   0  0  0  0  0  0  0  0  0  0  0  0
  1 23  1  0
  1  2  1  0
  1 22  1  0
  1 24  1  0
  2  3  1  0
  3  4  2  0
  3 21  1  0
  4  5  1  0
  4 25  1  0
  5  6  1  0
  5 17  2  0
  6 27  1  0
  6 26  1  0
  6  7  1  0
  7  8  1  0
  7 28  1  0
  7 29  1  0
  8 16  2  0
  8  9  1  0
  9 10  2  0
  9 30  1  0
 10 11  1  0
 10 31  1  0
 11 12  1  0
 11 14  2  0
 12 13  1  0
 13 32  1  0
 13 33  1  0
 13 34  1  0
 14 15  1  0
 14 16  1  0
 15 35  1  0
 16 36  1  0
 17 37  1  0
 17 18  1  0
 18 21  2  0
 18 19  1  0
 19 20  1  0
 20 39  1  0
 20 40  1  0
 20 38  1  0
 21 41  1  0
M  END
>  <id>  (574) 
678

>  <scaffolds>  (574) 
['c1ccccc1', 'c1ccc(CCc2ccccc2)cc1']

>  <name>  (574) 
Phenol, 5-[2-(3,5-dimethoxyphenyl)ethyl]-2-methoxy-

>  <formula>  (574) 
C17H20O4

>  <SMILES>  (574) 
COc2cc(CCc1ccc(OC)c(O)c1)cc(OC)c2

>  <ChEMBL_id>  (574) 


>  <ZINC_id>  (574) 


>  <PubChem_id>  (574) 


>  <DrugBank_id>  (574) 


>  <CAS_no>  (574) 
71135-71-2

>  <references>  (574) 
[{'journal': {'name': 'Journal of Natural Products', 'id': 5}, 'title': 'Isolation, structure, synthesis, and antimitotic properties of combretastatins B-3 and B-4 from Combretum caffrum', 'year': 1988, 'start_page': 517, 'volume': 51, 'issue': 3, 'doi': '10.1021/np50057a011', 'isbn': '', 'despositor': {'code': 'rah', 'first_name': 'Rowan', 'last_name': 'Hatherley', 'id': 20}, 'refauthors_set': [{'author': {'first_name': 'George', 'initials': 'GR', 'last_name': 'Pettit', 'id': 478}, 'first_author': True, 'id': 1366}, {'author': {'first_name': 'Sheo', 'initials': 'SB', 'last_name': 'Singh', 'id': 781}, 'first_author': None, 'id': 1367}, {'author': {'first_name': 'Jean', 'initials': 'JM', 'last_name': 'Schmidt', 'id': 839}, 'first_author': None, 'id': 1368}], 'id': 391}]

>  <classifications>  (574) 
[{'classification': 'Stilbenes (Classyfire)', 'id': 988}]

>  <molecular_mass>  (574) 
288.34

$$$$
SANC00679_minRM1.pdb
     RDKit          3D

 38 39  0  0  0  0  0  0  0  0999 V2000
   -5.1990   -2.6710   -0.1680 C   0  0  0  0  0  0  0  0  0  0  0  0
   -3.8180   -2.4950    0.0080 O   0  0  0  0  0  0  0  0  0  0  0  0
   -3.3400   -1.2210    0.0840 C   0  0  0  0  0  0  0  0  0  0  0  0
   -1.9620   -1.1670    0.3210 C   0  0  0  0  0  0  0  0  0  0  0  0
   -1.3500    0.0760    0.4210 C   0  0  0  0  0  0  0  0  0  0  0  0
    0.1200    0.1550    0.6730 C   0  0  0  0  0  0  0  0  0  0  0  0
    0.8660    0.2150   -0.6620 C   0  0  0  0  0  0  0  0  0  0  0  0
    2.3350    0.2370   -0.3920 C   0  0  0  0  0  0  0  0  0  0  0  0
    2.9760    1.4550   -0.1680 C   0  0  0  0  0  0  0  0  0  0  0  0
    4.3330    1.4940    0.1110 C   0  0  0  0  0  0  0  0  0  0  0  0
    5.0500    0.3020    0.1750 C   0  0  0  0  0  0  0  0  0  0  0  0
    6.3990    0.2650    0.3750 O   0  0  0  0  0  0  0  0  0  0  0  0
    4.4080   -0.9250   -0.0390 C   0  0  0  0  0  0  0  0  0  0  0  0
    5.0340   -2.1250   -0.0100 O   0  0  0  0  0  0  0  0  0  0  0  0
    3.0430   -0.9560   -0.3330 C   0  0  0  0  0  0  0  0  0  0  0  0
   -2.0840    1.2470    0.2820 C   0  0  0  0  0  0  0  0  0  0  0  0
   -3.4580    1.1550    0.0360 C   0  0  0  0  0  0  0  0  0  0  0  0
   -4.0590    2.3720   -0.0960 O   0  0  0  0  0  0  0  0  0  0  0  0
   -5.4510    2.4020   -0.2870 C   0  0  0  0  0  0  0  0  0  0  0  0
   -4.1150   -0.0710   -0.0640 C   0  0  0  0  0  0  0  0  0  0  0  0
   -5.8000   -2.2420    0.6530 H   0  0  0  0  0  0  0  0  0  0  0  0
   -5.5740   -2.2830   -1.1280 H   0  0  0  0  0  0  0  0  0  0  0  0
   -5.3240   -3.7650   -0.1450 H   0  0  0  0  0  0  0  0  0  0  0  0
   -1.3850   -2.0890    0.4260 H   0  0  0  0  0  0  0  0  0  0  0  0
    0.3730    1.0350    1.3040 H   0  0  0  0  0  0  0  0  0  0  0  0
    0.4710   -0.7100    1.2780 H   0  0  0  0  0  0  0  0  0  0  0  0
    0.5840   -0.6490   -1.3020 H   0  0  0  0  0  0  0  0  0  0  0  0
    0.5460    1.1050   -1.2450 H   0  0  0  0  0  0  0  0  0  0  0  0
    2.4110    2.3910   -0.2130 H   0  0  0  0  0  0  0  0  0  0  0  0
    4.8390    2.4500    0.2750 H   0  0  0  0  0  0  0  0  0  0  0  0
    6.6020    0.9040    1.0670 H   0  0  0  0  0  0  0  0  0  0  0  0
    5.9430   -2.0100    0.2910 H   0  0  0  0  0  0  0  0  0  0  0  0
    2.5500   -1.9160   -0.5180 H   0  0  0  0  0  0  0  0  0  0  0  0
   -1.6040    2.2250    0.3690 H   0  0  0  0  0  0  0  0  0  0  0  0
   -5.7750    1.9360   -1.2310 H   0  0  0  0  0  0  0  0  0  0  0  0
   -6.0140    1.9500    0.5490 H   0  0  0  0  0  0  0  0  0  0  0  0
   -5.6840    3.4780   -0.3110 H   0  0  0  0  0  0  0  0  0  0  0  0
   -5.1840   -0.1280   -0.2610 H   0  0  0  0  0  0  0  0  0  0  0  0
  1 22  1  0
  1 23  1  0
  1  2  1  0
  1 21  1  0
  2  3  1  0
  3 20  2  0
  3  4  1  0
  4  5  2  0
  4 24  1  0
  5 16  1  0
  5  6  1  0
  6  7  1  0
  6 26  1  0
  6 25  1  0
  7 27  1  0
  7 28  1  0
  7  8  1  0
  8 15  2  0
  8  9  1  0
  9 29  1  0
  9 10  2  0
 10 11  1  0
 10 30  1  0
 11 13  2  0
 11 12  1  0
 12 31  1  0
 13 15  1  0
 13 14  1  0
 14 32  1  0
 15 33  1  0
 16 17  2  0
 16 34  1  0
 17 18  1  0
 17 20  1  0
 18 19  1  0
 19 35  1  0
 19 37  1  0
 19 36  1  0
 20 38  1  0
M  END
>  <id>  (575) 
679

>  <scaffolds>  (575) 
['c1ccccc1', 'c1ccc(CCc2ccccc2)cc1']

>  <name>  (575) 
Combretastatin B-4

>  <formula>  (575) 
C16H18O4

>  <SMILES>  (575) 
COc2cc(CCc1ccc(O)c(O)c1)cc(OC)c2

>  <ChEMBL_id>  (575) 


>  <ZINC_id>  (575) 


>  <PubChem_id>  (575) 


>  <DrugBank_id>  (575) 


>  <CAS_no>  (575) 
116518-75-3

>  <references>  (575) 
[{'journal': {'name': 'Journal of Natural Products', 'id': 5}, 'title': 'Isolation, structure, synthesis, and antimitotic properties of combretastatins B-3 and B-4 from Combretum caffrum', 'year': 1988, 'start_page': 517, 'volume': 51, 'issue': 3, 'doi': '10.1021/np50057a011', 'isbn': '', 'despositor': {'code': 'rah', 'first_name': 'Rowan', 'last_name': 'Hatherley', 'id': 20}, 'refauthors_set': [{'author': {'first_name': 'George', 'initials': 'GR', 'last_name': 'Pettit', 'id': 478}, 'first_author': True, 'id': 1366}, {'author': {'first_name': 'Sheo', 'initials': 'SB', 'last_name': 'Singh', 'id': 781}, 'first_author': None, 'id': 1367}, {'author': {'first_name': 'Jean', 'initials': 'JM', 'last_name': 'Schmidt', 'id': 839}, 'first_author': None, 'id': 1368}], 'id': 391}]

>  <classifications>  (575) 
[{'classification': 'Stilbenes (Classyfire)', 'id': 988}]

>  <molecular_mass>  (575) 
274.31

$$$$
SANC00680_minRM1.pdb
     RDKit          3D

 42 43  0  0  0  0  0  0  0  0999 V2000
    2.9570    3.5920    0.3260 C   0  0  0  0  0  0  0  0  0  0  0  0
    3.6030    2.3800   -0.0140 O   0  0  0  0  0  0  0  0  0  0  0  0
    2.8790    1.2380    0.1430 C   0  0  0  0  0  0  0  0  0  0  0  0
    1.5050    1.1660    0.3670 C   0  0  0  0  0  0  0  0  0  0  0  0
    0.9010   -0.0830    0.4670 C   0  0  0  0  0  0  0  0  0  0  0  0
   -0.5740   -0.1670    0.7050 C   0  0  0  0  0  0  0  0  0  0  0  0
   -1.2970   -0.2630   -0.6400 C   0  0  0  0  0  0  0  0  0  0  0  0
   -2.7720   -0.2770   -0.4030 C   0  0  0  0  0  0  0  0  0  0  0  0
   -3.4290   -1.4890   -0.1970 C   0  0  0  0  0  0  0  0  0  0  0  0
   -4.7940   -1.5150    0.0450 C   0  0  0  0  0  0  0  0  0  0  0  0
   -5.4970   -0.3150    0.1230 C   0  0  0  0  0  0  0  0  0  0  0  0
   -6.8450   -0.2750    0.3180 O   0  0  0  0  0  0  0  0  0  0  0  0
   -4.8400    0.9050   -0.0840 C   0  0  0  0  0  0  0  0  0  0  0  0
   -5.4430    2.1160   -0.0360 O   0  0  0  0  0  0  0  0  0  0  0  0
   -3.4690    0.9240   -0.3590 C   0  0  0  0  0  0  0  0  0  0  0  0
    1.6330   -1.2580    0.3270 C   0  0  0  0  0  0  0  0  0  0  0  0
    3.0080   -1.1780    0.1060 C   0  0  0  0  0  0  0  0  0  0  0  0
    3.8470   -2.2310   -0.0850 O   0  0  0  0  0  0  0  0  0  0  0  0
    3.3340   -3.5130    0.1930 C   0  0  0  0  0  0  0  0  0  0  0  0
    3.6410    0.0690    0.0420 C   0  0  0  0  0  0  0  0  0  0  0  0
    5.0070    0.1400    0.0010 O   0  0  0  0  0  0  0  0  0  0  0  0
    5.4920    0.1920   -1.3220 C   0  0  0  0  0  0  0  0  0  0  0  0
    3.7650    4.3370    0.2460 H   0  0  0  0  0  0  0  0  0  0  0  0
    2.1520    3.8590   -0.3860 H   0  0  0  0  0  0  0  0  0  0  0  0
    2.5620    3.6170    1.3570 H   0  0  0  0  0  0  0  0  0  0  0  0
    0.8930    2.0640    0.4800 H   0  0  0  0  0  0  0  0  0  0  0  0
   -0.8300   -1.0380    1.3450 H   0  0  0  0  0  0  0  0  0  0  0  0
   -0.9430    0.7100    1.2790 H   0  0  0  0  0  0  0  0  0  0  0  0
   -1.0050    0.5790   -1.3040 H   0  0  0  0  0  0  0  0  0  0  0  0
   -0.9720   -1.1680   -1.1980 H   0  0  0  0  0  0  0  0  0  0  0  0
   -2.8700   -2.4290   -0.2250 H   0  0  0  0  0  0  0  0  0  0  0  0
   -5.3160   -2.4660    0.1790 H   0  0  0  0  0  0  0  0  0  0  0  0
   -7.0370   -0.8380    1.0770 H   0  0  0  0  0  0  0  0  0  0  0  0
   -6.3880    1.9880    0.1200 H   0  0  0  0  0  0  0  0  0  0  0  0
   -2.9620    1.8790   -0.5360 H   0  0  0  0  0  0  0  0  0  0  0  0
    1.1180   -2.2180    0.4000 H   0  0  0  0  0  0  0  0  0  0  0  0
    4.2080   -4.1700    0.0820 H   0  0  0  0  0  0  0  0  0  0  0  0
    2.9410   -3.6220    1.2170 H   0  0  0  0  0  0  0  0  0  0  0  0
    2.5640   -3.8320   -0.5320 H   0  0  0  0  0  0  0  0  0  0  0  0
    6.5850    0.2480   -1.2110 H   0  0  0  0  0  0  0  0  0  0  0  0
    5.2330   -0.7050   -1.9080 H   0  0  0  0  0  0  0  0  0  0  0  0
    5.1400    1.0800   -1.8730 H   0  0  0  0  0  0  0  0  0  0  0  0
  1 24  1  0
  1  2  1  0
  1 23  1  0
  1 25  1  0
  2  3  1  0
  3 20  2  0
  3  4  1  0
  4  5  2  0
  4 26  1  0
  5 16  1  0
  5  6  1  0
  6  7  1  0
  6 28  1  0
  6 27  1  0
  7 29  1  0
  7 30  1  0
  7  8  1  0
  8 15  2  0
  8  9  1  0
  9 31  1  0
  9 10  2  0
 10 11  1  0
 10 32  1  0
 11 13  2  0
 11 12  1  0
 12 33  1  0
 13 15  1  0
 13 14  1  0
 14 34  1  0
 15 35  1  0
 16 17  2  0
 16 36  1  0
 17 18  1  0
 17 20  1  0
 18 19  1  0
 19 39  1  0
 19 37  1  0
 19 38  1  0
 20 21  1  0
 21 22  1  0
 22 41  1  0
 22 42  1  0
 22 40  1  0
M  END
>  <id>  (576) 
680

>  <scaffolds>  (576) 
['c1ccccc1', 'c1ccc(CCc2ccccc2)cc1']

>  <name>  (576) 
Combretastatin B-3

>  <formula>  (576) 
C17H20O5

>  <SMILES>  (576) 
COc2cc(CCc1ccc(O)c(O)c1)cc(OC)c2OC

>  <ChEMBL_id>  (576) 


>  <ZINC_id>  (576) 


>  <PubChem_id>  (576) 


>  <DrugBank_id>  (576) 


>  <CAS_no>  (576) 
116518-76-4

>  <references>  (576) 
[{'journal': {'name': 'Journal of Natural Products', 'id': 5}, 'title': 'Isolation, structure, synthesis, and antimitotic properties of combretastatins B-3 and B-4 from Combretum caffrum', 'year': 1988, 'start_page': 517, 'volume': 51, 'issue': 3, 'doi': '10.1021/np50057a011', 'isbn': '', 'despositor': {'code': 'rah', 'first_name': 'Rowan', 'last_name': 'Hatherley', 'id': 20}, 'refauthors_set': [{'author': {'first_name': 'George', 'initials': 'GR', 'last_name': 'Pettit', 'id': 478}, 'first_author': True, 'id': 1366}, {'author': {'first_name': 'Sheo', 'initials': 'SB', 'last_name': 'Singh', 'id': 781}, 'first_author': None, 'id': 1367}, {'author': {'first_name': 'Jean', 'initials': 'JM', 'last_name': 'Schmidt', 'id': 839}, 'first_author': None, 'id': 1368}], 'id': 391}]

>  <classifications>  (576) 
[{'classification': 'Stilbenes (Classyfire)', 'id': 988}]

>  <molecular_mass>  (576) 
304.34

$$$$
SANC00681_minRM1.pdb
     RDKit          3D

 43 44  0  0  0  0  0  0  0  0999 V2000
    3.6790   -2.1350   -2.2480 C   0  0  0  0  0  0  0  0  0  0  0  0
    4.1900   -1.1690   -1.3630 O   0  0  0  0  0  0  0  0  0  0  0  0
    3.3080   -0.2210   -0.9210 C   0  0  0  0  0  0  0  0  0  0  0  0
    2.1220    0.1270   -1.5560 C   0  0  0  0  0  0  0  0  0  0  0  0
    1.3360    1.1410   -1.0210 C   0  0  0  0  0  0  0  0  0  0  0  0
    1.7370    1.8140    0.1280 C   0  0  0  0  0  0  0  0  0  0  0  0
    0.9220    2.9010    0.6600 C   0  0  0  0  0  0  0  0  0  0  0  0
   -0.3920    2.7960    0.8640 C   0  0  0  0  0  0  0  0  0  0  0  0
   -1.1390    1.5610    0.6390 C   0  0  0  0  0  0  0  0  0  0  0  0
   -0.6830    0.3780    1.2140 C   0  0  0  0  0  0  0  0  0  0  0  0
   -1.4190   -0.7900    1.0180 C   0  0  0  0  0  0  0  0  0  0  0  0
   -1.1360   -2.0060    1.5580 O   0  0  0  0  0  0  0  0  0  0  0  0
    0.1360   -2.1670    2.1340 C   0  0  0  0  0  0  0  0  0  0  0  0
   -2.5790   -0.7750    0.2340 C   0  0  0  0  0  0  0  0  0  0  0  0
   -3.2170   -1.9430   -0.0700 O   0  0  0  0  0  0  0  0  0  0  0  0
   -4.2060   -2.2690    0.8810 C   0  0  0  0  0  0  0  0  0  0  0  0
   -3.0330    0.4350   -0.3070 C   0  0  0  0  0  0  0  0  0  0  0  0
   -4.2080    0.3250   -0.9850 O   0  0  0  0  0  0  0  0  0  0  0  0
   -4.6240    1.4440   -1.7270 C   0  0  0  0  0  0  0  0  0  0  0  0
   -2.3120    1.6110   -0.1110 C   0  0  0  0  0  0  0  0  0  0  0  0
    2.9280    1.4790    0.7680 C   0  0  0  0  0  0  0  0  0  0  0  0
    3.7090    0.4490    0.2490 C   0  0  0  0  0  0  0  0  0  0  0  0
    4.8580    0.1930    0.9220 O   0  0  0  0  0  0  0  0  0  0  0  0
    2.7580   -2.6250   -1.8920 H   0  0  0  0  0  0  0  0  0  0  0  0
    3.5040   -1.7280   -3.2580 H   0  0  0  0  0  0  0  0  0  0  0  0
    4.4840   -2.8860   -2.3070 H   0  0  0  0  0  0  0  0  0  0  0  0
    1.7900   -0.3730   -2.4690 H   0  0  0  0  0  0  0  0  0  0  0  0
    0.4000    1.4160   -1.5190 H   0  0  0  0  0  0  0  0  0  0  0  0
    1.4570    3.8330    0.8750 H   0  0  0  0  0  0  0  0  0  0  0  0
   -0.9790    3.6440    1.2320 H   0  0  0  0  0  0  0  0  0  0  0  0
    0.2320    0.3950    1.8100 H   0  0  0  0  0  0  0  0  0  0  0  0
    0.9650   -1.9250    1.4480 H   0  0  0  0  0  0  0  0  0  0  0  0
    0.2630   -1.5940    3.0670 H   0  0  0  0  0  0  0  0  0  0  0  0
    0.1740   -3.2410    2.3730 H   0  0  0  0  0  0  0  0  0  0  0  0
   -3.7960   -2.4210    1.8930 H   0  0  0  0  0  0  0  0  0  0  0  0
   -5.0110   -1.5180    0.9360 H   0  0  0  0  0  0  0  0  0  0  0  0
   -4.6240   -3.2180    0.5170 H   0  0  0  0  0  0  0  0  0  0  0  0
   -5.5150    1.0780   -2.2610 H   0  0  0  0  0  0  0  0  0  0  0  0
   -4.9180    2.2960   -1.0930 H   0  0  0  0  0  0  0  0  0  0  0  0
   -3.8820    1.7840   -2.4690 H   0  0  0  0  0  0  0  0  0  0  0  0
   -2.6370    2.5670   -0.5230 H   0  0  0  0  0  0  0  0  0  0  0  0
    3.2510    2.0130    1.6670 H   0  0  0  0  0  0  0  0  0  0  0  0
    5.2330   -0.6400    0.6160 H   0  0  0  0  0  0  0  0  0  0  0  0
  1 25  1  0
  1 26  1  0
  1 24  1  0
  1  2  1  0
  2  3  1  0
  3  4  2  0
  3 22  1  0
  4 27  1  0
  4  5  1  0
  5 28  1  0
  5  6  2  0
  6  7  1  0
  6 21  1  0
  7  8  2  0
  7 29  1  0
  8  9  1  0
  8 30  1  0
  9 20  2  0
  9 10  1  0
 10 11  2  0
 10 31  1  0
 11 14  1  0
 11 12  1  0
 12 13  1  0
 13 32  1  0
 13 34  1  0
 13 33  1  0
 14 17  2  0
 14 15  1  0
 15 16  1  0
 16 37  1  0
 16 36  1  0
 16 35  1  0
 17 18  1  0
 17 20  1  0
 18 19  1  0
 19 40  1  0
 19 38  1  0
 19 39  1  0
 20 41  1  0
 21 22  2  0
 21 42  1  0
 22 23  1  0
 23 43  1  0
M  END
>  <id>  (577) 
681

>  <scaffolds>  (577) 
['c1ccccc1', 'C(=Cc1ccccc1)c1ccccc1']

>  <name>  (577) 
Combretastatin A-4

>  <formula>  (577) 
C18H20O5

>  <SMILES>  (577) 
COc2ccc(/C=C\c1cc(OC)c(OC)c(OC)c1)cc2O

>  <ChEMBL_id>  (577) 


>  <ZINC_id>  (577) 


>  <PubChem_id>  (577) 


>  <DrugBank_id>  (577) 


>  <CAS_no>  (577) 
117048-59-6

>  <references>  (577) 
[{'journal': {'name': 'Journal of Medicinal Chemistry', 'id': 36}, 'title': 'Antineoplastic Agents. 291. Isolation and Synthesis of Combretastatins A-4, A-5, and A-6', 'year': 1995, 'start_page': 1666, 'volume': 38, 'issue': 10, 'doi': '10.1021/jm00010a011', 'isbn': '', 'despositor': {'code': 'rah', 'first_name': 'Rowan', 'last_name': 'Hatherley', 'id': 20}, 'refauthors_set': [{'author': {'first_name': 'George', 'initials': 'GR', 'last_name': 'Pettit', 'id': 478}, 'first_author': True, 'id': 1369}, {'author': {'first_name': 'Sheo', 'initials': 'SB', 'last_name': 'Singh', 'id': 781}, 'first_author': None, 'id': 1370}, {'author': {'first_name': 'Michael', 'initials': 'R', 'last_name': 'Boyd', 'id': 683}, 'first_author': None, 'id': 1371}, {'author': {'first_name': 'Ernest', 'initials': 'E', 'last_name': 'Hamel', 'id': 841}, 'first_author': None, 'id': 1372}, {'author': {'first_name': 'Robin', 'initials': 'RK', 'last_name': 'Pettit', 'id': 842}, 'first_author': None, 'id': 1373}, {'author': {'first_name': 'Jean', 'initials': 'JM', 'last_name': 'Schmidt', 'id': 839}, 'first_author': None, 'id': 1374}, {'author': {'first_name': 'Fiona', 'initials': 'F', 'last_name': 'Hogan', 'id': 843}, 'first_author': None, 'id': 1375}], 'id': 392}]

>  <classifications>  (577) 
[{'classification': 'Stilbenes (Classyfire)', 'id': 988}]

>  <molecular_mass>  (577) 
316.35

$$$$
SANC00682_minRM1.pdb
     RDKit          3D

 43 44  0  0  0  0  0  0  0  0999 V2000
   -3.1330   -2.8830    1.7700 C   0  0  0  0  0  0  0  0  0  0  0  0
   -3.7650   -1.7490    1.2270 O   0  0  0  0  0  0  0  0  0  0  0  0
   -2.9490   -0.6980    0.9320 C   0  0  0  0  0  0  0  0  0  0  0  0
   -1.7390   -0.4230    1.5510 C   0  0  0  0  0  0  0  0  0  0  0  0
   -1.0280    0.7190    1.1850 C   0  0  0  0  0  0  0  0  0  0  0  0
   -1.5270    1.5770    0.2170 C   0  0  0  0  0  0  0  0  0  0  0  0
   -0.7890    2.7810   -0.1440 C   0  0  0  0  0  0  0  0  0  0  0  0
    0.5140    2.7800   -0.4240 C   0  0  0  0  0  0  0  0  0  0  0  0
    1.3220    1.5640   -0.4560 C   0  0  0  0  0  0  0  0  0  0  0  0
    0.8980    0.4840   -1.2210 C   0  0  0  0  0  0  0  0  0  0  0  0
    1.6810   -0.6730   -1.2430 C   0  0  0  0  0  0  0  0  0  0  0  0
    1.3730   -1.7730   -1.9670 O   0  0  0  0  0  0  0  0  0  0  0  0
    2.8630   -0.7510   -0.5010 C   0  0  0  0  0  0  0  0  0  0  0  0
    3.5530   -1.9260   -0.4160 O   0  0  0  0  0  0  0  0  0  0  0  0
    4.4820   -2.0710   -1.4680 C   0  0  0  0  0  0  0  0  0  0  0  0
    3.2850    0.3660    0.2360 C   0  0  0  0  0  0  0  0  0  0  0  0
    4.4770    0.1850    0.8650 O   0  0  0  0  0  0  0  0  0  0  0  0
    4.9280    1.2260    1.6950 C   0  0  0  0  0  0  0  0  0  0  0  0
    2.5150    1.5260    0.2670 C   0  0  0  0  0  0  0  0  0  0  0  0
   -2.7520    1.3170   -0.4070 C   0  0  0  0  0  0  0  0  0  0  0  0
   -3.4570    0.1770   -0.0550 C   0  0  0  0  0  0  0  0  0  0  0  0
   -4.6290   -0.2390   -0.6140 O   0  0  0  0  0  0  0  0  0  0  0  0
   -5.3730    0.7340   -1.3040 C   0  0  0  0  0  0  0  0  0  0  0  0
   -3.9050   -3.6670    1.7030 H   0  0  0  0  0  0  0  0  0  0  0  0
   -2.2460   -3.2140    1.2040 H   0  0  0  0  0  0  0  0  0  0  0  0
   -2.8570   -2.7510    2.8280 H   0  0  0  0  0  0  0  0  0  0  0  0
   -1.3280   -1.0780    2.3230 H   0  0  0  0  0  0  0  0  0  0  0  0
   -0.0770    0.9380    1.6800 H   0  0  0  0  0  0  0  0  0  0  0  0
   -1.3720    3.7110   -0.1590 H   0  0  0  0  0  0  0  0  0  0  0  0
    1.0470    3.7080   -0.6570 H   0  0  0  0  0  0  0  0  0  0  0  0
   -0.0340    0.5460   -1.7880 H   0  0  0  0  0  0  0  0  0  0  0  0
    0.5380   -1.6130   -2.4260 H   0  0  0  0  0  0  0  0  0  0  0  0
    4.9540   -3.0460   -1.2750 H   0  0  0  0  0  0  0  0  0  0  0  0
    4.0070   -2.0910   -2.4630 H   0  0  0  0  0  0  0  0  0  0  0  0
    5.2570   -1.2870   -1.4630 H   0  0  0  0  0  0  0  0  0  0  0  0
    5.1480    2.1560    1.1420 H   0  0  0  0  0  0  0  0  0  0  0  0
    4.2410    1.4540    2.5270 H   0  0  0  0  0  0  0  0  0  0  0  0
    5.8670    0.8320    2.1120 H   0  0  0  0  0  0  0  0  0  0  0  0
    2.8100    2.4050    0.8410 H   0  0  0  0  0  0  0  0  0  0  0  0
   -3.1180    2.0130   -1.1660 H   0  0  0  0  0  0  0  0  0  0  0  0
   -5.5550    1.6540   -0.7250 H   0  0  0  0  0  0  0  0  0  0  0  0
   -4.9240    1.0030   -2.2770 H   0  0  0  0  0  0  0  0  0  0  0  0
   -6.3380    0.2380   -1.4910 H   0  0  0  0  0  0  0  0  0  0  0  0
  1 25  1  0
  1  2  1  0
  1 24  1  0
  1 26  1  0
  2  3  1  0
  3 21  2  0
  3  4  1  0
  4  5  2  0
  4 27  1  0
  5  6  1  0
  5 28  1  0
  6 20  2  0
  6  7  1  0
  7  8  2  0
  7 29  1  0
  8 30  1  0
  8  9  1  0
  9 10  2  0
  9 19  1  0
 10 31  1  0
 10 11  1  0
 11 12  1  0
 11 13  2  0
 12 32  1  0
 13 14  1  0
 13 16  1  0
 14 15  1  0
 15 34  1  0
 15 35  1  0
 15 33  1  0
 16 19  2  0
 16 17  1  0
 17 18  1  0
 18 36  1  0
 18 38  1  0
 18 37  1  0
 19 39  1  0
 20 40  1  0
 20 21  1  0
 21 22  1  0
 22 23  1  0
 23 42  1  0
 23 43  1  0
 23 41  1  0
M  END
>  <id>  (578) 
682

>  <scaffolds>  (578) 
['c1ccccc1', 'C(=Cc1ccccc1)c1ccccc1']

>  <name>  (578) 
Combretastatin A-5

>  <formula>  (578) 
C18H20O5

>  <SMILES>  (578) 
COc2ccc(/C=C\c1cc(O)c(OC)c(OC)c1)cc2OC

>  <ChEMBL_id>  (578) 


>  <ZINC_id>  (578) 


>  <PubChem_id>  (578) 


>  <DrugBank_id>  (578) 


>  <CAS_no>  (578) 
117048-60-9

>  <references>  (578) 
[{'journal': {'name': 'Journal of Medicinal Chemistry', 'id': 36}, 'title': 'Antineoplastic Agents. 291. Isolation and Synthesis of Combretastatins A-4, A-5, and A-6', 'year': 1995, 'start_page': 1666, 'volume': 38, 'issue': 10, 'doi': '10.1021/jm00010a011', 'isbn': '', 'despositor': {'code': 'rah', 'first_name': 'Rowan', 'last_name': 'Hatherley', 'id': 20}, 'refauthors_set': [{'author': {'first_name': 'George', 'initials': 'GR', 'last_name': 'Pettit', 'id': 478}, 'first_author': True, 'id': 1369}, {'author': {'first_name': 'Sheo', 'initials': 'SB', 'last_name': 'Singh', 'id': 781}, 'first_author': None, 'id': 1370}, {'author': {'first_name': 'Michael', 'initials': 'R', 'last_name': 'Boyd', 'id': 683}, 'first_author': None, 'id': 1371}, {'author': {'first_name': 'Ernest', 'initials': 'E', 'last_name': 'Hamel', 'id': 841}, 'first_author': None, 'id': 1372}, {'author': {'first_name': 'Robin', 'initials': 'RK', 'last_name': 'Pettit', 'id': 842}, 'first_author': None, 'id': 1373}, {'author': {'first_name': 'Jean', 'initials': 'JM', 'last_name': 'Schmidt', 'id': 839}, 'first_author': None, 'id': 1374}, {'author': {'first_name': 'Fiona', 'initials': 'F', 'last_name': 'Hogan', 'id': 843}, 'first_author': None, 'id': 1375}], 'id': 392}]

>  <classifications>  (578) 
[{'classification': 'Stilbenes (Classyfire)', 'id': 988}]

>  <molecular_mass>  (578) 
316.35

$$$$
SANC00683_minRM1.pdb
     RDKit          3D

 43 44  0  0  0  0  0  0  0  0999 V2000
   -6.6650   -2.1240    0.1490 C   0  0  0  0  0  0  0  0  0  0  0  0
   -6.1850   -0.8030    0.1010 O   0  0  0  0  0  0  0  0  0  0  0  0
   -4.8350   -0.6430    0.0440 C   0  0  0  0  0  0  0  0  0  0  0  0
   -3.8870   -1.6530    0.0490 C   0  0  0  0  0  0  0  0  0  0  0  0
   -2.5330   -1.3190    0.0190 C   0  0  0  0  0  0  0  0  0  0  0  0
   -2.1230    0.0060   -0.0190 C   0  0  0  0  0  0  0  0  0  0  0  0
   -0.7130    0.3640   -0.0520 C   0  0  0  0  0  0  0  0  0  0  0  0
    0.2760   -0.5400   -0.0730 C   0  0  0  0  0  0  0  0  0  0  0  0
    1.6870   -0.1730   -0.0780 C   0  0  0  0  0  0  0  0  0  0  0  0
    2.0710    1.1610   -0.1330 C   0  0  0  0  0  0  0  0  0  0  0  0
    3.4300    1.4890   -0.1180 C   0  0  0  0  0  0  0  0  0  0  0  0
    3.7160    2.8080   -0.1810 O   0  0  0  0  0  0  0  0  0  0  0  0
    4.3990    0.4850   -0.0570 C   0  0  0  0  0  0  0  0  0  0  0  0
    5.7220    0.8270   -0.1440 O   0  0  0  0  0  0  0  0  0  0  0  0
    6.3990    0.7340    1.0880 C   0  0  0  0  0  0  0  0  0  0  0  0
    3.9970   -0.8590   -0.0240 C   0  0  0  0  0  0  0  0  0  0  0  0
    5.0320   -1.7410    0.0330 O   0  0  0  0  0  0  0  0  0  0  0  0
    4.7240   -3.1070   -0.0890 C   0  0  0  0  0  0  0  0  0  0  0  0
    2.6470   -1.1920   -0.0280 C   0  0  0  0  0  0  0  0  0  0  0  0
   -3.0800    1.0330   -0.0310 C   0  0  0  0  0  0  0  0  0  0  0  0
   -4.4250    0.7120    0.0010 C   0  0  0  0  0  0  0  0  0  0  0  0
   -5.4620    1.5940    0.0200 O   0  0  0  0  0  0  0  0  0  0  0  0
   -5.1420    2.9610   -0.0390 C   0  0  0  0  0  0  0  0  0  0  0  0
   -7.7600   -1.9880    0.1670 H   0  0  0  0  0  0  0  0  0  0  0  0
   -6.4020   -2.7210   -0.7400 H   0  0  0  0  0  0  0  0  0  0  0  0
   -6.3540   -2.6630    1.0570 H   0  0  0  0  0  0  0  0  0  0  0  0
   -4.1630   -2.7080    0.1000 H   0  0  0  0  0  0  0  0  0  0  0  0
   -1.7900   -2.1240    0.0330 H   0  0  0  0  0  0  0  0  0  0  0  0
   -0.4800    1.4390   -0.0480 H   0  0  0  0  0  0  0  0  0  0  0  0
    0.0510   -1.6150   -0.0900 H   0  0  0  0  0  0  0  0  0  0  0  0
    1.3230    1.9620   -0.1820 H   0  0  0  0  0  0  0  0  0  0  0  0
    4.6570    2.9270   -0.0230 H   0  0  0  0  0  0  0  0  0  0  0  0
    7.4450    0.9630    0.8360 H   0  0  0  0  0  0  0  0  0  0  0  0
    6.0350    1.4620    1.8320 H   0  0  0  0  0  0  0  0  0  0  0  0
    6.3620   -0.2680    1.5460 H   0  0  0  0  0  0  0  0  0  0  0  0
    4.1490   -3.4970    0.7660 H   0  0  0  0  0  0  0  0  0  0  0  0
    4.2030   -3.3590   -1.0270 H   0  0  0  0  0  0  0  0  0  0  0  0
    5.7170   -3.5850   -0.0940 H   0  0  0  0  0  0  0  0  0  0  0  0
    2.3150   -2.2320   -0.0060 H   0  0  0  0  0  0  0  0  0  0  0  0
   -2.7400    2.0720   -0.0590 H   0  0  0  0  0  0  0  0  0  0  0  0
   -4.5680    3.3080    0.8350 H   0  0  0  0  0  0  0  0  0  0  0  0
   -4.6090    3.2480   -0.9610 H   0  0  0  0  0  0  0  0  0  0  0  0
   -6.1270    3.4520   -0.0370 H   0  0  0  0  0  0  0  0  0  0  0  0
  1 25  1  0
  1  2  1  0
  1 24  1  0
  1 26  1  0
  2  3  1  0
  3 21  2  0
  3  4  1  0
  4  5  2  0
  4 27  1  0
  5  6  1  0
  5 28  1  0
  6  7  1  0
  6 20  2  0
  7  8  2  0
  7 29  1  0
  8 30  1  0
  8  9  1  0
  9 10  2  0
  9 19  1  0
 10 31  1  0
 10 11  1  0
 11 12  1  0
 11 13  2  0
 12 32  1  0
 13 14  1  0
 13 16  1  0
 14 15  1  0
 15 33  1  0
 15 35  1  0
 15 34  1  0
 16 19  2  0
 16 17  1  0
 17 18  1  0
 18 37  1  0
 18 38  1  0
 18 36  1  0
 19 39  1  0
 20 40  1  0
 20 21  1  0
 21 22  1  0
 22 23  1  0
 23 42  1  0
 23 43  1  0
 23 41  1  0
M  END
>  <id>  (579) 
683

>  <scaffolds>  (579) 
['c1ccccc1', 'C(=Cc1ccccc1)c1ccccc1']

>  <name>  (579) 
Combretastatin A-6

>  <formula>  (579) 
C18H20O5

>  <SMILES>  (579) 
COc2ccc(/C=C/c1cc(O)c(OC)c(OC)c1)cc2OC

>  <ChEMBL_id>  (579) 


>  <ZINC_id>  (579) 


>  <PubChem_id>  (579) 


>  <DrugBank_id>  (579) 


>  <CAS_no>  (579) 
117048-61-0

>  <references>  (579) 
[{'journal': {'name': 'Journal of Medicinal Chemistry', 'id': 36}, 'title': 'Antineoplastic Agents. 291. Isolation and Synthesis of Combretastatins A-4, A-5, and A-6', 'year': 1995, 'start_page': 1666, 'volume': 38, 'issue': 10, 'doi': '10.1021/jm00010a011', 'isbn': '', 'despositor': {'code': 'rah', 'first_name': 'Rowan', 'last_name': 'Hatherley', 'id': 20}, 'refauthors_set': [{'author': {'first_name': 'George', 'initials': 'GR', 'last_name': 'Pettit', 'id': 478}, 'first_author': True, 'id': 1369}, {'author': {'first_name': 'Sheo', 'initials': 'SB', 'last_name': 'Singh', 'id': 781}, 'first_author': None, 'id': 1370}, {'author': {'first_name': 'Michael', 'initials': 'R', 'last_name': 'Boyd', 'id': 683}, 'first_author': None, 'id': 1371}, {'author': {'first_name': 'Ernest', 'initials': 'E', 'last_name': 'Hamel', 'id': 841}, 'first_author': None, 'id': 1372}, {'author': {'first_name': 'Robin', 'initials': 'RK', 'last_name': 'Pettit', 'id': 842}, 'first_author': None, 'id': 1373}, {'author': {'first_name': 'Jean', 'initials': 'JM', 'last_name': 'Schmidt', 'id': 839}, 'first_author': None, 'id': 1374}, {'author': {'first_name': 'Fiona', 'initials': 'F', 'last_name': 'Hogan', 'id': 843}, 'first_author': None, 'id': 1375}], 'id': 392}]

>  <classifications>  (579) 
[{'classification': 'Stilbenes (Classyfire)', 'id': 988}]

>  <molecular_mass>  (579) 
316.35

$$$$
SANC00684_minRM1.pdb
     RDKit          3D

111118  0  0  1  0  0  0  0  0999 V2000
    4.9100   -3.1110   -0.4180 H   0  0  0  0  0  0  0  0  0  0  0  0
    4.8730   -2.2280    0.2760 C   0  0  2  0  0  0  0  0  0  0  0  0
    4.8250   -0.9700   -0.3480 O   0  0  0  0  0  0  0  0  0  0  0  0
    4.0960   -0.9160   -1.5450 C   0  0  2  0  0  0  0  0  0  0  0  0
    3.1930   -1.5790   -1.5480 H   0  0  0  0  0  0  0  0  0  0  0  0
    5.0580   -1.2470   -2.7150 C   0  0  1  0  0  0  0  0  0  0  0  0
    6.0090   -0.6570   -2.6100 H   0  0  0  0  0  0  0  0  0  0  0  0
    5.4800   -2.5670   -2.6360 O   0  0  0  0  0  0  0  0  0  0  0  0
    4.3750   -0.9090   -4.0620 C   0  0  1  0  0  0  0  0  0  0  0  0
    5.0920   -1.0820   -4.9080 H   0  0  0  0  0  0  0  0  0  0  0  0
    3.3460   -1.8210   -4.2950 O   0  0  0  0  0  0  0  0  0  0  0  0
    3.9100    0.5580   -4.0330 C   0  0  0  0  0  0  0  0  0  0  0  0
    3.0530    0.7580   -2.9440 O   0  0  0  0  0  0  0  0  0  0  0  0
    3.6950    0.5810   -1.6950 C   0  0  1  0  0  0  0  0  0  0  0  0
    4.5880    1.2670   -1.5770 H   0  0  0  0  0  0  0  0  0  0  0  0
    2.6830    0.8310   -0.7680 O   0  0  0  0  0  0  0  0  0  0  0  0
    2.3630    2.2010   -0.6130 C   0  0  2  0  0  0  0  0  0  0  0  0
    2.2090    2.7040   -1.6070 H   0  0  0  0  0  0  0  0  0  0  0  0
    3.5320    2.8690    0.1260 C   0  0  0  0  0  0  0  0  0  0  0  0
    3.2160    4.3500    0.3180 C   0  0  2  0  0  0  0  0  0  0  0  0
    3.0760    4.8590   -0.6760 H   0  0  0  0  0  0  0  0  0  0  0  0
    4.3220    4.8850    0.9900 O   0  0  0  0  0  0  0  0  0  0  0  0
    1.9410    4.4750    1.1590 C   0  0  0  0  0  0  0  0  0  0  0  0
    0.8140    3.7410    0.5110 C   0  0  0  0  0  0  0  0  0  0  0  0
   -0.3490    4.3670    0.3320 C   0  0  0  0  0  0  0  0  0  0  0  0
   -1.5720    3.7000   -0.1780 C   0  0  0  0  0  0  0  0  0  0  0  0
   -1.4670    2.1820   -0.0080 C   0  0  2  0  0  0  0  0  0  0  0  0
   -1.4870    1.9410    1.0820 H   0  0  0  0  0  0  0  0  0  0  0  0
   -0.1420    1.7240   -0.6500 C   0  0  2  0  0  0  0  0  0  0  0  0
   -0.0830    2.1760   -1.6760 H   0  0  0  0  0  0  0  0  0  0  0  0
   -0.0700    0.2020   -0.8240 C   0  0  0  0  0  0  0  0  0  0  0  0
   -1.3160   -0.4220   -1.4530 C   0  0  0  0  0  0  0  0  0  0  0  0
   -2.5450   -0.0280   -0.6520 C   0  0  1  0  0  0  0  0  0  0  0  0
   -2.4250   -0.5330    0.7810 C   0  0  0  0  0  0  0  0  0  0  0  0
   -2.6350    1.5100   -0.7080 C   0  0  1  0  0  0  0  0  0  0  0  0
   -2.6440    1.8480   -1.7810 H   0  0  0  0  0  0  0  0  0  0  0  0
   -4.0330    1.7470   -0.1960 C   0  0  0  0  0  0  0  0  0  0  0  0
   -4.4390    2.6230    0.5250 O   0  0  0  0  0  0  0  0  0  0  0  0
   -4.8870    0.6450   -0.8180 C   0  0  2  0  0  0  0  0  0  0  0  0
   -5.5150    1.0620   -1.6450 H   0  0  0  0  0  0  0  0  0  0  0  0
   -5.7160    0.0670    0.1560 O   0  0  0  0  0  0  0  0  0  0  0  0
   -5.8390   -1.3100   -0.1110 C   0  0  2  0  0  0  0  0  0  0  0  0
   -6.8930   -1.4540   -1.0170 O   0  0  0  0  0  0  0  0  0  0  0  0
   -8.1510   -1.0350   -0.5520 C   0  0  0  0  0  0  0  0  0  0  0  0
   -8.5650   -1.8160    0.6990 C   0  0  2  0  0  0  0  0  0  0  0  0
   -8.6110   -2.9070    0.4400 H   0  0  0  0  0  0  0  0  0  0  0  0
   -9.9390   -1.3650    1.1640 C   0  0  0  0  0  0  0  0  0  0  0  0
   -7.5090   -1.6480    1.8030 C   0  0  2  0  0  0  0  0  0  0  0  0
   -7.7460   -2.3110    2.6800 H   0  0  0  0  0  0  0  0  0  0  0  0
   -7.4510   -0.3930    2.3900 O   0  0  0  0  0  0  0  0  0  0  0  0
   -6.1310   -2.0490    1.2190 C   0  0  2  0  0  0  0  0  0  0  0  0
   -6.1160   -3.1530    1.0170 H   0  0  0  0  0  0  0  0  0  0  0  0
   -5.1410   -1.8600    2.1720 O   0  0  0  0  0  0  0  0  0  0  0  0
   -4.5280   -1.7650   -0.8150 C   0  0  1  0  0  0  0  0  0  0  0  0
   -3.8820   -2.2860   -0.0600 H   0  0  0  0  0  0  0  0  0  0  0  0
   -4.7510   -2.7300   -1.9680 C   0  0  0  0  0  0  0  0  0  0  0  0
   -3.8940   -0.4500   -1.2860 C   0  0  2  0  0  0  0  0  0  0  0  0
   -3.7920   -0.4380   -2.3970 H   0  0  0  0  0  0  0  0  0  0  0  0
    1.0380    2.2830    0.1960 C   0  0  1  0  0  0  0  0  0  0  0  0
    1.1590    1.5540    1.5340 C   0  0  0  0  0  0  0  0  0  0  0  0
    3.6710   -2.4230    0.9440 O   0  0  0  0  0  0  0  0  0  0  0  0
    3.3820   -1.5240    1.9920 C   0  0  1  0  0  0  0  0  0  0  0  0
    3.2790   -0.4760    1.6000 H   0  0  0  0  0  0  0  0  0  0  0  0
    2.0540   -2.0120    2.5680 C   0  0  0  0  0  0  0  0  0  0  0  0
    4.4980   -1.5960    3.0600 C   0  0  2  0  0  0  0  0  0  0  0  0
    4.5550   -2.6270    3.5030 H   0  0  0  0  0  0  0  0  0  0  0  0
    4.1920   -0.6040    3.9930 O   0  0  0  0  0  0  0  0  0  0  0  0
    5.8490   -1.2250    2.3990 C   0  0  1  0  0  0  0  0  0  0  0  0
    5.8330   -0.1630    2.0300 H   0  0  0  0  0  0  0  0  0  0  0  0
    6.7900   -1.3840    3.4150 O   0  0  0  0  0  0  0  0  0  0  0  0
    6.1180   -2.1680    1.2050 C   0  0  1  0  0  0  0  0  0  0  0  0
    7.0020   -1.8060    0.6110 H   0  0  0  0  0  0  0  0  0  0  0  0
    6.3600   -3.4200    1.7640 O   0  0  0  0  0  0  0  0  0  0  0  0
    4.8960   -3.1430   -3.1450 H   0  0  0  0  0  0  0  0  0  0  0  0
    2.4930   -1.4180   -4.0750 H   0  0  0  0  0  0  0  0  0  0  0  0
    4.7830    1.2510   -4.0360 H   0  0  0  0  0  0  0  0  0  0  0  0
    3.2920    0.8220   -4.9190 H   0  0  0  0  0  0  0  0  0  0  0  0
    3.7250    2.3700    1.1020 H   0  0  0  0  0  0  0  0  0  0  0  0
    4.4820    2.7410   -0.4390 H   0  0  0  0  0  0  0  0  0  0  0  0
    4.1400    5.8130    1.1630 H   0  0  0  0  0  0  0  0  0  0  0  0
    2.1040    4.0810    2.1870 H   0  0  0  0  0  0  0  0  0  0  0  0
    1.6980    5.5470    1.3240 H   0  0  0  0  0  0  0  0  0  0  0  0
   -0.4690    5.4300    0.5690 H   0  0  0  0  0  0  0  0  0  0  0  0
   -2.4630    4.1010    0.3510 H   0  0  0  0  0  0  0  0  0  0  0  0
   -1.7260    3.9900   -1.2420 H   0  0  0  0  0  0  0  0  0  0  0  0
    0.7920   -0.0760   -1.4650 H   0  0  0  0  0  0  0  0  0  0  0  0
    0.1360   -0.2890    0.1570 H   0  0  0  0  0  0  0  0  0  0  0  0
   -1.4120   -0.1150   -2.5150 H   0  0  0  0  0  0  0  0  0  0  0  0
   -1.2150   -1.5270   -1.4940 H   0  0  0  0  0  0  0  0  0  0  0  0
   -1.4280   -0.3780    1.2170 H   0  0  0  0  0  0  0  0  0  0  0  0
   -3.1400   -0.0480    1.4650 H   0  0  0  0  0  0  0  0  0  0  0  0
   -2.6020   -1.6200    0.8520 H   0  0  0  0  0  0  0  0  0  0  0  0
   -8.1940    0.0680   -0.4030 H   0  0  0  0  0  0  0  0  0  0  0  0
   -8.8180   -1.2520   -1.4150 H   0  0  0  0  0  0  0  0  0  0  0  0
  -10.7110   -1.5640    0.4050 H   0  0  0  0  0  0  0  0  0  0  0  0
  -10.2510   -1.8870    2.0820 H   0  0  0  0  0  0  0  0  0  0  0  0
   -9.9880   -0.2880    1.3840 H   0  0  0  0  0  0  0  0  0  0  0  0
   -7.5530    0.2930    1.7260 H   0  0  0  0  0  0  0  0  0  0  0  0
   -4.9200   -0.9260    2.1990 H   0  0  0  0  0  0  0  0  0  0  0  0
   -5.3080   -2.2880   -2.8060 H   0  0  0  0  0  0  0  0  0  0  0  0
   -3.7940   -3.0870   -2.3760 H   0  0  0  0  0  0  0  0  0  0  0  0
   -5.3170   -3.6160   -1.6500 H   0  0  0  0  0  0  0  0  0  0  0  0
    0.9260    0.4800    1.4590 H   0  0  0  0  0  0  0  0  0  0  0  0
    2.1690    1.6180    1.9620 H   0  0  0  0  0  0  0  0  0  0  0  0
    0.4770    1.9580    2.2960 H   0  0  0  0  0  0  0  0  0  0  0  0
    2.1140   -3.0370    2.9600 H   0  0  0  0  0  0  0  0  0  0  0  0
    1.7250   -1.3630    3.3920 H   0  0  0  0  0  0  0  0  0  0  0  0
    1.2550   -2.0090    1.8120 H   0  0  0  0  0  0  0  0  0  0  0  0
    4.4920   -0.9180    4.8520 H   0  0  0  0  0  0  0  0  0  0  0  0
    7.6640   -1.4020    3.0170 H   0  0  0  0  0  0  0  0  0  0  0  0
    6.5770   -4.0270    1.0490 H   0  0  0  0  0  0  0  0  0  0  0  0
  2  1  1  6
  2  3  1  0
  2 61  1  0
  2 71  1  0
  3  4  1  0
  4  6  1  0
  4 14  1  0
  4  5  1  1
  6  9  1  0
  6  8  1  0
  6  7  1  1
  8 74  1  0
  9 10  1  6
  9 11  1  0
  9 12  1  0
 11 75  1  0
 12 77  1  0
 12 76  1  0
 12 13  1  0
 13 14  1  0
 14 15  1  1
 14 16  1  0
 16 17  1  0
 17 18  1  6
 17 19  1  0
 17 59  1  0
 19 79  1  0
 19 20  1  0
 19 78  1  0
 20 21  1  6
 20 22  1  0
 20 23  1  0
 22 80  1  0
 23 24  1  0
 23 82  1  0
 23 81  1  0
 24 59  1  0
 24 25  2  0
 25 26  1  0
 25 83  1  0
 26 85  1  0
 26 27  1  0
 26 84  1  0
 27 35  1  0
 27 29  1  0
 27 28  1  1
 29 30  1  6
 29 31  1  0
 29 59  1  0
 31 86  1  0
 31 32  1  0
 31 87  1  0
 32 88  1  0
 32 89  1  0
 32 33  1  0
 33 57  1  0
 33 35  1  0
 33 34  1  1
 34 92  1  0
 34 90  1  0
 34 91  1  0
 35 36  1  6
 35 37  1  0
 37 39  1  0
 37 38  2  0
 39 40  1  6
 39 57  1  0
 39 41  1  0
 42 41  1  1
 42 43  1  0
 42 54  1  0
 42 51  1  0
 43 44  1  0
 44 94  1  0
 44 93  1  0
 44 45  1  0
 45 46  1  6
 45 47  1  0
 45 48  1  0
 47 95  1  0
 47 97  1  0
 47 96  1  0
 48 51  1  0
 48 50  1  0
 48 49  1  1
 50 98  1  0
 51 52  1  6
 51 53  1  0
 53 99  1  0
 54 56  1  0
 54 57  1  0
 54 55  1  1
 56100  1  0
 56101  1  0
 56102  1  0
 57 58  1  6
 59 60  1  1
 60103  1  0
 60104  1  0
 60105  1  0
 61 62  1  0
 62 63  1  6
 62 64  1  0
 62 65  1  0
 64108  1  0
 64106  1  0
 64107  1  0
 65 68  1  0
 65 66  1  1
 65 67  1  0
 67109  1  0
 68 71  1  0
 68 69  1  6
 68 70  1  0
 70110  1  0
 71 72  1  6
 71 73  1  0
 73111  1  0
M  END
>  <id>  (580) 
684

>  <scaffolds>  (580) 
['C1=C2CCCCC2C2CCC3CCCC3C2C1', 'C1=CCCCC1', 'C1=CCC2CCCCC2C1', 'C1=C2CCCC(OC3CCCCO3)C2C2CCC3CC(OC4CCCCO4)CC3C2C1', 'C1=C2CCCCC2C2CCC3CC(OC4CCCCO4)CC3C2C1', 'C1CCOCC1', 'C1CCCCC1', 'C1=C2CCCC(OC3OCCCC3OC3CCCCO3)C2C2CCC3C4CC5(CCCCO5)OC4CC3C2C1', 'C1=C2CCCCC2C2CCC3C4CC5(CCCCO5)OC4CC3C2C1', 'C1=C2CCCCC2CCC1', 'C1CCC(OC2CCCOC2)OC1', 'O=C1C2OC3(CCCCO3)CC2C2CCC3C(CC=C4CCCC(OC5OCCCC5OC5CCCCO5)C43)C12']

>  <name>  (580) 
Ornithosaponin A

>  <formula>  (580) 
C38H58O15

>  <SMILES>  (580) 
[H][C@@]8(O[C@@H]1[C@@H](O)[C@@H](O)CO[C@@]1([H])O[C@@H]7C[C@H](O)CC6=CC[C@]2([H])[C@]([H])(CC[C@@]5(C)[C@@]2([H])C(=O)[C@]4([H])O[C@@]3(OC[C@H](C)[C@H](O)[C@@H]3O)[C@@H](C)[C@@]45[H])[C@]67C)O[C@@H](C)[C@H](O)[C@@H](O)[C@H]8O

>  <ChEMBL_id>  (580) 


>  <ZINC_id>  (580) 


>  <PubChem_id>  (580) 


>  <DrugBank_id>  (580) 


>  <CAS_no>  (580) 
882661-04-3

>  <references>  (580) 
[{'journal': {'name': 'Steroids', 'id': 37}, 'title': 'Ornithosaponins A-D, four new polyoxygenated steroidal glycosides from the bulbs of Ornithogalum thyrsoides', 'year': 2006, 'start_page': 199, 'volume': 71, 'issue': None, 'doi': '10.1016/j.steroids.2005.10.001', 'isbn': '', 'despositor': {'code': 'rah', 'first_name': 'Rowan', 'last_name': 'Hatherley', 'id': 20}, 'refauthors_set': [{'author': {'first_name': 'Minpei', 'initials': 'M', 'last_name': 'Kuroda', 'id': 644}, 'first_author': True, 'id': 1376}, {'author': {'first_name': 'Kazutomo', 'initials': 'K', 'last_name': 'Ori', 'id': 793}, 'first_author': None, 'id': 1377}, {'author': {'first_name': 'Yoshihiro ', 'initials': 'Y', 'last_name': 'Mimaki', 'id': 643}, 'first_author': None, 'id': 1378}], 'id': 393}]

>  <classifications>  (580) 
[{'classification': 'Steroids and steroid derivatives (Classyfire)', 'id': 942}]

>  <molecular_mass>  (580) 
754.86

$$$$
SANC00685_minRM1.pdb
     RDKit          3D

131139  0  0  1  0  0  0  0  0999 V2000
   -5.4650    2.0930    0.1840 H   0  0  0  0  0  0  0  0  0  0  0  0
   -6.3860    1.6530   -0.2950 C   0  0  2  0  0  0  0  0  0  0  0  0
   -6.2260    0.3210   -0.6900 O   0  0  0  0  0  0  0  0  0  0  0  0
   -5.7190   -0.5580    0.2890 C   0  0  1  0  0  0  0  0  0  0  0  0
   -5.3470   -0.0280    1.2090 H   0  0  0  0  0  0  0  0  0  0  0  0
   -6.8100   -1.5530    0.6980 C   0  0  1  0  0  0  0  0  0  0  0  0
   -7.6000   -0.9910    1.2650 H   0  0  0  0  0  0  0  0  0  0  0  0
   -7.4870   -2.2690   -0.4580 C   0  0  0  0  0  0  0  0  0  0  0  0
   -6.1480   -2.5640    1.6400 C   0  0  0  0  0  0  0  0  0  0  0  0
   -5.0560   -3.2310    1.0730 O   0  0  0  0  0  0  0  0  0  0  0  0
   -4.0290   -2.4520    0.5280 C   0  0  2  0  0  0  0  0  0  0  0  0
   -3.4200   -3.3650   -0.3500 O   0  0  0  0  0  0  0  0  0  0  0  0
   -2.3310   -3.9800    0.2840 C   0  0  1  0  0  0  0  0  0  0  0  0
   -2.6430   -4.9650    0.7060 H   0  0  0  0  0  0  0  0  0  0  0  0
   -1.2040   -4.1540   -0.7310 C   0  0  0  0  0  0  0  0  0  0  0  0
   -1.3180   -4.6140   -1.8380 O   0  0  0  0  0  0  0  0  0  0  0  0
    0.0410   -3.6240   -0.0650 C   0  0  1  0  0  0  0  0  0  0  0  0
    0.3670   -4.4120    0.6670 H   0  0  0  0  0  0  0  0  0  0  0  0
    1.2280   -3.2580   -0.9350 C   0  0  2  0  0  0  0  0  0  0  0  0
    0.9120   -2.5250   -1.7200 H   0  0  0  0  0  0  0  0  0  0  0  0
    1.7670   -4.5060   -1.6300 C   0  0  0  0  0  0  0  0  0  0  0  0
    3.0970   -4.2580   -2.2350 C   0  0  0  0  0  0  0  0  0  0  0  0
    3.8660   -3.2020   -1.9600 C   0  0  0  0  0  0  0  0  0  0  0  0
    5.1220   -3.0180   -2.7350 C   0  0  0  0  0  0  0  0  0  0  0  0
    6.2770   -2.7240   -1.7810 C   0  0  1  0  0  0  0  0  0  0  0  0
    6.4270   -3.5810   -1.0710 H   0  0  0  0  0  0  0  0  0  0  0  0
    7.4640   -2.4500   -2.4710 O   0  0  0  0  0  0  0  0  0  0  0  0
    5.9520   -1.4480   -1.0100 C   0  0  0  0  0  0  0  0  0  0  0  0
    4.6860   -1.6660   -0.1700 C   0  0  1  0  0  0  0  0  0  0  0  0
    4.8950   -2.4550    0.6020 H   0  0  0  0  0  0  0  0  0  0  0  0
    4.3500   -0.4300    0.4390 O   0  0  0  0  0  0  0  0  0  0  0  0
    5.2840    0.0460    1.3580 C   0  0  2  0  0  0  0  0  0  0  0  0
    6.3400    0.0650    0.9520 H   0  0  0  0  0  0  0  0  0  0  0  0
    5.1610   -0.8380    2.4530 O   0  0  0  0  0  0  0  0  0  0  0  0
    6.0410   -0.5570    3.4980 C   0  0  0  0  0  0  0  0  0  0  0  0
    5.7280    0.8260    4.0950 C   0  0  2  0  0  0  0  0  0  0  0  0
    6.4520    1.0970    4.9050 H   0  0  0  0  0  0  0  0  0  0  0  0
    4.4990    0.8390    4.7420 O   0  0  0  0  0  0  0  0  0  0  0  0
    5.7550    1.8910    2.9700 C   0  0  2  0  0  0  0  0  0  0  0  0
    6.8040    2.0190    2.5890 H   0  0  0  0  0  0  0  0  0  0  0  0
    5.4240    3.1540    3.4390 O   0  0  0  0  0  0  0  0  0  0  0  0
    4.8220    1.4650    1.8060 C   0  0  1  0  0  0  0  0  0  0  0  0
    3.7430    1.4590    2.1090 H   0  0  0  0  0  0  0  0  0  0  0  0
    5.0750    2.2960    0.7040 O   0  0  0  0  0  0  0  0  0  0  0  0
    4.3330    3.4910    0.6750 C   0  0  2  0  0  0  0  0  0  0  0  0
    4.0870    3.9350    1.6750 H   0  0  0  0  0  0  0  0  0  0  0  0
    3.0790    3.2020    0.1570 O   0  0  0  0  0  0  0  0  0  0  0  0
    3.0330    2.7640   -1.1820 C   0  0  1  0  0  0  0  0  0  0  0  0
    3.5830    1.7920   -1.3020 H   0  0  0  0  0  0  0  0  0  0  0  0
    1.5470    2.5850   -1.4860 C   0  0  0  0  0  0  0  0  0  0  0  0
    3.6480    3.8490   -2.0970 C   0  0  2  0  0  0  0  0  0  0  0  0
    3.0750    4.8100   -2.0120 H   0  0  0  0  0  0  0  0  0  0  0  0
    3.6360    3.3060   -3.3820 O   0  0  0  0  0  0  0  0  0  0  0  0
    5.1230    4.0610   -1.6790 C   0  0  1  0  0  0  0  0  0  0  0  0
    5.7220    3.1200   -1.8210 H   0  0  0  0  0  0  0  0  0  0  0  0
    5.5870    5.0650   -2.5260 O   0  0  0  0  0  0  0  0  0  0  0  0
    5.1800    4.4680   -0.1890 C   0  0  1  0  0  0  0  0  0  0  0  0
    6.2420    4.4660    0.1810 H   0  0  0  0  0  0  0  0  0  0  0  0
    4.6290    5.7490   -0.1370 O   0  0  0  0  0  0  0  0  0  0  0  0
    3.4540   -2.1150   -1.0020 C   0  0  1  0  0  0  0  0  0  0  0  0
    2.8990   -0.9650   -1.8400 C   0  0  0  0  0  0  0  0  0  0  0  0
    2.3480   -2.6680   -0.0580 C   0  0  1  0  0  0  0  0  0  0  0  0
    2.7820   -3.5080    0.5430 H   0  0  0  0  0  0  0  0  0  0  0  0
    1.8550   -1.6070    0.9300 C   0  0  0  0  0  0  0  0  0  0  0  0
    0.5640   -1.9620    1.6680 C   0  0  0  0  0  0  0  0  0  0  0  0
   -0.5110   -2.4040    0.6910 C   0  0  1  0  0  0  0  0  0  0  0  0
   -0.8680   -1.2710   -0.2600 C   0  0  0  0  0  0  0  0  0  0  0  0
   -1.7900   -2.9870    1.3420 C   0  0  1  0  0  0  0  0  0  0  0  0
   -1.5080   -3.5220    2.2790 H   0  0  0  0  0  0  0  0  0  0  0  0
   -2.9570   -2.0220    1.5840 C   0  0  2  0  0  0  0  0  0  0  0  0
   -2.6450   -0.9620    1.3960 H   0  0  0  0  0  0  0  0  0  0  0  0
   -3.4240   -2.1030    3.0270 C   0  0  0  0  0  0  0  0  0  0  0  0
   -4.5230   -1.2820   -0.3750 C   0  0  1  0  0  0  0  0  0  0  0  0
   -3.6880   -0.5410   -0.5280 H   0  0  0  0  0  0  0  0  0  0  0  0
   -4.8580   -1.8790   -1.5840 O   0  0  0  0  0  0  0  0  0  0  0  0
   -7.4880    1.6230    0.5760 O   0  0  0  0  0  0  0  0  0  0  0  0
   -7.8690    2.9010    1.0290 C   0  0  2  0  0  0  0  0  0  0  0  0
   -7.0140    3.4150    1.5400 H   0  0  0  0  0  0  0  0  0  0  0  0
   -8.9910    2.6550    2.0250 C   0  0  0  0  0  0  0  0  0  0  0  0
   -8.3360    3.7720   -0.1600 C   0  0  2  0  0  0  0  0  0  0  0  0
   -8.5990    4.8000    0.1920 H   0  0  0  0  0  0  0  0  0  0  0  0
   -9.5000    3.3190   -0.7530 O   0  0  0  0  0  0  0  0  0  0  0  0
   -7.2060    3.8390   -1.2250 C   0  0  1  0  0  0  0  0  0  0  0  0
   -7.5740    4.3710   -2.1410 H   0  0  0  0  0  0  0  0  0  0  0  0
   -6.1640    4.5210   -0.6020 O   0  0  0  0  0  0  0  0  0  0  0  0
   -6.7650    2.4060   -1.5970 C   0  0  1  0  0  0  0  0  0  0  0  0
   -7.5940    1.8750   -2.1330 H   0  0  0  0  0  0  0  0  0  0  0  0
   -5.6370    2.5470   -2.4000 O   0  0  0  0  0  0  0  0  0  0  0  0
   -6.8430   -3.0170   -0.9460 H   0  0  0  0  0  0  0  0  0  0  0  0
   -8.3760   -2.8200   -0.1150 H   0  0  0  0  0  0  0  0  0  0  0  0
   -7.8290   -1.5750   -1.2430 H   0  0  0  0  0  0  0  0  0  0  0  0
   -5.8770   -2.0750    2.6060 H   0  0  0  0  0  0  0  0  0  0  0  0
   -6.8320   -3.4010    1.8960 H   0  0  0  0  0  0  0  0  0  0  0  0
    1.8390   -5.3700   -0.9370 H   0  0  0  0  0  0  0  0  0  0  0  0
    1.0590   -4.8330   -2.4350 H   0  0  0  0  0  0  0  0  0  0  0  0
    3.4210   -5.0240   -2.9500 H   0  0  0  0  0  0  0  0  0  0  0  0
    5.3660   -3.9000   -3.3650 H   0  0  0  0  0  0  0  0  0  0  0  0
    5.0010   -2.1910   -3.4680 H   0  0  0  0  0  0  0  0  0  0  0  0
    7.6870   -3.2430   -2.9730 H   0  0  0  0  0  0  0  0  0  0  0  0
    6.8040   -1.1470   -0.3650 H   0  0  0  0  0  0  0  0  0  0  0  0
    5.8360   -0.5860   -1.7000 H   0  0  0  0  0  0  0  0  0  0  0  0
    5.8820   -1.3740    4.2350 H   0  0  0  0  0  0  0  0  0  0  0  0
    7.1110   -0.6210    3.1880 H   0  0  0  0  0  0  0  0  0  0  0  0
    3.8310    0.3650    4.1920 H   0  0  0  0  0  0  0  0  0  0  0  0
    4.7090    3.0970    4.0700 H   0  0  0  0  0  0  0  0  0  0  0  0
    0.9820    3.5250   -1.3770 H   0  0  0  0  0  0  0  0  0  0  0  0
    1.3970    2.2220   -2.5120 H   0  0  0  0  0  0  0  0  0  0  0  0
    1.0750    1.8640   -0.8040 H   0  0  0  0  0  0  0  0  0  0  0  0
    3.6010    4.0550   -4.0010 H   0  0  0  0  0  0  0  0  0  0  0  0
    6.3960    5.4320   -2.1440 H   0  0  0  0  0  0  0  0  0  0  0  0
    4.7180    6.0710    0.7660 H   0  0  0  0  0  0  0  0  0  0  0  0
    3.6720   -0.4380   -2.4190 H   0  0  0  0  0  0  0  0  0  0  0  0
    2.1430   -1.3120   -2.5600 H   0  0  0  0  0  0  0  0  0  0  0  0
    2.4010   -0.2080   -1.2130 H   0  0  0  0  0  0  0  0  0  0  0  0
    2.6350   -1.4390    1.7050 H   0  0  0  0  0  0  0  0  0  0  0  0
    1.7530   -0.6200    0.4260 H   0  0  0  0  0  0  0  0  0  0  0  0
    0.7600   -2.7490    2.4270 H   0  0  0  0  0  0  0  0  0  0  0  0
    0.2130   -1.0930    2.2630 H   0  0  0  0  0  0  0  0  0  0  0  0
   -0.0060   -0.8590   -0.8010 H   0  0  0  0  0  0  0  0  0  0  0  0
   -1.5880   -1.5770   -1.0330 H   0  0  0  0  0  0  0  0  0  0  0  0
   -1.3150   -0.4220    0.2830 H   0  0  0  0  0  0  0  0  0  0  0  0
   -2.6490   -1.7510    3.7200 H   0  0  0  0  0  0  0  0  0  0  0  0
   -4.3200   -1.4890    3.2130 H   0  0  0  0  0  0  0  0  0  0  0  0
   -3.6760   -3.1280    3.3390 H   0  0  0  0  0  0  0  0  0  0  0  0
   -5.1840   -1.1940   -2.1770 H   0  0  0  0  0  0  0  0  0  0  0  0
   -8.6350    2.1030    2.8980 H   0  0  0  0  0  0  0  0  0  0  0  0
   -9.4260    3.6020    2.3730 H   0  0  0  0  0  0  0  0  0  0  0  0
   -9.8130    2.0590    1.6140 H   0  0  0  0  0  0  0  0  0  0  0  0
   -9.4320    2.3470   -0.9070 H   0  0  0  0  0  0  0  0  0  0  0  0
   -5.5010    4.7200   -1.2790 H   0  0  0  0  0  0  0  0  0  0  0  0
   -5.4170    1.6760   -2.7440 H   0  0  0  0  0  0  0  0  0  0  0  0
  2  1  1  1
  2 86  1  0
  2  3  1  0
  2 76  1  0
  3  4  1  0
  4 73  1  0
  4  6  1  0
  4  5  1  1
  6  8  1  0
  6  7  1  1
  6  9  1  0
  8 91  1  0
  8 89  1  0
  8 90  1  0
  9 10  1  0
  9 93  1  0
  9 92  1  0
 11 10  1  1
 11 73  1  0
 11 12  1  0
 11 70  1  0
 12 13  1  0
 13 15  1  0
 13 14  1  1
 13 68  1  0
 15 16  2  0
 15 17  1  0
 17 19  1  0
 17 18  1  1
 17 66  1  0
 19 20  1  6
 19 21  1  0
 19 62  1  0
 21 95  1  0
 21 22  1  0
 21 94  1  0
 22 96  1  0
 22 23  2  0
 23 24  1  0
 23 60  1  0
 24 98  1  0
 24 97  1  0
 24 25  1  0
 25 27  1  0
 25 26  1  1
 25 28  1  0
 27 99  1  0
 28101  1  0
 28100  1  0
 28 29  1  0
 29 60  1  0
 29 31  1  0
 29 30  1  1
 31 32  1  0
 32 33  1  6
 32 42  1  0
 32 34  1  0
 34 35  1  0
 35103  1  0
 35 36  1  0
 35102  1  0
 36 39  1  0
 36 38  1  0
 36 37  1  1
 38104  1  0
 39 42  1  0
 39 40  1  6
 39 41  1  0
 41105  1  0
 42 44  1  0
 42 43  1  1
 44 45  1  0
 45 57  1  0
 45 47  1  0
 45 46  1  1
 47 48  1  0
 48 51  1  0
 48 50  1  0
 48 49  1  1
 50107  1  0
 50106  1  0
 50108  1  0
 51 53  1  0
 51 52  1  6
 51 54  1  0
 53109  1  0
 54 56  1  0
 54 55  1  1
 54 57  1  0
 56110  1  0
 57 59  1  0
 57 58  1  1
 59111  1  0
 60 61  1  6
 60 62  1  0
 61113  1  0
 61112  1  0
 61114  1  0
 62 63  1  1
 62 64  1  0
 64116  1  0
 64 65  1  0
 64115  1  0
 65 66  1  0
 65118  1  0
 65117  1  0
 66 67  1  6
 66 68  1  0
 67120  1  0
 67119  1  0
 67121  1  0
 68 70  1  0
 68 69  1  1
 70 71  1  6
 70 72  1  0
 72123  1  0
 72124  1  0
 72122  1  0
 73 75  1  0
 73 74  1  6
 75125  1  0
 76 77  1  0
 77 80  1  0
 77 78  1  1
 77 79  1  0
 79128  1  0
 79127  1  0
 79126  1  0
 80 83  1  0
 80 82  1  0
 80 81  1  1
 82129  1  0
 83 84  1  6
 83 86  1  0
 83 85  1  0
 85130  1  0
 86 88  1  0
 86 87  1  6
 88131  1  0
M  END
>  <id>  (581) 
685

>  <scaffolds>  (581) 
['C1=C2CCCCC2C2CCC3CCCC3C2C1', 'C1=CCCCC1', 'C1=CCC2CCCCC2C1', 'C1=C2CCCC(OC3CCCCO3)C2C2CCC3CC(OC4CCCCO4)CC3C2C1', 'C1=C2CCCCC2C2CCC3CC(OC4CCCCO4)CC3C2C1', 'C1CCOCC1', 'C1CCCCC1', 'C1=C2CCCC(OC3OCCCC3OC3CCCCO3)C2C2CCC3C4CC5(CCCCO5)OC4CC3C2C1', 'C1=C2CCCCC2C2CCC3C4CC5(CCCCO5)OC4CC3C2C1', 'C1=C2CCCCC2C2CCC3CC(OC4CC(OC5CCCCO5)CCO4)CC3C2C1', 'C1=C2CCCCC2CCC1', 'C1CCC(OC2CCCOC2)OC1', 'O=C1C2OC3(CCCCO3)CC2C2CCC3C(CC=C4CCCC(OC5OCCCC5OC5CCCCO5)C43)C12', 'O=C1C2OC3(CC(OC4CCCCO4)CCO3)CC2C2CCC3C(CC=C4CCCC(OC5OCCCC5OC5CCCCO5)C43)C12']

>  <name>  (581) 
Ornithosaponin B

>  <formula>  (581) 
C44H68O19

>  <SMILES>  (581) 
[H][C@@]9(O[C@H]8[C@@H](C)CO[C@@]7(O[C@@]6([H])C(=O)[C@@]5([H])[C@]4([H])CC=C3C[C@@H](O)C[C@@H](O[C@]1([H])OC[C@H](O)[C@H](O)[C@H]1O[C@]2([H])O[C@@H](C)[C@H](O)[C@@H](O)[C@H]2O)[C@]3(C)[C@@]4([H])CC[C@]5(C)[C@@]6([H])[C@@H]7C)[C@H]8O)O[C@H](C)[C@H](O)[C@@H](O)[C@H]9O

>  <ChEMBL_id>  (581) 


>  <ZINC_id>  (581) 


>  <PubChem_id>  (581) 


>  <DrugBank_id>  (581) 


>  <CAS_no>  (581) 
882661-06-5

>  <references>  (581) 
[{'journal': {'name': 'Steroids', 'id': 37}, 'title': 'Ornithosaponins A-D, four new polyoxygenated steroidal glycosides from the bulbs of Ornithogalum thyrsoides', 'year': 2006, 'start_page': 199, 'volume': 71, 'issue': None, 'doi': '10.1016/j.steroids.2005.10.001', 'isbn': '', 'despositor': {'code': 'rah', 'first_name': 'Rowan', 'last_name': 'Hatherley', 'id': 20}, 'refauthors_set': [{'author': {'first_name': 'Minpei', 'initials': 'M', 'last_name': 'Kuroda', 'id': 644}, 'first_author': True, 'id': 1376}, {'author': {'first_name': 'Kazutomo', 'initials': 'K', 'last_name': 'Ori', 'id': 793}, 'first_author': None, 'id': 1377}, {'author': {'first_name': 'Yoshihiro ', 'initials': 'Y', 'last_name': 'Mimaki', 'id': 643}, 'first_author': None, 'id': 1378}], 'id': 393}]

>  <classifications>  (581) 
[{'classification': 'Steroids and steroid derivatives (Classyfire)', 'id': 942}]

>  <molecular_mass>  (581) 
901.0

$$$$
SANC00686_minRM1.pdb
     RDKit          3D

148157  0  0  1  0  0  0  0  0999 V2000
   -6.7190    3.6180    0.6900 H   0  0  0  0  0  0  0  0  0  0  0  0
   -5.7200    3.4520    0.1940 C   0  0  2  0  0  0  0  0  0  0  0  0
   -5.3890    2.1020    0.0600 O   0  0  0  0  0  0  0  0  0  0  0  0
   -6.3170    1.3000   -0.6260 C   0  0  1  0  0  0  0  0  0  0  0  0
   -7.3060    1.8030   -0.7930 H   0  0  0  0  0  0  0  0  0  0  0  0
   -5.7080    0.9070   -1.9840 C   0  0  0  0  0  0  0  0  0  0  0  0
   -4.5230    0.1880   -1.8110 O   0  0  0  0  0  0  0  0  0  0  0  0
   -4.6960   -1.0350   -1.1280 C   0  0  1  0  0  0  0  0  0  0  0  0
   -5.4140   -1.7210   -1.6640 H   0  0  0  0  0  0  0  0  0  0  0  0
   -3.3950   -1.5420   -1.0490 O   0  0  0  0  0  0  0  0  0  0  0  0
   -2.8850   -2.0290   -2.2780 C   0  0  2  0  0  0  0  0  0  0  0  0
   -3.0930   -1.3300   -3.1320 H   0  0  0  0  0  0  0  0  0  0  0  0
   -3.5610   -3.3830   -2.5350 C   0  0  0  0  0  0  0  0  0  0  0  0
   -3.0160   -3.9730   -3.8320 C   0  0  2  0  0  0  0  0  0  0  0  0
   -3.2070   -3.2790   -4.6960 H   0  0  0  0  0  0  0  0  0  0  0  0
   -3.7020   -5.1800   -4.0150 O   0  0  0  0  0  0  0  0  0  0  0  0
   -1.5120   -4.2060   -3.6680 C   0  0  0  0  0  0  0  0  0  0  0  0
   -0.8270   -2.9270   -3.3150 C   0  0  0  0  0  0  0  0  0  0  0  0
    0.2610   -2.5750   -3.9990 C   0  0  0  0  0  0  0  0  0  0  0  0
    1.1020   -1.4010   -3.6690 C   0  0  0  0  0  0  0  0  0  0  0  0
    0.8380   -0.9220   -2.2420 C   0  0  2  0  0  0  0  0  0  0  0  0
    1.2520   -1.6780   -1.5310 H   0  0  0  0  0  0  0  0  0  0  0  0
   -0.6820   -0.7620   -2.0550 C   0  0  2  0  0  0  0  0  0  0  0  0
   -1.0640   -0.1610   -2.9220 H   0  0  0  0  0  0  0  0  0  0  0  0
   -1.0410    0.0090   -0.7820 C   0  0  0  0  0  0  0  0  0  0  0  0
   -0.2390    1.2960   -0.5770 C   0  0  0  0  0  0  0  0  0  0  0  0
    1.2490    1.0060   -0.6410 C   0  0  1  0  0  0  0  0  0  0  0  0
    1.6620    0.0490    0.4680 C   0  0  0  0  0  0  0  0  0  0  0  0
    1.5250    0.4140   -2.0330 C   0  0  1  0  0  0  0  0  0  0  0  0
    1.1650    1.1250   -2.8240 H   0  0  0  0  0  0  0  0  0  0  0  0
    3.0280    0.4660   -2.0860 C   0  0  0  0  0  0  0  0  0  0  0  0
    3.7940   -0.3390   -2.5570 O   0  0  0  0  0  0  0  0  0  0  0  0
    3.4200    1.7840   -1.4250 C   0  0  2  0  0  0  0  0  0  0  0  0
    3.7630    2.5190   -2.1940 H   0  0  0  0  0  0  0  0  0  0  0  0
    4.4450    1.5680   -0.4880 O   0  0  0  0  0  0  0  0  0  0  0  0
    4.2590    2.4700    0.5710 C   0  0  2  0  0  0  0  0  0  0  0  0
    4.8460    3.6800    0.1900 O   0  0  0  0  0  0  0  0  0  0  0  0
    6.2370    3.6550   -0.0030 C   0  0  0  0  0  0  0  0  0  0  0  0
    6.9540    3.2510    1.2890 C   0  0  2  0  0  0  0  0  0  0  0  0
    6.6860    3.9740    2.1020 H   0  0  0  0  0  0  0  0  0  0  0  0
    8.4600    3.2700    1.0850 C   0  0  0  0  0  0  0  0  0  0  0  0
    6.4670    1.8550    1.7120 C   0  0  2  0  0  0  0  0  0  0  0  0
    6.9250    1.5760    2.6970 H   0  0  0  0  0  0  0  0  0  0  0  0
    6.7950    0.9680    0.6750 O   0  0  0  0  0  0  0  0  0  0  0  0
    7.2680   -0.2870    1.0630 C   0  0  2  0  0  0  0  0  0  0  0  0
    6.6660   -0.7730    1.8810 H   0  0  0  0  0  0  0  0  0  0  0  0
    8.5920   -0.0240    1.4700 O   0  0  0  0  0  0  0  0  0  0  0  0
    9.3080   -1.1870    1.8000 C   0  0  2  0  0  0  0  0  0  0  0  0
    8.7810   -1.7760    2.6020 H   0  0  0  0  0  0  0  0  0  0  0  0
   10.6550   -0.7070    2.3280 C   0  0  0  0  0  0  0  0  0  0  0  0
    9.4610   -2.0790    0.5500 C   0  0  2  0  0  0  0  0  0  0  0  0
   10.0260   -3.0110    0.8100 H   0  0  0  0  0  0  0  0  0  0  0  0
   10.1560   -1.4960   -0.5060 O   0  0  0  0  0  0  0  0  0  0  0  0
    8.0530   -2.4390    0.0080 C   0  0  1  0  0  0  0  0  0  0  0  0
    8.1460   -3.0110   -0.9540 H   0  0  0  0  0  0  0  0  0  0  0  0
    7.4600   -3.2050    1.0130 O   0  0  0  0  0  0  0  0  0  0  0  0
    7.2590   -1.1360   -0.2390 C   0  0  1  0  0  0  0  0  0  0  0  0
    7.7240   -0.5630   -1.0870 H   0  0  0  0  0  0  0  0  0  0  0  0
    5.9570   -1.5480   -0.5100 O   0  0  0  0  0  0  0  0  0  0  0  0
    4.9230    1.9090    1.8500 C   0  0  2  0  0  0  0  0  0  0  0  0
    4.6580    2.5990    2.7000 H   0  0  0  0  0  0  0  0  0  0  0  0
    4.3870    0.6360    2.0290 O   0  0  0  0  0  0  0  0  0  0  0  0
    2.7250    2.7120    0.7140 C   0  0  1  0  0  0  0  0  0  0  0  0
    2.3390    2.0640    1.5460 H   0  0  0  0  0  0  0  0  0  0  0  0
    2.3560    4.1490    1.0450 C   0  0  0  0  0  0  0  0  0  0  0  0
    2.1680    2.2540   -0.6390 C   0  0  2  0  0  0  0  0  0  0  0  0
    1.6570    3.0910   -1.1670 H   0  0  0  0  0  0  0  0  0  0  0  0
   -1.3440   -2.1700   -2.1180 C   0  0  1  0  0  0  0  0  0  0  0  0
   -1.0160   -3.0200   -0.8900 C   0  0  0  0  0  0  0  0  0  0  0  0
   -5.1630   -0.7560    0.3330 C   0  0  2  0  0  0  0  0  0  0  0  0
   -4.3880   -0.1800    0.9020 H   0  0  0  0  0  0  0  0  0  0  0  0
   -5.4430   -2.0220    0.8700 O   0  0  0  0  0  0  0  0  0  0  0  0
   -5.3590   -2.1300    2.2680 C   0  0  2  0  0  0  0  0  0  0  0  0
   -5.7660   -1.2570    2.8440 H   0  0  0  0  0  0  0  0  0  0  0  0
   -4.0220   -2.1370    2.6380 O   0  0  0  0  0  0  0  0  0  0  0  0
   -3.2410   -3.1990    2.1410 C   0  0  1  0  0  0  0  0  0  0  0  0
   -3.1890   -3.1610    1.0190 H   0  0  0  0  0  0  0  0  0  0  0  0
   -1.8570   -2.9770    2.7530 C   0  0  0  0  0  0  0  0  0  0  0  0
   -3.8350   -4.5510    2.6050 C   0  0  2  0  0  0  0  0  0  0  0  0
   -3.8130   -4.6330    3.7240 H   0  0  0  0  0  0  0  0  0  0  0  0
   -3.0840   -5.5320    1.9620 O   0  0  0  0  0  0  0  0  0  0  0  0
   -5.2900   -4.6590    2.0930 C   0  0  1  0  0  0  0  0  0  0  0  0
   -5.3150   -4.6650    0.9700 H   0  0  0  0  0  0  0  0  0  0  0  0
   -5.7570   -5.8610    2.6200 O   0  0  0  0  0  0  0  0  0  0  0  0
   -6.1050   -3.4520    2.6090 C   0  0  1  0  0  0  0  0  0  0  0  0
   -7.1260   -3.4370    2.1390 H   0  0  0  0  0  0  0  0  0  0  0  0
   -6.1900   -3.6180    3.9890 O   0  0  0  0  0  0  0  0  0  0  0  0
   -6.5010    0.0280    0.2370 C   0  0  1  0  0  0  0  0  0  0  0  0
   -7.2950   -0.6190   -0.2300 H   0  0  0  0  0  0  0  0  0  0  0  0
   -6.8280    0.3760    1.5490 O   0  0  0  0  0  0  0  0  0  0  0  0
   -5.7190    3.9420   -1.1270 O   0  0  0  0  0  0  0  0  0  0  0  0
   -5.8740    5.3320   -1.1930 C   0  0  0  0  0  0  0  0  0  0  0  0
   -4.6790    6.0230   -0.5050 C   0  0  1  0  0  0  0  0  0  0  0  0
   -3.7210    5.7450   -1.0210 H   0  0  0  0  0  0  0  0  0  0  0  0
   -4.8840    7.4020   -0.4690 O   0  0  0  0  0  0  0  0  0  0  0  0
   -4.6290    5.5910    0.9830 C   0  0  2  0  0  0  0  0  0  0  0  0
   -5.5370    5.9620    1.5320 H   0  0  0  0  0  0  0  0  0  0  0  0
   -3.4400    6.0440    1.5490 O   0  0  0  0  0  0  0  0  0  0  0  0
   -4.5480    4.0470    1.0340 C   0  0  1  0  0  0  0  0  0  0  0  0
   -3.5580    3.6920    0.6390 H   0  0  0  0  0  0  0  0  0  0  0  0
   -4.7670    3.7020    2.3630 O   0  0  0  0  0  0  0  0  0  0  0  0
   -6.4560    0.3540   -2.6000 H   0  0  0  0  0  0  0  0  0  0  0  0
   -5.3890    1.7940   -2.5730 H   0  0  0  0  0  0  0  0  0  0  0  0
   -3.3940   -4.0760   -1.6790 H   0  0  0  0  0  0  0  0  0  0  0  0
   -4.6660   -3.2750   -2.5900 H   0  0  0  0  0  0  0  0  0  0  0  0
   -3.3440   -5.6030   -4.8000 H   0  0  0  0  0  0  0  0  0  0  0  0
   -1.3110   -4.9690   -2.8830 H   0  0  0  0  0  0  0  0  0  0  0  0
   -1.0950   -4.6600   -4.5940 H   0  0  0  0  0  0  0  0  0  0  0  0
    0.6090   -3.1580   -4.8600 H   0  0  0  0  0  0  0  0  0  0  0  0
    2.1740   -1.6630   -3.8020 H   0  0  0  0  0  0  0  0  0  0  0  0
    0.9170   -0.6010   -4.4190 H   0  0  0  0  0  0  0  0  0  0  0  0
   -2.1120    0.3000   -0.7990 H   0  0  0  0  0  0  0  0  0  0  0  0
   -0.9480   -0.6500    0.1100 H   0  0  0  0  0  0  0  0  0  0  0  0
   -0.5310    2.0520   -1.3360 H   0  0  0  0  0  0  0  0  0  0  0  0
   -0.5050    1.7650    0.3920 H   0  0  0  0  0  0  0  0  0  0  0  0
    1.0330   -0.8460    0.5370 H   0  0  0  0  0  0  0  0  0  0  0  0
    2.7010   -0.3020    0.3540 H   0  0  0  0  0  0  0  0  0  0  0  0
    1.6040    0.5290    1.4590 H   0  0  0  0  0  0  0  0  0  0  0  0
    6.5280    3.0110   -0.8620 H   0  0  0  0  0  0  0  0  0  0  0  0
    6.4650    4.7020   -0.2970 H   0  0  0  0  0  0  0  0  0  0  0  0
    8.8240    4.2750    0.8290 H   0  0  0  0  0  0  0  0  0  0  0  0
    8.9970    2.9560    1.9910 H   0  0  0  0  0  0  0  0  0  0  0  0
    8.7880    2.5970    0.2810 H   0  0  0  0  0  0  0  0  0  0  0  0
   10.5450   -0.1800    3.2890 H   0  0  0  0  0  0  0  0  0  0  0  0
   11.3300   -1.5570    2.5000 H   0  0  0  0  0  0  0  0  0  0  0  0
   11.1730   -0.0090    1.6550 H   0  0  0  0  0  0  0  0  0  0  0  0
   10.3190   -0.5550   -0.3200 H   0  0  0  0  0  0  0  0  0  0  0  0
    6.6270   -3.5430    0.6680 H   0  0  0  0  0  0  0  0  0  0  0  0
    5.4520   -0.7640   -0.7570 H   0  0  0  0  0  0  0  0  0  0  0  0
    4.7110    0.3070    2.8750 H   0  0  0  0  0  0  0  0  0  0  0  0
    2.5950    4.8580    0.2390 H   0  0  0  0  0  0  0  0  0  0  0  0
    1.2790    4.2480    1.2440 H   0  0  0  0  0  0  0  0  0  0  0  0
    2.8850    4.5070    1.9400 H   0  0  0  0  0  0  0  0  0  0  0  0
   -1.0100   -2.4320    0.0380 H   0  0  0  0  0  0  0  0  0  0  0  0
   -1.7450   -3.8250   -0.7370 H   0  0  0  0  0  0  0  0  0  0  0  0
   -0.0480   -3.5230   -0.9640 H   0  0  0  0  0  0  0  0  0  0  0  0
   -1.8630   -3.0310    3.8510 H   0  0  0  0  0  0  0  0  0  0  0  0
   -1.1440   -3.7310    2.3860 H   0  0  0  0  0  0  0  0  0  0  0  0
   -1.4510   -1.9890    2.4870 H   0  0  0  0  0  0  0  0  0  0  0  0
   -2.9690   -6.2580    2.5950 H   0  0  0  0  0  0  0  0  0  0  0  0
   -6.7030   -5.9050    2.4700 H   0  0  0  0  0  0  0  0  0  0  0  0
   -6.6980   -2.8810    4.3490 H   0  0  0  0  0  0  0  0  0  0  0  0
   -7.6630    0.8560    1.5240 H   0  0  0  0  0  0  0  0  0  0  0  0
   -5.9150    5.5460   -2.2810 H   0  0  0  0  0  0  0  0  0  0  0  0
   -6.8450    5.6710   -0.7660 H   0  0  0  0  0  0  0  0  0  0  0  0
   -4.7250    7.7410   -1.3550 H   0  0  0  0  0  0  0  0  0  0  0  0
   -3.5260    6.9910    1.6910 H   0  0  0  0  0  0  0  0  0  0  0  0
   -4.4550    2.7990    2.4800 H   0  0  0  0  0  0  0  0  0  0  0  0
  2  1  1  1
  2 91  1  0
  2  3  1  0
  2 99  1  0
  3  4  1  0
  4  6  1  0
  4  5  1  6
  4 88  1  0
  6102  1  0
  6103  1  0
  6  7  1  0
  7  8  1  0
  8  9  1  6
  8 10  1  0
  8 70  1  0
 10 11  1  0
 11 12  1  6
 11 13  1  0
 11 68  1  0
 13 14  1  0
 13105  1  0
 13104  1  0
 14 15  1  6
 14 16  1  0
 14 17  1  0
 16106  1  0
 17108  1  0
 17 18  1  0
 17107  1  0
 18 19  2  0
 18 68  1  0
 19109  1  0
 19 20  1  0
 20111  1  0
 20110  1  0
 20 21  1  0
 21 23  1  0
 21 29  1  0
 21 22  1  1
 23 24  1  6
 23 68  1  0
 23 25  1  0
 25112  1  0
 25 26  1  0
 25113  1  0
 26114  1  0
 26 27  1  0
 26115  1  0
 27 29  1  0
 27 66  1  0
 27 28  1  1
 28117  1  0
 28116  1  0
 28118  1  0
 29 30  1  6
 29 31  1  0
 31 32  2  0
 31 33  1  0
 33 34  1  6
 33 66  1  0
 33 35  1  0
 36 35  1  6
 36 37  1  0
 36 63  1  0
 36 60  1  0
 37 38  1  0
 38119  1  0
 38120  1  0
 38 39  1  0
 39 41  1  0
 39 42  1  0
 39 40  1  1
 41123  1  0
 41121  1  0
 41122  1  0
 42 44  1  0
 42 60  1  0
 42 43  1  1
 44 45  1  0
 45 57  1  0
 45 47  1  0
 45 46  1  1
 47 48  1  0
 48 51  1  0
 48 50  1  0
 48 49  1  1
 50126  1  0
 50125  1  0
 50124  1  0
 51 53  1  0
 51 54  1  0
 51 52  1  1
 53127  1  0
 54 55  1  6
 54 57  1  0
 54 56  1  0
 56128  1  0
 57 58  1  6
 57 59  1  0
 59129  1  0
 60 62  1  0
 60 61  1  1
 62130  1  0
 63 66  1  0
 63 65  1  0
 63 64  1  1
 65131  1  0
 65132  1  0
 65133  1  0
 66 67  1  6
 68 69  1  1
 69136  1  0
 69135  1  0
 69134  1  0
 70 88  1  0
 70 72  1  0
 70 71  1  1
 72 73  1  0
 73 85  1  0
 73 75  1  0
 73 74  1  1
 75 76  1  0
 76 77  1  6
 76 79  1  0
 76 78  1  0
 78138  1  0
 78139  1  0
 78137  1  0
 79 81  1  0
 79 82  1  0
 79 80  1  1
 81140  1  0
 82 83  1  6
 82 85  1  0
 82 84  1  0
 84141  1  0
 85 86  1  6
 85 87  1  0
 87142  1  0
 88 89  1  6
 88 90  1  0
 90143  1  0
 91 92  1  0
 92144  1  0
 92145  1  0
 92 93  1  0
 93 94  1  6
 93 95  1  0
 93 96  1  0
 95146  1  0
 96 99  1  0
 96 97  1  1
 96 98  1  0
 98147  1  0
 99100  1  6
 99101  1  0
101148  1  0
M  END
>  <id>  (582) 
686

>  <scaffolds>  (582) 
['C1=C2CCCCC2C2CCC3CCCC3C2C1', 'C1=CCCCC1', 'C1=CCC2CCCCC2C1', 'C1=C2CCCC(OC3CCCCO3)C2C2CCC3CC(OC4CCCCO4)CC3C2C1', 'C1=C2CCCCC2C2CCC3CC(OC4CCCCO4)CC3C2C1', 'C1CCOCC1', 'C1CCCCC1', 'C1=C2CCCC(OC3OCCCC3OC3CCCCO3)C2C2CCC3C4CC5(CCCCO5)OC4CC3C2C1', 'C1=C2CCCCC2C2CCC3C4CC5(CCCCO5)OC4CC3C2C1', 'O=C1C2OC3(CC(OC4CCCCO4)CCO3)CC2C2CCC3C(CC=C4CCCC(OC5OCC(OC6CCCCO6)CC5OC5CCCCO5)C43)C12', 'C1=C2CCCCC2C2CCC3CC(OC4CC(OC5CCCCO5)CCO4)CC3C2C1', 'C1=C2CCCCC2CCC1', 'C1CCC(OC2CCCOC2)OC1', 'O=C1C2OC3(CCCCO3)CC2C2CCC3C(CC=C4CCCC(OC5OCCCC5OC5CCCCO5)C43)C12', 'O=C1C2OC3(CC(OC4CCCCO4)CCO3)CC2C2CCC3C(CC=C4CCCC(OC5OCCCC5OC5CCCCO5)C43)C12']

>  <name>  (582) 
Ornithosaponin C

>  <formula>  (582) 
C49H76O23

>  <SMILES>  (582) 
[H][C@@]%10(O[C@H]9CO[C@@]([H])(O[C@@H]7C[C@H](O)CC6=CC[C@]1([H])[C@]([H])(CC[C@@]5(C)[C@@]1([H])C(=O)[C@]4([H])O[C@@]3(OC[C@H](C)[C@H](O[C@]2([H])O[C@H](C)[C@H](O)[C@@H](O)[C@H]2O)[C@@H]3O)[C@@H](C)[C@@]45[H])[C@]67C)[C@H](O[C@]8([H])O[C@@H](C)[C@H](O)[C@@H](O)[C@H]8O)[C@H]9O)OC[C@@H](O)[C@H](O)[C@H]%10O

>  <ChEMBL_id>  (582) 


>  <ZINC_id>  (582) 


>  <PubChem_id>  (582) 


>  <DrugBank_id>  (582) 


>  <CAS_no>  (582) 
882661-08-7

>  <references>  (582) 
[{'journal': {'name': 'Steroids', 'id': 37}, 'title': 'Ornithosaponins A-D, four new polyoxygenated steroidal glycosides from the bulbs of Ornithogalum thyrsoides', 'year': 2006, 'start_page': 199, 'volume': 71, 'issue': None, 'doi': '10.1016/j.steroids.2005.10.001', 'isbn': '', 'despositor': {'code': 'rah', 'first_name': 'Rowan', 'last_name': 'Hatherley', 'id': 20}, 'refauthors_set': [{'author': {'first_name': 'Minpei', 'initials': 'M', 'last_name': 'Kuroda', 'id': 644}, 'first_author': True, 'id': 1376}, {'author': {'first_name': 'Kazutomo', 'initials': 'K', 'last_name': 'Ori', 'id': 793}, 'first_author': None, 'id': 1377}, {'author': {'first_name': 'Yoshihiro ', 'initials': 'Y', 'last_name': 'Mimaki', 'id': 643}, 'first_author': None, 'id': 1378}], 'id': 393}]

>  <classifications>  (582) 
[{'classification': 'Steroids and steroid derivatives (Classyfire)', 'id': 942}]

>  <molecular_mass>  (582) 
1033.11

$$$$
SANC00687_minRM1.pdb
     RDKit          3D

163172  0  0  1  0  0  0  0  0999 V2000
   -5.5090    5.0730    0.5280 H   0  0  0  0  0  0  0  0  0  0  0  0
   -4.4930    4.8180    0.1060 C   0  0  2  0  0  0  0  0  0  0  0  0
   -4.3430    3.4620   -0.1970 O   0  0  0  0  0  0  0  0  0  0  0  0
   -5.3030    2.9130   -1.0640 C   0  0  1  0  0  0  0  0  0  0  0  0
   -6.2020    3.5680   -1.2130 H   0  0  0  0  0  0  0  0  0  0  0  0
   -4.6250    2.6520   -2.4220 C   0  0  0  0  0  0  0  0  0  0  0  0
   -3.5710    1.7450   -2.2900 O   0  0  0  0  0  0  0  0  0  0  0  0
   -3.9780    0.4730   -1.8380 C   0  0  1  0  0  0  0  0  0  0  0  0
   -4.7320    0.0010   -2.5330 H   0  0  0  0  0  0  0  0  0  0  0  0
   -2.7820   -0.2450   -1.7480 O   0  0  0  0  0  0  0  0  0  0  0  0
   -2.2150   -0.6000   -2.9930 C   0  0  2  0  0  0  0  0  0  0  0  0
   -2.2650    0.2380   -3.7410 H   0  0  0  0  0  0  0  0  0  0  0  0
   -3.0030   -1.8100   -3.5180 C   0  0  0  0  0  0  0  0  0  0  0  0
   -2.4140   -2.2410   -4.8600 C   0  0  2  0  0  0  0  0  0  0  0  0
   -2.4860   -1.4040   -5.6100 H   0  0  0  0  0  0  0  0  0  0  0  0
   -3.1750   -3.3410   -5.2710 O   0  0  0  0  0  0  0  0  0  0  0  0
   -0.9480   -2.6360   -4.6540 C   0  0  0  0  0  0  0  0  0  0  0  0
   -0.1880   -1.5070   -4.0390 C   0  0  0  0  0  0  0  0  0  0  0  0
    0.9490   -1.1080   -4.6110 C   0  0  0  0  0  0  0  0  0  0  0  0
    1.8490   -0.0880   -4.0210 C   0  0  0  0  0  0  0  0  0  0  0  0
    1.5810    0.0440   -2.5200 C   0  0  2  0  0  0  0  0  0  0  0  0
    1.8770   -0.9130   -2.0240 H   0  0  0  0  0  0  0  0  0  0  0  0
    0.0750    0.3240   -2.3310 C   0  0  2  0  0  0  0  0  0  0  0  0
   -0.2050    1.1510   -3.0370 H   0  0  0  0  0  0  0  0  0  0  0  0
   -0.2780    0.8110   -0.9190 C   0  0  0  0  0  0  0  0  0  0  0  0
    0.6580    1.8780   -0.3540 C   0  0  0  0  0  0  0  0  0  0  0  0
    2.1000    1.4100   -0.4520 C   0  0  1  0  0  0  0  0  0  0  0  0
    2.2990    0.1270    0.3470 C   0  0  0  0  0  0  0  0  0  0  0  0
    2.3950    1.1910   -1.9500 C   0  0  1  0  0  0  0  0  0  0  0  0
    2.1520    2.1250   -2.5280 H   0  0  0  0  0  0  0  0  0  0  0  0
    3.8980    1.0800   -1.9490 C   0  0  0  0  0  0  0  0  0  0  0  0
    4.6020    0.3700   -2.6290 O   0  0  0  0  0  0  0  0  0  0  0  0
    4.3960    2.0870   -0.9150 C   0  0  2  0  0  0  0  0  0  0  0  0
    4.8830    2.9590   -1.4200 H   0  0  0  0  0  0  0  0  0  0  0  0
    5.3140    1.4680   -0.0460 O   0  0  0  0  0  0  0  0  0  0  0  0
    5.1640    2.0450    1.2260 C   0  0  2  0  0  0  0  0  0  0  0  0
    5.9510    3.2010    1.2450 O   0  0  0  0  0  0  0  0  0  0  0  0
    7.3340    3.0030    1.1010 C   0  0  0  0  0  0  0  0  0  0  0  0
    7.8760    2.1420    2.2490 C   0  0  2  0  0  0  0  0  0  0  0  0
    7.6520    2.6450    3.2260 H   0  0  0  0  0  0  0  0  0  0  0  0
    9.3800    1.9710    2.1130 C   0  0  0  0  0  0  0  0  0  0  0  0
    7.1560    0.7820    2.2370 C   0  0  2  0  0  0  0  0  0  0  0  0
    7.4790    0.1730    3.1240 H   0  0  0  0  0  0  0  0  0  0  0  0
    7.4470    0.1680    1.0070 O   0  0  0  0  0  0  0  0  0  0  0  0
    7.6640   -1.2140    1.0480 C   0  0  2  0  0  0  0  0  0  0  0  0
    6.8910   -1.7870    1.6340 H   0  0  0  0  0  0  0  0  0  0  0  0
    8.9480   -1.3240    1.6270 O   0  0  0  0  0  0  0  0  0  0  0  0
    9.4260   -2.6460    1.6600 C   0  0  2  0  0  0  0  0  0  0  0  0
    8.7270   -3.3220    2.2250 H   0  0  0  0  0  0  0  0  0  0  0  0
   10.7710   -2.5720    2.3840 C   0  0  0  0  0  0  0  0  0  0  0  0
    9.5980   -3.1750    0.2160 C   0  0  2  0  0  0  0  0  0  0  0  0
    9.9690   -4.2350    0.2440 H   0  0  0  0  0  0  0  0  0  0  0  0
   10.4820   -2.4260   -0.5620 O   0  0  0  0  0  0  0  0  0  0  0  0
    8.2350   -3.1050   -0.5230 C   0  0  1  0  0  0  0  0  0  0  0  0
    8.3590   -3.4000   -1.6000 H   0  0  0  0  0  0  0  0  0  0  0  0
    7.4050   -3.9940    0.1610 O   0  0  0  0  0  0  0  0  0  0  0  0
    7.6970   -1.6560   -0.4430 C   0  0  1  0  0  0  0  0  0  0  0  0
    8.3570   -0.9720   -1.0430 H   0  0  0  0  0  0  0  0  0  0  0  0
    6.3960   -1.7190   -0.9380 O   0  0  0  0  0  0  0  0  0  0  0  0
    5.6300    1.0470    2.3140 C   0  0  2  0  0  0  0  0  0  0  0  0
    5.3910    1.5080    3.3140 H   0  0  0  0  0  0  0  0  0  0  0  0
    4.9100   -0.1260    2.0980 O   0  0  0  0  0  0  0  0  0  0  0  0
    3.6730    2.4760    1.3760 C   0  0  1  0  0  0  0  0  0  0  0  0
    3.1350    1.7120    1.9960 H   0  0  0  0  0  0  0  0  0  0  0  0
    3.4930    3.8250    2.0550 C   0  0  0  0  0  0  0  0  0  0  0  0
    3.1560    2.4770   -0.0690 C   0  0  2  0  0  0  0  0  0  0  0  0
    2.7800    3.4870   -0.3560 H   0  0  0  0  0  0  0  0  0  0  0  0
   -0.7200   -0.9500   -2.7410 C   0  0  1  0  0  0  0  0  0  0  0  0
   -0.5990   -2.0540   -1.6910 C   0  0  0  0  0  0  0  0  0  0  0  0
   -4.5300    0.5870   -0.3860 C   0  0  2  0  0  0  0  0  0  0  0  0
   -3.7350    0.9400    0.3230 H   0  0  0  0  0  0  0  0  0  0  0  0
   -5.0130   -0.6990   -0.0980 O   0  0  0  0  0  0  0  0  0  0  0  0
   -5.1160   -1.0240    1.2620 C   0  0  2  0  0  0  0  0  0  0  0  0
   -5.4990   -0.2060    1.9310 H   0  0  0  0  0  0  0  0  0  0  0  0
   -3.8370   -1.2440    1.7640 O   0  0  0  0  0  0  0  0  0  0  0  0
   -3.1170   -2.3200    1.2090 C   0  0  1  0  0  0  0  0  0  0  0  0
   -2.9420   -2.1690    0.1090 H   0  0  0  0  0  0  0  0  0  0  0  0
   -1.7900   -2.3310    1.9630 C   0  0  0  0  0  0  0  0  0  0  0  0
   -3.9040   -3.6290    1.4590 C   0  0  2  0  0  0  0  0  0  0  0  0
   -4.0400   -3.8210    2.5570 H   0  0  0  0  0  0  0  0  0  0  0  0
   -3.2370   -4.6650    0.7690 O   0  0  0  0  0  0  0  0  0  0  0  0
   -2.4380   -5.5230    1.4570 C   0  0  0  0  0  0  0  0  0  0  0  0
   -1.8590   -6.5620    0.5470 C   0  0  0  0  0  0  0  0  0  0  0  0
   -2.2530   -5.4000    2.6520 O   0  0  0  0  0  0  0  0  0  0  0  0
   -5.2750   -3.5120    0.7520 C   0  0  1  0  0  0  0  0  0  0  0  0
   -5.1560   -3.4150   -0.3620 H   0  0  0  0  0  0  0  0  0  0  0  0
   -5.9530   -4.6940    1.1180 O   0  0  0  0  0  0  0  0  0  0  0  0
   -7.0870   -5.0220    0.4490 C   0  0  0  0  0  0  0  0  0  0  0  0
   -7.6470   -6.3180    0.9330 C   0  0  0  0  0  0  0  0  0  0  0  0
   -7.5350   -4.2990   -0.4220 O   0  0  0  0  0  0  0  0  0  0  0  0
   -6.0290   -2.2810    1.2920 C   0  0  1  0  0  0  0  0  0  0  0  0
   -6.9630   -2.0930    0.6940 H   0  0  0  0  0  0  0  0  0  0  0  0
   -6.3140   -2.5890    2.6390 O   0  0  0  0  0  0  0  0  0  0  0  0
   -7.2470   -1.8440    3.2910 C   0  0  0  0  0  0  0  0  0  0  0  0
   -7.3910   -2.2790    4.7130 C   0  0  0  0  0  0  0  0  0  0  0  0
   -7.8460   -0.9530    2.7190 O   0  0  0  0  0  0  0  0  0  0  0  0
   -5.7310    1.5690   -0.4220 C   0  0  1  0  0  0  0  0  0  0  0  0
   -6.5720    1.1240   -1.0210 H   0  0  0  0  0  0  0  0  0  0  0  0
   -6.0790    1.8000    0.9080 O   0  0  0  0  0  0  0  0  0  0  0  0
   -4.2650    5.4700   -1.1220 O   0  0  0  0  0  0  0  0  0  0  0  0
   -4.2140    6.8630   -1.0010 C   0  0  0  0  0  0  0  0  0  0  0  0
   -3.0230    7.2630   -0.1040 C   0  0  1  0  0  0  0  0  0  0  0  0
   -2.0560    6.9120   -0.5550 H   0  0  0  0  0  0  0  0  0  0  0  0
   -3.0390    8.6430    0.1150 O   0  0  0  0  0  0  0  0  0  0  0  0
   -3.2110    6.6370    1.3040 C   0  0  2  0  0  0  0  0  0  0  0  0
   -4.1190    7.0660    1.8110 H   0  0  0  0  0  0  0  0  0  0  0  0
   -2.0470    6.8230    2.0440 O   0  0  0  0  0  0  0  0  0  0  0  0
   -3.3540    5.1050    1.1340 C   0  0  1  0  0  0  0  0  0  0  0  0
   -2.3820    4.6570    0.7860 H   0  0  0  0  0  0  0  0  0  0  0  0
   -3.7610    4.6260    2.3760 O   0  0  0  0  0  0  0  0  0  0  0  0
   -5.3770    2.3210   -3.1760 H   0  0  0  0  0  0  0  0  0  0  0  0
   -4.1360    3.5640   -2.8270 H   0  0  0  0  0  0  0  0  0  0  0  0
   -2.9750   -2.6460   -2.7830 H   0  0  0  0  0  0  0  0  0  0  0  0
   -4.0830   -1.5740   -3.6270 H   0  0  0  0  0  0  0  0  0  0  0  0
   -2.8380   -3.6260   -6.1250 H   0  0  0  0  0  0  0  0  0  0  0  0
   -0.8670   -3.5410   -4.0120 H   0  0  0  0  0  0  0  0  0  0  0  0
   -0.5010   -2.9620   -5.6190 H   0  0  0  0  0  0  0  0  0  0  0  0
    1.2950   -1.5360   -5.5590 H   0  0  0  0  0  0  0  0  0  0  0  0
    2.9060   -0.3740   -4.2140 H   0  0  0  0  0  0  0  0  0  0  0  0
    1.7200    0.8780   -4.5570 H   0  0  0  0  0  0  0  0  0  0  0  0
   -1.3020    1.2420   -0.9100 H   0  0  0  0  0  0  0  0  0  0  0  0
   -0.3310   -0.0480   -0.2110 H   0  0  0  0  0  0  0  0  0  0  0  0
    0.5110    2.8440   -0.8830 H   0  0  0  0  0  0  0  0  0  0  0  0
    0.3910    2.1030    0.7010 H   0  0  0  0  0  0  0  0  0  0  0  0
    1.5100   -0.6220    0.1750 H   0  0  0  0  0  0  0  0  0  0  0  0
    3.2550   -0.3700    0.1250 H   0  0  0  0  0  0  0  0  0  0  0  0
    2.2840    0.3150    1.4340 H   0  0  0  0  0  0  0  0  0  0  0  0
    7.6000    2.5830    0.1050 H   0  0  0  0  0  0  0  0  0  0  0  0
    7.7380    4.0380    1.1310 H   0  0  0  0  0  0  0  0  0  0  0  0
    9.9050    2.9360    2.1580 H   0  0  0  0  0  0  0  0  0  0  0  0
    9.7930    1.3430    2.9170 H   0  0  0  0  0  0  0  0  0  0  0  0
    9.6680    1.4920    1.1650 H   0  0  0  0  0  0  0  0  0  0  0  0
   10.6750   -2.1200    3.3820 H   0  0  0  0  0  0  0  0  0  0  0  0
   11.2050   -3.5730    2.5180 H   0  0  0  0  0  0  0  0  0  0  0  0
   11.5080   -1.9640    1.8350 H   0  0  0  0  0  0  0  0  0  0  0  0
   11.0180   -1.8710    0.0190 H   0  0  0  0  0  0  0  0  0  0  0  0
    6.5660   -4.0390   -0.3100 H   0  0  0  0  0  0  0  0  0  0  0  0
    6.0540   -0.8180   -0.9790 H   0  0  0  0  0  0  0  0  0  0  0  0
    5.0580   -0.6960    2.8570 H   0  0  0  0  0  0  0  0  0  0  0  0
    3.9130    4.6640    1.4810 H   0  0  0  0  0  0  0  0  0  0  0  0
    2.4280    4.0530    2.2120 H   0  0  0  0  0  0  0  0  0  0  0  0
    3.9780    3.8480    3.0420 H   0  0  0  0  0  0  0  0  0  0  0  0
   -0.6660   -1.6670   -0.6590 H   0  0  0  0  0  0  0  0  0  0  0  0
   -1.3990   -2.8100   -1.7830 H   0  0  0  0  0  0  0  0  0  0  0  0
    0.3540   -2.5990   -1.7610 H   0  0  0  0  0  0  0  0  0  0  0  0
   -1.9180   -2.5020    3.0410 H   0  0  0  0  0  0  0  0  0  0  0  0
   -1.1250   -3.1190    1.5840 H   0  0  0  0  0  0  0  0  0  0  0  0
   -1.2550   -1.3760    1.8540 H   0  0  0  0  0  0  0  0  0  0  0  0
   -1.3010   -6.1000   -0.2830 H   0  0  0  0  0  0  0  0  0  0  0  0
   -1.1670   -7.2240    1.0950 H   0  0  0  0  0  0  0  0  0  0  0  0
   -2.6490   -7.1930    0.1000 H   0  0  0  0  0  0  0  0  0  0  0  0
   -7.8860   -6.2720    2.0080 H   0  0  0  0  0  0  0  0  0  0  0  0
   -8.5680   -6.5800    0.3940 H   0  0  0  0  0  0  0  0  0  0  0  0
   -6.9300   -7.1420    0.7960 H   0  0  0  0  0  0  0  0  0  0  0  0
   -6.4690   -2.0790    5.2830 H   0  0  0  0  0  0  0  0  0  0  0  0
   -8.2140   -1.7410    5.2090 H   0  0  0  0  0  0  0  0  0  0  0  0
   -7.5930   -3.3600    4.7910 H   0  0  0  0  0  0  0  0  0  0  0  0
   -6.9890    2.1090    0.9230 H   0  0  0  0  0  0  0  0  0  0  0  0
   -4.0860    7.2180   -2.0450 H   0  0  0  0  0  0  0  0  0  0  0  0
   -5.1710    7.2970   -0.6290 H   0  0  0  0  0  0  0  0  0  0  0  0
   -2.7460    9.0660   -0.6980 H   0  0  0  0  0  0  0  0  0  0  0  0
   -2.0490    7.7350    2.3530 H   0  0  0  0  0  0  0  0  0  0  0  0
   -3.6990    3.6640    2.3480 H   0  0  0  0  0  0  0  0  0  0  0  0
  2  1  1  1
  2100  1  0
  2  3  1  0
  2108  1  0
  3  4  1  0
  4  6  1  0
  4  5  1  6
  4 97  1  0
  6111  1  0
  6112  1  0
  6  7  1  0
  7  8  1  0
  8  9  1  6
  8 10  1  0
  8 70  1  0
 10 11  1  0
 11 12  1  6
 11 13  1  0
 11 68  1  0
 13 14  1  0
 13114  1  0
 13113  1  0
 14 15  1  6
 14 16  1  0
 14 17  1  0
 16115  1  0
 17117  1  0
 17 18  1  0
 17116  1  0
 18 19  2  0
 18 68  1  0
 19118  1  0
 19 20  1  0
 20120  1  0
 20119  1  0
 20 21  1  0
 21 23  1  0
 21 22  1  1
 21 29  1  0
 23 24  1  6
 23 68  1  0
 23 25  1  0
 25121  1  0
 25 26  1  0
 25122  1  0
 26123  1  0
 26 27  1  0
 26124  1  0
 27 29  1  0
 27 66  1  0
 27 28  1  1
 28126  1  0
 28125  1  0
 28127  1  0
 29 30  1  6
 29 31  1  0
 31 32  2  0
 31 33  1  0
 33 34  1  6
 33 66  1  0
 33 35  1  0
 36 35  1  6
 36 37  1  0
 36 63  1  0
 36 60  1  0
 37 38  1  0
 38128  1  0
 38129  1  0
 38 39  1  0
 39 41  1  0
 39 42  1  0
 39 40  1  1
 41132  1  0
 41130  1  0
 41131  1  0
 42 44  1  0
 42 60  1  0
 42 43  1  1
 44 45  1  0
 45 57  1  0
 45 47  1  0
 45 46  1  1
 47 48  1  0
 48 51  1  0
 48 49  1  1
 48 50  1  0
 50135  1  0
 50134  1  0
 50133  1  0
 51 53  1  0
 51 54  1  0
 51 52  1  1
 53136  1  0
 54 55  1  6
 54 57  1  0
 54 56  1  0
 56137  1  0
 57 58  1  6
 57 59  1  0
 59138  1  0
 60 62  1  0
 60 61  1  1
 62139  1  0
 63 66  1  0
 63 64  1  1
 63 65  1  0
 65140  1  0
 65141  1  0
 65142  1  0
 66 67  1  6
 68 69  1  1
 69144  1  0
 69145  1  0
 69143  1  0
 70 97  1  0
 70 72  1  0
 70 71  1  1
 72 73  1  0
 73 91  1  0
 73 75  1  0
 73 74  1  1
 75 76  1  0
 76 77  1  6
 76 79  1  0
 76 78  1  0
 78147  1  0
 78148  1  0
 78146  1  0
 79 85  1  0
 79 81  1  0
 79 80  1  1
 81 82  1  0
 82 83  1  0
 82 84  2  0
 83149  1  0
 83151  1  0
 83150  1  0
 85 86  1  6
 85 87  1  0
 85 91  1  0
 87 88  1  0
 88 90  2  0
 88 89  1  0
 89153  1  0
 89154  1  0
 89152  1  0
 91 92  1  6
 91 93  1  0
 93 94  1  0
 94 96  2  0
 94 95  1  0
 95157  1  0
 95156  1  0
 95155  1  0
 97 98  1  6
 97 99  1  0
 99158  1  0
100101  1  0
101159  1  0
101160  1  0
101102  1  0
102103  1  6
102104  1  0
102105  1  0
104161  1  0
105108  1  0
105106  1  1
105107  1  0
107162  1  0
108109  1  6
108110  1  0
110163  1  0
M  END
>  <id>  (583) 
687

>  <scaffolds>  (583) 
['C1=C2CCCCC2C2CCC3CCCC3C2C1', 'C1=CCCCC1', 'C1=CCC2CCCCC2C1', 'C1=C2CCCC(OC3CCCCO3)C2C2CCC3CC(OC4CCCCO4)CC3C2C1', 'C1=C2CCCCC2C2CCC3CC(OC4CCCCO4)CC3C2C1', 'C1CCOCC1', 'C1CCCCC1', 'C1=C2CCCC(OC3OCCCC3OC3CCCCO3)C2C2CCC3C4CC5(CCCCO5)OC4CC3C2C1', 'C1=C2CCCCC2C2CCC3C4CC5(CCCCO5)OC4CC3C2C1', 'O=C1C2OC3(CC(OC4CCCCO4)CCO3)CC2C2CCC3C(CC=C4CCCC(OC5OCC(OC6CCCCO6)CC5OC5CCCCO5)C43)C12', 'C1=C2CCCCC2C2CCC3CC(OC4CC(OC5CCCCO5)CCO4)CC3C2C1', 'C1=C2CCCCC2CCC1', 'C1CCC(OC2CCCOC2)OC1', 'O=C1C2OC3(CCCCO3)CC2C2CCC3C(CC=C4CCCC(OC5OCCCC5OC5CCCCO5)C43)C12', 'O=C1C2OC3(CC(OC4CCCCO4)CCO3)CC2C2CCC3C(CC=C4CCCC(OC5OCCCC5OC5CCCCO5)C43)C12']

>  <name>  (583) 
Ornithosaponin D

>  <formula>  (583) 
C55H82O26

>  <SMILES>  (583) 
[H][C@@]%10(O[C@H]9CO[C@@]([H])(O[C@@H]7C[C@H](O)CC6=CC[C@]1([H])[C@]([H])(CC[C@@]5(C)[C@@]1([H])C(=O)[C@]4([H])O[C@@]3(OC[C@H](C)[C@H](O[C@]2([H])O[C@H](C)[C@H](O)[C@@H](O)[C@H]2O)[C@@H]3O)[C@@H](C)[C@@]45[H])[C@]67C)[C@H](O[C@]8([H])O[C@@H](C)[C@H](OC(C)=O)[C@@H](OC(C)=O)[C@H]8OC(C)=O)[C@H]9O)OC[C@@H](O)[C@H](O)[C@H]%10O

>  <ChEMBL_id>  (583) 


>  <ZINC_id>  (583) 


>  <PubChem_id>  (583) 


>  <DrugBank_id>  (583) 


>  <CAS_no>  (583) 
882661-10-1

>  <references>  (583) 
[{'journal': {'name': 'Steroids', 'id': 37}, 'title': 'Ornithosaponins A-D, four new polyoxygenated steroidal glycosides from the bulbs of Ornithogalum thyrsoides', 'year': 2006, 'start_page': 199, 'volume': 71, 'issue': None, 'doi': '10.1016/j.steroids.2005.10.001', 'isbn': '', 'despositor': {'code': 'rah', 'first_name': 'Rowan', 'last_name': 'Hatherley', 'id': 20}, 'refauthors_set': [{'author': {'first_name': 'Minpei', 'initials': 'M', 'last_name': 'Kuroda', 'id': 644}, 'first_author': True, 'id': 1376}, {'author': {'first_name': 'Kazutomo', 'initials': 'K', 'last_name': 'Ori', 'id': 793}, 'first_author': None, 'id': 1377}, {'author': {'first_name': 'Yoshihiro ', 'initials': 'Y', 'last_name': 'Mimaki', 'id': 643}, 'first_author': None, 'id': 1378}], 'id': 393}]

>  <classifications>  (583) 
[{'classification': 'Steroids and steroid derivatives (Classyfire)', 'id': 942}]

>  <molecular_mass>  (583) 
1159.22

$$$$
SANC00688_minRM1.pdb
     RDKit          3D

 38 40  0  0  1  0  0  0  0  0999 V2000
   -5.6080    1.8520   -0.8610 C   0  0  0  0  0  0  0  0  0  0  0  0
   -5.0060    0.5840   -0.9640 O   0  0  0  0  0  0  0  0  0  0  0  0
   -3.7810    0.4200   -0.4020 C   0  0  0  0  0  0  0  0  0  0  0  0
   -3.1120    1.3890    0.3370 C   0  0  0  0  0  0  0  0  0  0  0  0
   -1.8560    1.0600    0.8630 C   0  0  0  0  0  0  0  0  0  0  0  0
   -1.2480    2.0100    1.5820 O   0  0  0  0  0  0  0  0  0  0  0  0
   -1.2700   -0.1950    0.6300 C   0  0  0  0  0  0  0  0  0  0  0  0
    0.0750   -0.4850    1.0840 C   0  0  0  0  0  0  0  0  0  0  0  0
    0.6950    0.3200    1.7760 O   0  0  0  0  0  0  0  0  0  0  0  0
    0.6550   -1.8000    0.6330 C   0  0  2  0  0  0  0  0  0  0  0  0
    1.4110   -2.1650    1.3740 H   0  0  0  0  0  0  0  0  0  0  0  0
    1.3310   -1.6050   -0.7290 C   0  0  0  0  0  0  0  0  0  0  0  0
    2.4860   -0.6720   -0.5930 C   0  0  0  0  0  0  0  0  0  0  0  0
    2.2800    0.7010   -0.6740 C   0  0  0  0  0  0  0  0  0  0  0  0
    3.3400    1.5830   -0.5180 C   0  0  0  0  0  0  0  0  0  0  0  0
    4.6150    1.0670   -0.2800 C   0  0  0  0  0  0  0  0  0  0  0  0
    5.7080    1.8550   -0.1240 O   0  0  0  0  0  0  0  0  0  0  0  0
    4.8450   -0.3120   -0.2310 C   0  0  0  0  0  0  0  0  0  0  0  0
    3.7690   -1.1720   -0.3780 C   0  0  0  0  0  0  0  0  0  0  0  0
   -0.4860   -2.8170    0.5380 C   0  0  0  0  0  0  0  0  0  0  0  0
   -1.5150   -2.3910   -0.3290 O   0  0  0  0  0  0  0  0  0  0  0  0
   -2.0080   -1.1470   -0.0890 C   0  0  0  0  0  0  0  0  0  0  0  0
   -3.2520   -0.8650   -0.6260 C   0  0  0  0  0  0  0  0  0  0  0  0
   -5.8580    2.1290    0.1760 H   0  0  0  0  0  0  0  0  0  0  0  0
   -5.0170    2.6620   -1.3200 H   0  0  0  0  0  0  0  0  0  0  0  0
   -6.5360    1.7340   -1.4430 H   0  0  0  0  0  0  0  0  0  0  0  0
   -3.5160    2.3840    0.5270 H   0  0  0  0  0  0  0  0  0  0  0  0
   -0.3540    1.7030    1.8730 H   0  0  0  0  0  0  0  0  0  0  0  0
    1.6570   -2.5900   -1.1290 H   0  0  0  0  0  0  0  0  0  0  0  0
    0.6040   -1.2340   -1.4840 H   0  0  0  0  0  0  0  0  0  0  0  0
    1.2740    1.1020   -0.8430 H   0  0  0  0  0  0  0  0  0  0  0  0
    3.1690    2.6610   -0.5790 H   0  0  0  0  0  0  0  0  0  0  0  0
    5.4070    2.7380    0.1510 H   0  0  0  0  0  0  0  0  0  0  0  0
    5.8590   -0.6960   -0.0840 H   0  0  0  0  0  0  0  0  0  0  0  0
    3.9370   -2.2500   -0.3120 H   0  0  0  0  0  0  0  0  0  0  0  0
   -0.1630   -3.7800    0.0920 H   0  0  0  0  0  0  0  0  0  0  0  0
   -0.9050   -3.0450    1.5440 H   0  0  0  0  0  0  0  0  0  0  0  0
   -3.8030   -1.6110   -1.2060 H   0  0  0  0  0  0  0  0  0  0  0  0
  1 26  1  0
  1 25  1  0
  1  2  1  0
  1 24  1  0
  2  3  1  0
  3 23  2  0
  3  4  1  0
  4 27  1  0
  4  5  2  0
  5  7  1  0
  5  6  1  0
  6 28  1  0
  7 22  2  0
  7  8  1  0
  8 10  1  0
  8  9  2  0
 10 12  1  0
 10 20  1  0
 10 11  1  1
 12 30  1  0
 12 29  1  0
 12 13  1  0
 13 14  2  0
 13 19  1  0
 14 31  1  0
 14 15  1  0
 15 32  1  0
 15 16  2  0
 16 18  1  0
 16 17  1  0
 17 33  1  0
 18 19  2  0
 18 34  1  0
 19 35  1  0
 20 21  1  0
 20 36  1  0
 20 37  1  0
 21 22  1  0
 22 23  1  0
 23 38  1  0
M  END
>  <id>  (584) 
688

>  <scaffolds>  (584) 
['c1ccccc1', 'O=C1c2ccccc2OCC1Cc1ccccc1', 'O=C(CCc1ccccc1)c1ccccc1']

>  <name>  (584) 
5-hydroxy-3-(4-hydroxybenzyl)-7-methoxy-4-chromanone

>  <formula>  (584) 
C17H16O5

>  <SMILES>  (584) 
COc3cc(O)c2C(=O)[C@H](Cc1ccc(O)cc1)COc2c3

>  <ChEMBL_id>  (584) 


>  <ZINC_id>  (584) 


>  <PubChem_id>  (584) 


>  <DrugBank_id>  (584) 


>  <CAS_no>  (584) 
120185-47-9

>  <references>  (584) 
[{'journal': {'name': 'Biochemical Systematics and Ecology', 'id': 24}, 'title': 'A novel 3-benzylchromone from the South African Lachenalia rubida (Hyacinthaceae)', 'year': 2005, 'start_page': 961, 'volume': 33, 'issue': 9, 'doi': '10.1016/j.bse.2005.01.003', 'isbn': '', 'despositor': {'code': 'rah', 'first_name': 'Rowan', 'last_name': 'Hatherley', 'id': 20}, 'refauthors_set': [{'author': {'first_name': 'Angela', 'initials': 'A', 'last_name': 'Langlois', 'id': 712}, 'first_author': True, 'id': 1379}, {'author': {'first_name': 'Dulcie', 'initials': 'DA', 'last_name': 'Mulholland', 'id': 525}, 'first_author': None, 'id': 1380}, {'author': {'first_name': 'Graham', 'initials': 'GD', 'last_name': 'Duncan', 'id': 844}, 'first_author': None, 'id': 1381}, {'author': {'first_name': 'Neil', 'initials': 'NR', 'last_name': 'Crouch', 'id': 524}, 'first_author': None, 'id': 1382}, {'author': {'first_name': 'Trevor', 'initials': 'TJ', 'last_name': 'Edwards', 'id': 627}, 'first_author': None, 'id': 1383}], 'id': 394}]

>  <classifications>  (584) 
[{'classification': 'Homoisoflavonoids (Classyfire)', 'id': 964}]

>  <molecular_mass>  (584) 
300.31

$$$$
SANC00689_minRM1.pdb
     RDKit          3D

 36 38  0  0  0  0  0  0  0  0999 V2000
   -6.1270   -0.6460   -1.3500 C   0  0  0  0  0  0  0  0  0  0  0  0
   -5.1790    0.3910   -1.2670 O   0  0  0  0  0  0  0  0  0  0  0  0
   -3.9820    0.1110   -0.6930 C   0  0  0  0  0  0  0  0  0  0  0  0
   -3.6200   -1.1350   -0.1870 C   0  0  0  0  0  0  0  0  0  0  0  0
   -2.3550   -1.2670    0.3950 C   0  0  0  0  0  0  0  0  0  0  0  0
   -2.0350   -2.4790    0.8590 O   0  0  0  0  0  0  0  0  0  0  0  0
   -1.4710   -0.1760    0.4770 C   0  0  0  0  0  0  0  0  0  0  0  0
   -0.1740   -0.3050    1.1100 C   0  0  0  0  0  0  0  0  0  0  0  0
    0.1830   -1.3820    1.5930 O   0  0  0  0  0  0  0  0  0  0  0  0
    0.6320    0.9110    1.1150 C   0  0  0  0  0  0  0  0  0  0  0  0
    1.9990    0.8690    1.7070 C   0  0  0  0  0  0  0  0  0  0  0  0
    2.9740    0.3970    0.6750 C   0  0  0  0  0  0  0  0  0  0  0  0
    3.2550   -0.9620    0.5510 C   0  0  0  0  0  0  0  0  0  0  0  0
    4.1660   -1.4070   -0.3970 C   0  0  0  0  0  0  0  0  0  0  0  0
    4.7960   -0.4680   -1.2150 C   0  0  0  0  0  0  0  0  0  0  0  0
    5.7350   -0.8340   -2.1310 O   0  0  0  0  0  0  0  0  0  0  0  0
    4.5300    0.8960   -1.1010 C   0  0  0  0  0  0  0  0  0  0  0  0
    3.6150    1.3190   -0.1470 C   0  0  0  0  0  0  0  0  0  0  0  0
    0.1460    2.0330    0.5570 C   0  0  0  0  0  0  0  0  0  0  0  0
   -1.0780    2.1480   -0.0240 O   0  0  0  0  0  0  0  0  0  0  0  0
   -1.8840    1.0470   -0.0590 C   0  0  0  0  0  0  0  0  0  0  0  0
   -3.1280    1.2280   -0.6420 C   0  0  0  0  0  0  0  0  0  0  0  0
   -5.7970   -1.4870   -1.9790 H   0  0  0  0  0  0  0  0  0  0  0  0
   -6.4430   -1.0260   -0.3640 H   0  0  0  0  0  0  0  0  0  0  0  0
   -6.9900   -0.1570   -1.8290 H   0  0  0  0  0  0  0  0  0  0  0  0
   -4.2730   -2.0080   -0.2200 H   0  0  0  0  0  0  0  0  0  0  0  0
   -1.1550   -2.4600    1.3060 H   0  0  0  0  0  0  0  0  0  0  0  0
    2.2920    1.8640    2.1080 H   0  0  0  0  0  0  0  0  0  0  0  0
    2.0090    0.2080    2.6030 H   0  0  0  0  0  0  0  0  0  0  0  0
    2.7590   -1.6870    1.2070 H   0  0  0  0  0  0  0  0  0  0  0  0
    4.3770   -2.4740   -0.5020 H   0  0  0  0  0  0  0  0  0  0  0  0
    5.3620   -1.5840   -2.6260 H   0  0  0  0  0  0  0  0  0  0  0  0
    5.0340    1.6130   -1.7560 H   0  0  0  0  0  0  0  0  0  0  0  0
    3.4080    2.3880   -0.0430 H   0  0  0  0  0  0  0  0  0  0  0  0
    0.6530    3.0010    0.4740 H   0  0  0  0  0  0  0  0  0  0  0  0
   -3.4430    2.2000   -1.0340 H   0  0  0  0  0  0  0  0  0  0  0  0
  1 23  1  0
  1 25  1  0
  1  2  1  0
  1 24  1  0
  2  3  1  0
  3 22  2  0
  3  4  1  0
  4 26  1  0
  4  5  2  0
  5  7  1  0
  5  6  1  0
  6 27  1  0
  7 21  2  0
  7  8  1  0
  8 10  1  0
  8  9  2  0
 10 19  2  0
 10 11  1  0
 11 12  1  0
 11 28  1  0
 11 29  1  0
 12 18  2  0
 12 13  1  0
 13 14  2  0
 13 30  1  0
 14 15  1  0
 14 31  1  0
 15 16  1  0
 15 17  2  0
 16 32  1  0
 17 33  1  0
 17 18  1  0
 18 34  1  0
 19 20  1  0
 19 35  1  0
 20 21  1  0
 21 22  1  0
 22 36  1  0
M  END
>  <id>  (585) 
689

>  <scaffolds>  (585) 
['c1ccccc1', 'O=c1c(Cc2ccccc2)coc2ccccc12', 'O=c1ccoc2ccccc12']

>  <name>  (585) 
5-hydroxy-3-4-hydroxybenzyl)-7-methoxy-4-chromone

>  <formula>  (585) 
C17H14O5

>  <SMILES>  (585) 
COc3cc(O)c2c(=O)c(Cc1ccc(O)cc1)coc2c3

>  <ChEMBL_id>  (585) 


>  <ZINC_id>  (585) 


>  <PubChem_id>  (585) 


>  <DrugBank_id>  (585) 


>  <CAS_no>  (585) 
866408-73-3

>  <references>  (585) 
[{'journal': {'name': 'Biochemical Systematics and Ecology', 'id': 24}, 'title': 'A novel 3-benzylchromone from the South African Lachenalia rubida (Hyacinthaceae)', 'year': 2005, 'start_page': 961, 'volume': 33, 'issue': 9, 'doi': '10.1016/j.bse.2005.01.003', 'isbn': '', 'despositor': {'code': 'rah', 'first_name': 'Rowan', 'last_name': 'Hatherley', 'id': 20}, 'refauthors_set': [{'author': {'first_name': 'Angela', 'initials': 'A', 'last_name': 'Langlois', 'id': 712}, 'first_author': True, 'id': 1379}, {'author': {'first_name': 'Dulcie', 'initials': 'DA', 'last_name': 'Mulholland', 'id': 525}, 'first_author': None, 'id': 1380}, {'author': {'first_name': 'Graham', 'initials': 'GD', 'last_name': 'Duncan', 'id': 844}, 'first_author': None, 'id': 1381}, {'author': {'first_name': 'Neil', 'initials': 'NR', 'last_name': 'Crouch', 'id': 524}, 'first_author': None, 'id': 1382}, {'author': {'first_name': 'Trevor', 'initials': 'TJ', 'last_name': 'Edwards', 'id': 627}, 'first_author': None, 'id': 1383}], 'id': 394}]

>  <classifications>  (585) 
[{'classification': 'Homoisoflavonoids (Classyfire)', 'id': 964}]

>  <molecular_mass>  (585) 
298.29

$$$$
SANC00690_minRM1.pdb
     RDKit          3D

 53 56  0  0  1  0  0  0  0  0999 V2000
    1.2120   -0.6320   -1.5090 H   0  0  0  0  0  0  0  0  0  0  0  0
    1.3020   -0.6420   -0.3870 C   0  0  1  0  0  0  0  0  0  0  0  0
    0.6300   -1.9160    0.1230 C   0  0  0  0  0  0  0  0  0  0  0  0
   -0.7630   -2.0370   -0.4770 C   0  0  0  0  0  0  0  0  0  0  0  0
   -1.6160   -0.8180   -0.1710 C   0  0  1  0  0  0  0  0  0  0  0  0
   -2.1740   -0.7960    1.2330 C   0  0  0  0  0  0  0  0  0  0  0  0
   -3.3890   -0.2390    1.2370 C   0  0  0  0  0  0  0  0  0  0  0  0
   -3.7740    0.1540   -0.1690 C   0  0  1  0  0  0  0  0  0  0  0  0
   -5.2600    0.0420   -0.4360 C   0  0  0  0  0  0  0  0  0  0  0  0
   -3.2420    1.5600   -0.4540 C   0  0  0  0  0  0  0  0  0  0  0  0
   -1.7700    1.6970   -0.0600 C   0  0  0  0  0  0  0  0  0  0  0  0
   -0.9000    0.5060   -0.4870 C   0  0  1  0  0  0  0  0  0  0  0  0
   -0.7840    0.5580   -1.6030 H   0  0  0  0  0  0  0  0  0  0  0  0
    0.5210    0.5790    0.1360 C   0  0  1  0  0  0  0  0  0  0  0  0
    0.4390    0.6130    1.6570 C   0  0  0  0  0  0  0  0  0  0  0  0
    1.2040    1.8650   -0.3510 C   0  0  0  0  0  0  0  0  0  0  0  0
    2.6860    1.8990   -0.0110 C   0  0  0  0  0  0  0  0  0  0  0  0
    3.3960    0.6900   -0.6280 C   0  0  1  0  0  0  0  0  0  0  0  0
    3.2700    0.7280   -1.7480 H   0  0  0  0  0  0  0  0  0  0  0  0
    4.7560    0.7000   -0.2960 O   0  0  0  0  0  0  0  0  0  0  0  0
    2.8170   -0.6420   -0.0940 C   0  0  1  0  0  0  0  0  0  0  0  0
    3.1630   -0.8530    1.3750 C   0  0  0  0  0  0  0  0  0  0  0  0
    3.4620   -1.7890   -0.8870 C   0  0  0  0  0  0  0  0  0  0  0  0
   -2.9270   -0.8280   -1.0010 C   0  0  0  0  0  0  0  0  0  0  0  0
    1.2350   -2.8140   -0.1320 H   0  0  0  0  0  0  0  0  0  0  0  0
    0.5700   -1.9270    1.2340 H   0  0  0  0  0  0  0  0  0  0  0  0
   -0.6990   -2.1870   -1.5760 H   0  0  0  0  0  0  0  0  0  0  0  0
   -1.2640   -2.9560   -0.1030 H   0  0  0  0  0  0  0  0  0  0  0  0
   -1.6290   -1.1980    2.0810 H   0  0  0  0  0  0  0  0  0  0  0  0
   -4.0450   -0.0640    2.0810 H   0  0  0  0  0  0  0  0  0  0  0  0
   -5.8440    0.7380    0.1830 H   0  0  0  0  0  0  0  0  0  0  0  0
   -5.5060    0.2600   -1.4850 H   0  0  0  0  0  0  0  0  0  0  0  0
   -5.6410   -0.9660   -0.2210 H   0  0  0  0  0  0  0  0  0  0  0  0
   -3.3840    1.8070   -1.5270 H   0  0  0  0  0  0  0  0  0  0  0  0
   -3.8450    2.3200    0.0860 H   0  0  0  0  0  0  0  0  0  0  0  0
   -1.3750    2.6380   -0.5000 H   0  0  0  0  0  0  0  0  0  0  0  0
   -1.6920    1.8550    1.0400 H   0  0  0  0  0  0  0  0  0  0  0  0
    0.2220   -0.3740    2.0970 H   0  0  0  0  0  0  0  0  0  0  0  0
    1.3790    0.9440    2.1290 H   0  0  0  0  0  0  0  0  0  0  0  0
   -0.3440    1.3000    2.0190 H   0  0  0  0  0  0  0  0  0  0  0  0
    1.0720    1.9900   -1.4480 H   0  0  0  0  0  0  0  0  0  0  0  0
    0.7130    2.7580    0.0910 H   0  0  0  0  0  0  0  0  0  0  0  0
    3.1360    2.8450   -0.3870 H   0  0  0  0  0  0  0  0  0  0  0  0
    2.8560    1.9500    1.0850 H   0  0  0  0  0  0  0  0  0  0  0  0
    5.1410    1.4910   -0.6840 H   0  0  0  0  0  0  0  0  0  0  0  0
    2.7880   -0.0580    2.0350 H   0  0  0  0  0  0  0  0  0  0  0  0
    2.7710   -1.8020    1.7680 H   0  0  0  0  0  0  0  0  0  0  0  0
    4.2500   -0.8910    1.5440 H   0  0  0  0  0  0  0  0  0  0  0  0
    4.5480   -1.8490   -0.7210 H   0  0  0  0  0  0  0  0  0  0  0  0
    3.0430   -2.7670   -0.6040 H   0  0  0  0  0  0  0  0  0  0  0  0
    3.3220   -1.6940   -1.9730 H   0  0  0  0  0  0  0  0  0  0  0  0
   -2.8020   -0.5350   -2.0570 H   0  0  0  0  0  0  0  0  0  0  0  0
   -3.3810   -1.8370   -1.0420 H   0  0  0  0  0  0  0  0  0  0  0  0
  2  1  1  6
  2 21  1  0
  2  3  1  0
  2 14  1  0
  3  4  1  0
  3 25  1  0
  3 26  1  0
  4 27  1  0
  4  5  1  0
  4 28  1  0
  5 24  1  0
  5 12  1  0
  5  6  1  1
  6  7  2  0
  6 29  1  0
  7  8  1  0
  7 30  1  0
  8 24  1  0
  8 10  1  0
  8  9  1  1
  9 32  1  0
  9 33  1  0
  9 31  1  0
 10 34  1  0
 10 11  1  0
 10 35  1  0
 11 36  1  0
 11 12  1  0
 11 37  1  0
 12 13  1  6
 12 14  1  0
 14 16  1  0
 14 15  1  1
 15 40  1  0
 15 38  1  0
 15 39  1  0
 16 41  1  0
 16 17  1  0
 16 42  1  0
 17 18  1  0
 17 43  1  0
 17 44  1  0
 18 19  1  6
 18 20  1  0
 18 21  1  0
 20 45  1  0
 21 23  1  6
 21 22  1  0
 22 48  1  0
 22 47  1  0
 22 46  1  0
 23 51  1  0
 23 49  1  0
 23 50  1  0
 24 52  1  0
 24 53  1  0
M  END
>  <id>  (586) 
690

>  <scaffolds>  (586) 
['C1CCCCC1', 'C1=CC23CCC4CCCCC4C2CCC1C3', 'C1CCC2CCCCC2C1']

>  <name>  (586) 
Stachenol

>  <formula>  (586) 
C20H32O

>  <SMILES>  (586) 
[H][C@]23CC[C@@]14C=C[C@@](C)(CC[C@@]1([H])[C@]2(C)CC[C@@H](O)C3(C)C)C4

>  <ChEMBL_id>  (586) 


>  <ZINC_id>  (586) 


>  <PubChem_id>  (586) 


>  <DrugBank_id>  (586) 


>  <CAS_no>  (586) 
28958-14-7

>  <references>  (586) 
[{'journal': {'name': 'Phytochemistry', 'id': 10}, 'title': 'Diosphenols from Spirostachys africana', 'year': 1997, 'start_page': 1217, 'volume': 45, 'issue': 6, 'doi': '10.1016/S0031-9422(97)00113-1', 'isbn': '', 'despositor': {'code': 'rah', 'first_name': 'Rowan', 'last_name': 'Hatherley', 'id': 20}, 'refauthors_set': [{'author': {'first_name': 'Namboole', 'initials': 'NM', 'last_name': 'Munkombwe', 'id': 837}, 'first_author': True, 'id': 1386}, {'author': {'first_name': 'Titus', 'initials': 'T', 'last_name': 'Maswabi', 'id': 845}, 'first_author': None, 'id': 1387}, {'author': {'first_name': 'Neil', 'initials': 'NA', 'last_name': 'Hughes', 'id': 836}, 'first_author': None, 'id': 1388}], 'id': 396}]

>  <classifications>  (586) 
[{'classification': 'Phenol lipids (Classyfire)', 'id': 951}]

>  <molecular_mass>  (586) 
288.47

$$$$
SANC00691_minRM1.pdb
     RDKit          3D

 45 48  0  0  1  0  0  0  0  0999 V2000
    0.3140   -0.4830   -1.2540 H   0  0  0  0  0  0  0  0  0  0  0  0
    0.6750   -0.4000   -0.1940 C   0  0  2  0  0  0  0  0  0  0  0  0
    1.4830   -1.6620    0.1420 C   0  0  0  0  0  0  0  0  0  0  0  0
    2.8540   -1.7100   -0.5370 C   0  0  0  0  0  0  0  0  0  0  0  0
    3.5730   -0.3620   -0.4540 C   0  0  2  0  0  0  0  0  0  0  0  0
    4.9780   -0.4310   -1.0110 C   0  0  0  0  0  0  0  0  0  0  0  0
    3.5190    0.1310    0.9720 C   0  0  0  0  0  0  0  0  0  0  0  0
    2.3900    0.8200    1.1700 C   0  0  0  0  0  0  0  0  0  0  0  0
    1.5710    0.8460   -0.0990 C   0  0  2  0  0  0  0  0  0  0  0  0
    0.7950    2.1340   -0.3040 C   0  0  0  0  0  0  0  0  0  0  0  0
   -0.4260    2.1960    0.6050 C   0  0  0  0  0  0  0  0  0  0  0  0
   -1.2750    0.9980    0.3330 C   0  0  0  0  0  0  0  0  0  0  0  0
   -2.4970    1.0790   -0.2130 C   0  0  0  0  0  0  0  0  0  0  0  0
   -3.1270    2.3790   -0.5720 C   0  0  0  0  0  0  0  0  0  0  0  0
   -3.2820   -0.1290   -0.4930 C   0  0  0  0  0  0  0  0  0  0  0  0
   -4.3900   -0.1160   -1.0080 O   0  0  0  0  0  0  0  0  0  0  0  0
   -2.6620   -1.4170   -0.1110 C   0  0  0  0  0  0  0  0  0  0  0  0
   -3.3410   -2.5800   -0.2910 O   0  0  0  0  0  0  0  0  0  0  0  0
   -1.4400   -1.5000    0.4280 C   0  0  0  0  0  0  0  0  0  0  0  0
   -0.5950   -0.2940    0.6880 C   0  0  1  0  0  0  0  0  0  0  0  0
   -0.2950   -0.3070    2.1920 C   0  0  0  0  0  0  0  0  0  0  0  0
    2.6820    0.6740   -1.1660 C   0  0  0  0  0  0  0  0  0  0  0  0
    1.6040   -1.7530    1.2450 H   0  0  0  0  0  0  0  0  0  0  0  0
    0.9140   -2.5720   -0.1470 H   0  0  0  0  0  0  0  0  0  0  0  0
    3.4710   -2.5090   -0.0740 H   0  0  0  0  0  0  0  0  0  0  0  0
    2.7530   -2.0200   -1.5990 H   0  0  0  0  0  0  0  0  0  0  0  0
    4.9850   -0.7190   -2.0720 H   0  0  0  0  0  0  0  0  0  0  0  0
    5.4970    0.5350   -0.9390 H   0  0  0  0  0  0  0  0  0  0  0  0
    5.6000   -1.1630   -0.4750 H   0  0  0  0  0  0  0  0  0  0  0  0
    4.3090   -0.0810    1.6830 H   0  0  0  0  0  0  0  0  0  0  0  0
    2.0810    1.3220    2.0790 H   0  0  0  0  0  0  0  0  0  0  0  0
    1.4510    3.0120   -0.1250 H   0  0  0  0  0  0  0  0  0  0  0  0
    0.4830    2.2280   -1.3670 H   0  0  0  0  0  0  0  0  0  0  0  0
   -0.1300    2.2120    1.6800 H   0  0  0  0  0  0  0  0  0  0  0  0
   -0.9530    3.1620    0.4740 H   0  0  0  0  0  0  0  0  0  0  0  0
   -2.5010    2.9590   -1.2680 H   0  0  0  0  0  0  0  0  0  0  0  0
   -4.1050    2.2820   -1.0660 H   0  0  0  0  0  0  0  0  0  0  0  0
   -3.3050    3.0020    0.3190 H   0  0  0  0  0  0  0  0  0  0  0  0
   -4.1940   -2.3910   -0.7020 H   0  0  0  0  0  0  0  0  0  0  0  0
   -1.0260   -2.4700    0.7250 H   0  0  0  0  0  0  0  0  0  0  0  0
    0.4730   -1.0540    2.4490 H   0  0  0  0  0  0  0  0  0  0  0  0
    0.0610    0.6620    2.5730 H   0  0  0  0  0  0  0  0  0  0  0  0
   -1.1910   -0.5510    2.7830 H   0  0  0  0  0  0  0  0  0  0  0  0
    3.2200    1.6220   -1.3590 H   0  0  0  0  0  0  0  0  0  0  0  0
    2.3190    0.3520   -2.1580 H   0  0  0  0  0  0  0  0  0  0  0  0
  2  1  1  6
  2  9  1  0
  2  3  1  0
  2 20  1  0
  3  4  1  0
  3 24  1  0
  3 23  1  0
  4 26  1  0
  4  5  1  0
  4 25  1  0
  5 22  1  0
  5  6  1  6
  5  7  1  0
  6 27  1  0
  6 28  1  0
  6 29  1  0
  7  8  2  0
  7 30  1  0
  8 31  1  0
  9  8  1  1
  9 22  1  0
  9 10  1  0
 10 33  1  0
 10 32  1  0
 10 11  1  0
 11 12  1  0
 11 35  1  0
 11 34  1  0
 12 13  2  0
 12 20  1  0
 13 14  1  0
 13 15  1  0
 14 36  1  0
 14 37  1  0
 14 38  1  0
 15 16  2  0
 15 17  1  0
 17 18  1  0
 17 19  2  0
 18 39  1  0
 19 20  1  0
 19 40  1  0
 20 21  1  1
 21 41  1  0
 21 42  1  0
 21 43  1  0
 22 45  1  0
 22 44  1  0
M  END
>  <id>  (587) 
691

>  <scaffolds>  (587) 
['C=C1CCC2CCCCC2C1', 'C1CCCCC1', 'C1CCC2CCCCC2C1']

>  <name>  (587) 
ent-2-hydroxy-norbeyer-1,4,15-trien-3-one

>  <formula>  (587) 
C19H24O2

>  <SMILES>  (587) 
[H][C@@]13CC[C@]4(C)C=C[C@@]1(CCC2=C(C)C(=O)C(O)=C[C@]23C)C4

>  <ChEMBL_id>  (587) 


>  <ZINC_id>  (587) 


>  <PubChem_id>  (587) 


>  <DrugBank_id>  (587) 


>  <CAS_no>  (587) 
193969-13-0

>  <references>  (587) 
[{'journal': {'name': 'Phytochemistry', 'id': 10}, 'title': 'Diosphenols from Spirostachys africana', 'year': 1997, 'start_page': 1217, 'volume': 45, 'issue': 6, 'doi': '10.1016/S0031-9422(97)00113-1', 'isbn': '', 'despositor': {'code': 'rah', 'first_name': 'Rowan', 'last_name': 'Hatherley', 'id': 20}, 'refauthors_set': [{'author': {'first_name': 'Namboole', 'initials': 'NM', 'last_name': 'Munkombwe', 'id': 837}, 'first_author': True, 'id': 1386}, {'author': {'first_name': 'Titus', 'initials': 'T', 'last_name': 'Maswabi', 'id': 845}, 'first_author': None, 'id': 1387}, {'author': {'first_name': 'Neil', 'initials': 'NA', 'last_name': 'Hughes', 'id': 836}, 'first_author': None, 'id': 1388}], 'id': 396}]

>  <classifications>  (587) 
[{'classification': 'Organooxygen compounds (Classyfire)', 'id': 954}]

>  <molecular_mass>  (587) 
284.39

$$$$
SANC00692_minRM1.pdb
     RDKit          3D

156163  0  0  1  0  0  0  0  0999 V2000
   -9.5820   -2.4700   -0.0120 H   0  0  0  0  0  0  0  0  0  0  0  0
   -9.3300   -2.3710   -1.1080 C   0  0  2  0  0  0  0  0  0  0  0  0
   -8.1850   -1.5990   -1.3350 O   0  0  0  0  0  0  0  0  0  0  0  0
   -6.9970   -2.0790   -0.7610 C   0  0  1  0  0  0  0  0  0  0  0  0
   -7.1590   -2.8740    0.0160 H   0  0  0  0  0  0  0  0  0  0  0  0
   -6.1060   -2.6500   -1.8910 C   0  0  1  0  0  0  0  0  0  0  0  0
   -6.5660   -3.5810   -2.3200 H   0  0  0  0  0  0  0  0  0  0  0  0
   -6.0160   -1.6410   -2.8480 O   0  0  0  0  0  0  0  0  0  0  0  0
   -4.7230   -2.9790   -1.2880 C   0  0  0  0  0  0  0  0  0  0  0  0
   -4.1400   -1.8490   -0.7060 O   0  0  0  0  0  0  0  0  0  0  0  0
   -4.8910   -1.3140    0.3590 C   0  0  1  0  0  0  0  0  0  0  0  0
   -4.9760   -2.0520    1.2100 H   0  0  0  0  0  0  0  0  0  0  0  0
   -4.2120   -0.1430    0.7060 O   0  0  0  0  0  0  0  0  0  0  0  0
   -2.9330   -0.3330    1.2470 C   0  0  1  0  0  0  0  0  0  0  0  0
   -2.8090   -1.3690    1.6720 H   0  0  0  0  0  0  0  0  0  0  0  0
   -1.8510   -0.1230    0.1680 C   0  0  0  0  0  0  0  0  0  0  0  0
   -0.6940    0.4350    0.9850 C   0  0  1  0  0  0  0  0  0  0  0  0
   -0.3030   -0.3990    1.6300 H   0  0  0  0  0  0  0  0  0  0  0  0
    0.4790    1.0190    0.2140 C   0  0  2  0  0  0  0  0  0  0  0  0
    0.1360    1.8430   -0.4570 H   0  0  0  0  0  0  0  0  0  0  0  0
    1.1200   -0.0590   -0.6580 C   0  0  0  0  0  0  0  0  0  0  0  0
    2.4110    0.4050   -1.2250 C   0  0  0  0  0  0  0  0  0  0  0  0
    3.1100    1.4300   -0.7350 C   0  0  0  0  0  0  0  0  0  0  0  0
    4.3560    1.8780   -1.4250 C   0  0  0  0  0  0  0  0  0  0  0  0
    5.5110    2.0440   -0.4310 C   0  0  1  0  0  0  0  0  0  0  0  0
    5.8330    1.0440   -0.0380 H   0  0  0  0  0  0  0  0  0  0  0  0
    6.5810    2.7340   -1.0480 O   0  0  0  0  0  0  0  0  0  0  0  0
    7.3450    2.0070   -1.9610 C   0  0  2  0  0  0  0  0  0  0  0  0
    6.7380    1.4540   -2.7320 H   0  0  0  0  0  0  0  0  0  0  0  0
    8.1070    1.1370   -1.1590 O   0  0  0  0  0  0  0  0  0  0  0  0
    9.0190    0.3670   -1.9010 C   0  0  2  0  0  0  0  0  0  0  0  0
    8.5030   -0.2480   -2.6890 H   0  0  0  0  0  0  0  0  0  0  0  0
    9.7010   -0.5500   -0.8650 C   0  0  0  0  0  0  0  0  0  0  0  0
    8.6780   -1.4320   -0.4550 O   0  0  0  0  0  0  0  0  0  0  0  0
    8.9730   -2.1780    0.6910 C   0  0  2  0  0  0  0  0  0  0  0  0
    9.3810   -1.5610    1.5440 H   0  0  0  0  0  0  0  0  0  0  0  0
    9.9000   -3.1410    0.2400 O   0  0  0  0  0  0  0  0  0  0  0  0
   10.2580   -4.0560    1.2470 C   0  0  2  0  0  0  0  0  0  0  0  0
   10.6900   -3.5360    2.1480 H   0  0  0  0  0  0  0  0  0  0  0  0
   11.3370   -4.9590    0.6040 C   0  0  0  0  0  0  0  0  0  0  0  0
   12.4570   -4.1810    0.3160 O   0  0  0  0  0  0  0  0  0  0  0  0
    9.0100   -4.8860    1.6390 C   0  0  1  0  0  0  0  0  0  0  0  0
    8.6200   -5.4560    0.7490 H   0  0  0  0  0  0  0  0  0  0  0  0
    9.4380   -5.7380    2.6540 O   0  0  0  0  0  0  0  0  0  0  0  0
    7.9200   -3.9160    2.1710 C   0  0  2  0  0  0  0  0  0  0  0  0
    8.2660   -3.4180    3.1200 H   0  0  0  0  0  0  0  0  0  0  0  0
    6.7980   -4.7100    2.3940 O   0  0  0  0  0  0  0  0  0  0  0  0
    7.6290   -2.8650    1.0720 C   0  0  1  0  0  0  0  0  0  0  0  0
    7.1630   -3.3560    0.1730 H   0  0  0  0  0  0  0  0  0  0  0  0
    6.7750   -1.9360    1.6630 O   0  0  0  0  0  0  0  0  0  0  0  0
   10.0690    1.3070   -2.5470 C   0  0  1  0  0  0  0  0  0  0  0  0
   10.6450    1.8570   -1.7540 H   0  0  0  0  0  0  0  0  0  0  0  0
   10.8910    0.4800   -3.3080 O   0  0  0  0  0  0  0  0  0  0  0  0
    9.3310    2.3150   -3.4670 C   0  0  2  0  0  0  0  0  0  0  0  0
    8.8420    1.7790   -4.3270 H   0  0  0  0  0  0  0  0  0  0  0  0
   10.3210    3.1940   -3.9060 O   0  0  0  0  0  0  0  0  0  0  0  0
    8.2800    3.0640   -2.6180 C   0  0  1  0  0  0  0  0  0  0  0  0
    8.7860    3.6900   -1.8320 H   0  0  0  0  0  0  0  0  0  0  0  0
    7.5570    3.8410   -3.5170 O   0  0  0  0  0  0  0  0  0  0  0  0
    5.0960    2.9640    0.7210 C   0  0  0  0  0  0  0  0  0  0  0  0
    3.8690    2.3870    1.4110 C   0  0  0  0  0  0  0  0  0  0  0  0
    2.6760    2.2350    0.4550 C   0  0  1  0  0  0  0  0  0  0  0  0
    2.2220    3.6050   -0.0520 C   0  0  0  0  0  0  0  0  0  0  0  0
    1.5270    1.5260    1.2170 C   0  0  1  0  0  0  0  0  0  0  0  0
    1.9520    0.6300    1.7440 H   0  0  0  0  0  0  0  0  0  0  0  0
    0.9170    2.4400    2.2880 C   0  0  0  0  0  0  0  0  0  0  0  0
   -0.3240    1.8460    2.9600 C   0  0  0  0  0  0  0  0  0  0  0  0
   -1.3580    1.4900    1.8870 C   0  0  1  0  0  0  0  0  0  0  0  0
   -1.7130    2.7640    1.1290 C   0  0  0  0  0  0  0  0  0  0  0  0
   -2.6440    0.7320    2.3770 C   0  0  2  0  0  0  0  0  0  0  0  0
   -2.2070    0.0350    3.5130 O   0  0  0  0  0  0  0  0  0  0  0  0
   -3.8110    1.6420    2.8300 C   0  0  2  0  0  0  0  0  0  0  0  0
   -3.3650    2.3200    3.6080 H   0  0  0  0  0  0  0  0  0  0  0  0
   -4.9440    0.8480    3.4860 C   0  0  0  0  0  0  0  0  0  0  0  0
   -4.4720    2.4990    1.7640 C   0  0  0  0  0  0  0  0  0  0  0  0
   -4.6960    2.1180    0.6360 O   0  0  0  0  0  0  0  0  0  0  0  0
   -4.9260    3.8700    2.2320 C   0  0  0  0  0  0  0  0  0  0  0  0
   -5.1950    4.8040    1.0550 C   0  0  0  0  0  0  0  0  0  0  0  0
   -5.5700    6.2140    1.5220 C   0  0  1  0  0  0  0  0  0  0  0  0
   -5.6590    7.1440    0.3150 C   0  0  0  0  0  0  0  0  0  0  0  0
   -6.9040    6.2080    2.2600 C   0  0  0  0  0  0  0  0  0  0  0  0
   -6.2900   -0.8480   -0.1430 C   0  0  2  0  0  0  0  0  0  0  0  0
   -6.1980    0.0000   -0.8760 H   0  0  0  0  0  0  0  0  0  0  0  0
   -6.9730   -0.5070    1.0430 O   0  0  0  0  0  0  0  0  0  0  0  0
   -7.9390    0.4500    1.0060 C   0  0  0  0  0  0  0  0  0  0  0  0
   -8.4110    0.7720    2.3890 C   0  0  0  0  0  0  0  0  0  0  0  0
   -8.3290    0.9330   -0.0420 O   0  0  0  0  0  0  0  0  0  0  0  0
   -9.0320   -3.6250   -1.6820 O   0  0  0  0  0  0  0  0  0  0  0  0
  -10.1240   -4.4990   -1.6790 C   0  0  0  0  0  0  0  0  0  0  0  0
  -11.2610   -3.9220   -2.5470 C   0  0  1  0  0  0  0  0  0  0  0  0
  -10.9160   -3.8000   -3.6090 H   0  0  0  0  0  0  0  0  0  0  0  0
  -12.3950   -4.7300   -2.4440 O   0  0  0  0  0  0  0  0  0  0  0  0
  -11.6970   -2.5490   -1.9710 C   0  0  2  0  0  0  0  0  0  0  0  0
  -12.1540   -2.6730   -0.9510 H   0  0  0  0  0  0  0  0  0  0  0  0
  -12.5630   -1.9320   -2.8680 O   0  0  0  0  0  0  0  0  0  0  0  0
  -10.4530   -1.6330   -1.8990 C   0  0  1  0  0  0  0  0  0  0  0  0
  -10.0990   -1.3730   -2.9360 H   0  0  0  0  0  0  0  0  0  0  0  0
  -10.8370   -0.5230   -1.1510 O   0  0  0  0  0  0  0  0  0  0  0  0
   -5.3840   -1.9260   -3.5110 H   0  0  0  0  0  0  0  0  0  0  0  0
   -4.8020   -3.8280   -0.5690 H   0  0  0  0  0  0  0  0  0  0  0  0
   -3.9880   -3.2970   -2.0560 H   0  0  0  0  0  0  0  0  0  0  0  0
   -1.6020   -1.0660   -0.3560 H   0  0  0  0  0  0  0  0  0  0  0  0
   -2.1840    0.5580   -0.6400 H   0  0  0  0  0  0  0  0  0  0  0  0
    1.2950   -1.0000   -0.0900 H   0  0  0  0  0  0  0  0  0  0  0  0
    0.4280   -0.3540   -1.4770 H   0  0  0  0  0  0  0  0  0  0  0  0
    2.7630   -0.1630   -2.0940 H   0  0  0  0  0  0  0  0  0  0  0  0
    4.6470    1.1680   -2.2290 H   0  0  0  0  0  0  0  0  0  0  0  0
    4.1620    2.8270   -1.9690 H   0  0  0  0  0  0  0  0  0  0  0  0
   10.5430   -1.1090   -1.3290 H   0  0  0  0  0  0  0  0  0  0  0  0
   10.1300    0.0390   -0.0230 H   0  0  0  0  0  0  0  0  0  0  0  0
   11.6790   -5.7230    1.3410 H   0  0  0  0  0  0  0  0  0  0  0  0
   10.9320   -5.5200   -0.2720 H   0  0  0  0  0  0  0  0  0  0  0  0
   12.3880   -3.8910   -0.6090 H   0  0  0  0  0  0  0  0  0  0  0  0
    8.6890   -6.2880    2.9080 H   0  0  0  0  0  0  0  0  0  0  0  0
    6.1040   -4.1450    2.7530 H   0  0  0  0  0  0  0  0  0  0  0  0
    6.5490   -1.2760    1.0000 H   0  0  0  0  0  0  0  0  0  0  0  0
   11.5770    1.0240   -3.7020 H   0  0  0  0  0  0  0  0  0  0  0  0
    9.8990    3.8240   -4.5040 H   0  0  0  0  0  0  0  0  0  0  0  0
    6.9440    4.3830   -3.0120 H   0  0  0  0  0  0  0  0  0  0  0  0
    5.9330    3.0770    1.4430 H   0  0  0  0  0  0  0  0  0  0  0  0
    4.9060    3.9970    0.3590 H   0  0  0  0  0  0  0  0  0  0  0  0
    4.1270    1.4070    1.8650 H   0  0  0  0  0  0  0  0  0  0  0  0
    3.5970    3.0310    2.2730 H   0  0  0  0  0  0  0  0  0  0  0  0
    3.0350    4.1940   -0.5000 H   0  0  0  0  0  0  0  0  0  0  0  0
    1.4390    3.5250   -0.8190 H   0  0  0  0  0  0  0  0  0  0  0  0
    1.8090    4.2320    0.7540 H   0  0  0  0  0  0  0  0  0  0  0  0
    1.6740    2.6740    3.0680 H   0  0  0  0  0  0  0  0  0  0  0  0
    0.6540    3.4350    1.8500 H   0  0  0  0  0  0  0  0  0  0  0  0
   -0.0260    0.9690    3.5720 H   0  0  0  0  0  0  0  0  0  0  0  0
   -0.7510    2.5610    3.6940 H   0  0  0  0  0  0  0  0  0  0  0  0
   -0.8190    3.3380    0.8210 H   0  0  0  0  0  0  0  0  0  0  0  0
   -2.2760    2.5830    0.2040 H   0  0  0  0  0  0  0  0  0  0  0  0
   -2.2760    3.4830    1.7420 H   0  0  0  0  0  0  0  0  0  0  0  0
   -2.8830   -0.5860    3.7920 H   0  0  0  0  0  0  0  0  0  0  0  0
   -5.1610   -0.1050    2.9840 H   0  0  0  0  0  0  0  0  0  0  0  0
   -4.7360    0.6190    4.5410 H   0  0  0  0  0  0  0  0  0  0  0  0
   -5.9050    1.3930    3.4920 H   0  0  0  0  0  0  0  0  0  0  0  0
   -5.8390    3.7350    2.8510 H   0  0  0  0  0  0  0  0  0  0  0  0
   -4.1830    4.3230    2.9210 H   0  0  0  0  0  0  0  0  0  0  0  0
   -4.2960    4.8440    0.4030 H   0  0  0  0  0  0  0  0  0  0  0  0
   -5.9910    4.3870    0.4010 H   0  0  0  0  0  0  0  0  0  0  0  0
   -4.7750    6.6000    2.2120 H   0  0  0  0  0  0  0  0  0  0  0  0
   -6.4180    6.8170   -0.4090 H   0  0  0  0  0  0  0  0  0  0  0  0
   -5.9200    8.1720    0.6070 H   0  0  0  0  0  0  0  0  0  0  0  0
   -4.7070    7.2080   -0.2310 H   0  0  0  0  0  0  0  0  0  0  0  0
   -6.8640    5.6450    3.2040 H   0  0  0  0  0  0  0  0  0  0  0  0
   -7.2310    7.2260    2.5260 H   0  0  0  0  0  0  0  0  0  0  0  0
   -7.7110    5.7660    1.6550 H   0  0  0  0  0  0  0  0  0  0  0  0
   -7.5780    1.1410    3.0120 H   0  0  0  0  0  0  0  0  0  0  0  0
   -9.1920    1.5410    2.3650 H   0  0  0  0  0  0  0  0  0  0  0  0
   -8.8270   -0.1150    2.8860 H   0  0  0  0  0  0  0  0  0  0  0  0
   -9.7150   -5.4470   -2.0940 H   0  0  0  0  0  0  0  0  0  0  0  0
  -10.4760   -4.7350   -0.6470 H   0  0  0  0  0  0  0  0  0  0  0  0
  -12.2380   -5.5130   -2.9800 H   0  0  0  0  0  0  0  0  0  0  0  0
  -13.4210   -2.3490   -2.7760 H   0  0  0  0  0  0  0  0  0  0  0  0
  -10.2720    0.2120   -1.4180 H   0  0  0  0  0  0  0  0  0  0  0  0
  2  1  1  1
  2 96  1  0
  2 88  1  0
  2  3  1  0
  3  4  1  0
  4  6  1  0
  4 82  1  0
  4  5  1  1
  6  8  1  0
  6  7  1  6
  6  9  1  0
  8 99  1  0
  9101  1  0
  9 10  1  0
  9100  1  0
 10 11  1  0
 11 82  1  0
 11 13  1  0
 11 12  1  1
 13 14  1  0
 14 16  1  0
 14 15  1  1
 14 70  1  0
 16103  1  0
 16102  1  0
 16 17  1  0
 17 19  1  0
 17 18  1  1
 17 68  1  0
 19 21  1  0
 19 20  1  6
 19 64  1  0
 21105  1  0
 21 22  1  0
 21104  1  0
 22106  1  0
 22 23  2  0
 23 24  1  0
 23 62  1  0
 24107  1  0
 24108  1  0
 24 25  1  0
 25 27  1  0
 25 26  1  1
 25 60  1  0
 27 28  1  0
 28 29  1  6
 28 57  1  0
 28 30  1  0
 30 31  1  0
 31 32  1  6
 31 51  1  0
 31 33  1  0
 33109  1  0
 33 34  1  0
 33110  1  0
 34 35  1  0
 35 37  1  0
 35 48  1  0
 35 36  1  1
 37 38  1  0
 38 40  1  0
 38 42  1  0
 38 39  1  1
 40112  1  0
 40 41  1  0
 40111  1  0
 41113  1  0
 42 43  1  6
 42 45  1  0
 42 44  1  0
 44114  1  0
 45 48  1  0
 45 47  1  0
 45 46  1  1
 47115  1  0
 48 49  1  6
 48 50  1  0
 50116  1  0
 51 54  1  0
 51 53  1  0
 51 52  1  1
 53117  1  0
 54 55  1  6
 54 56  1  0
 54 57  1  0
 56118  1  0
 57 59  1  0
 57 58  1  1
 59119  1  0
 60121  1  0
 60 61  1  0
 60120  1  0
 61 62  1  0
 61122  1  0
 61123  1  0
 62 63  1  6
 62 64  1  0
 63125  1  0
 63124  1  0
 63126  1  0
 64 65  1  1
 64 66  1  0
 66128  1  0
 66 67  1  0
 66127  1  0
 67 68  1  0
 67129  1  0
 67130  1  0
 68 69  1  6
 68 70  1  0
 69132  1  0
 69131  1  0
 69133  1  0
 70 72  1  0
 70 71  1  1
 71134  1  0
 72 75  1  0
 72 74  1  0
 72 73  1  1
 74135  1  0
 74137  1  0
 74136  1  0
 75 76  2  0
 75 77  1  0
 77 78  1  0
 77138  1  0
 77139  1  0
 78141  1  0
 78140  1  0
 78 79  1  0
 79 80  1  0
 79142  1  1
 79 81  1  0
 80143  1  0
 80145  1  0
 80144  1  0
 81148  1  0
 81147  1  0
 81146  1  0
 82 83  1  6
 82 84  1  0
 84 85  1  0
 85 87  2  0
 85 86  1  0
 86150  1  0
 86151  1  0
 86149  1  0
 88 89  1  0
 89 90  1  0
 89152  1  0
 89153  1  0
 90 91  1  6
 90 92  1  0
 90 93  1  0
 92154  1  0
 93 95  1  0
 93 96  1  0
 93 94  1  1
 95155  1  0
 96 97  1  6
 96 98  1  0
 98156  1  0
M  END
>  <id>  (588) 
692

>  <scaffolds>  (588) 
['C1=C2CCCCC2C2CCC3CCCC3C2C1', 'C1=CCCCC1', 'C1=CCC2CCCCC2C1', 'C1=C2CCCCC2C2CCC3CC(OC4CCCCO4)CC3C2C1', 'C1CCOCC1', 'C1=C2CC(OC3CCCCO3)CCC2C2CCC3CCCC3C2C1', 'C1=C2CC(OC3CCCCO3)CCC2C2CCC3CC(OC4CCCCO4)CC3C2C1', 'C1CCCCC1', 'C1=C2CC(OC3CCCC(COC4CCCCO4)O3)CCC2C2CCC3CC(OC4CC(OC5CCCCO5)CCO4)CC3C2C1', 'C1=C2CCCCC2C2CCC3CC(OC4CC(OC5CCCCO5)CCO4)CC3C2C1', 'C1=C2CCCCC2CCC1', 'C1=C2CC(OC3CCCCO3)CCC2C2CCC3CC(OC4CC(OC5CCCCO5)CCO4)CC3C2C1']

>  <name>  (588) 
3[beta]-[(O-[beta]-D-Glucopyranosyl-(1[to]6)-[beta]-D-glucopyranosyl)oxy)]-17[alpha]-hydroxy-16[beta]-[(O-[beta]-D-xylopyranosyl-(1[to]3)-2-O-acetyl-[alpha]-L-arabinopyranosyl)oxy]cholest-5-en-22-one

>  <formula>  (588) 
C51H82O23

>  <SMILES>  (588) 
[H][C@@]8(O[C@H]7[C@@H](O)CO[C@@]([H])(O[C@H]6C[C@@]5([H])[C@]4([H])CC=C3C[C@@H](O[C@]2([H])O[C@H](CO[C@@H]1O[C@H](CO)[C@@H](O)[C@H](O)[C@H]1O)[C@@H](O)[C@H](O)[C@H]2O)CC[C@]3(C)[C@@]4([H])CC[C@]5(C)[C@@]6(O)[C@H](C)C(=O)CCC(C)C)[C@@H]7OC(C)=O)OC[C@@H](O)[C@H](O)[C@H]8O

>  <ChEMBL_id>  (588) 


>  <ZINC_id>  (588) 


>  <PubChem_id>  (588) 


>  <DrugBank_id>  (588) 


>  <CAS_no>  (588) 
474125-91-2

>  <references>  (588) 
[{'journal': {'name': 'Journal of Natural Products', 'id': 5}, 'title': 'Cholestane Glycosides from the Bulbs of Ornithogalum thyrsoides and Their Cytotoxic Activity against HL-60 Leukemia Cells', 'year': 2002, 'start_page': 1417, 'volume': 65, 'issue': 10, 'doi': '10.1021/np020114j', 'isbn': '', 'despositor': {'code': 'NFA', 'first_name': 'Ngonidzashe', 'last_name': 'Faya', 'id': 21}, 'refauthors_set': [{'author': {'first_name': 'Minpei', 'initials': 'M', 'last_name': 'Kuroda', 'id': 644}, 'first_author': True, 'id': 1199}, {'author': {'first_name': 'Yoshihiro ', 'initials': 'Y', 'last_name': 'Mimaki', 'id': 643}, 'first_author': None, 'id': 1200}, {'author': {'first_name': 'Akihito ', 'initials': 'A', 'last_name': 'Yokosuka', 'id': 650}, 'first_author': None, 'id': 1201}, {'author': {'first_name': 'Fusako', 'initials': 'F', 'last_name': 'Hasegawa', 'id': 711}, 'first_author': None, 'id': 1202}, {'author': {'first_name': 'Yutaka', 'initials': 'Y', 'last_name': 'Sashida', 'id': 645}, 'first_author': None, 'id': 1203}], 'id': 341}]

>  <classifications>  (588) 
[{'classification': 'Steroids and steroid derivatives (Classyfire)', 'id': 942}]

>  <molecular_mass>  (588) 
1063.18

$$$$
SANC00693_minRM1.pdb
     RDKit          3D

197206  0  0  1  0  0  0  0  0999 V2000
   -8.3660    3.9760    0.9690 H   0  0  0  0  0  0  0  0  0  0  0  0
   -8.2940    3.5570    2.0140 C   0  0  2  0  0  0  0  0  0  0  0  0
   -7.3520    2.5360    2.1520 O   0  0  0  0  0  0  0  0  0  0  0  0
   -6.0750    2.8200    1.6440 C   0  0  1  0  0  0  0  0  0  0  0  0
   -6.0320    3.7590    1.0260 H   0  0  0  0  0  0  0  0  0  0  0  0
   -5.0840    2.9560    2.8240 C   0  0  1  0  0  0  0  0  0  0  0  0
   -5.3220    3.8760    3.4240 H   0  0  0  0  0  0  0  0  0  0  0  0
   -5.2310    1.7970    3.5800 O   0  0  0  0  0  0  0  0  0  0  0  0
   -3.6580    3.0650    2.2320 C   0  0  0  0  0  0  0  0  0  0  0  0
   -3.3480    1.9690    1.4200 O   0  0  0  0  0  0  0  0  0  0  0  0
   -4.2070    1.8230    0.3120 C   0  0  1  0  0  0  0  0  0  0  0  0
   -4.1240    2.7030   -0.3910 H   0  0  0  0  0  0  0  0  0  0  0  0
   -3.8230    0.6190   -0.2800 O   0  0  0  0  0  0  0  0  0  0  0  0
   -2.5090    0.5620   -0.7640 C   0  0  1  0  0  0  0  0  0  0  0  0
   -2.0820    1.5930   -0.9240 H   0  0  0  0  0  0  0  0  0  0  0  0
   -1.5960   -0.1930    0.2220 C   0  0  0  0  0  0  0  0  0  0  0  0
   -0.5330   -0.7540   -0.7170 C   0  0  1  0  0  0  0  0  0  0  0  0
    0.0730    0.1140   -1.0970 H   0  0  0  0  0  0  0  0  0  0  0  0
    0.4280   -1.7890   -0.1580 C   0  0  2  0  0  0  0  0  0  0  0  0
   -0.1390   -2.6800    0.2170 H   0  0  0  0  0  0  0  0  0  0  0  0
    1.2210   -1.2030    1.0080 C   0  0  0  0  0  0  0  0  0  0  0  0
    2.3490   -2.0930    1.3970 C   0  0  0  0  0  0  0  0  0  0  0  0
    2.8210   -3.0700    0.6200 C   0  0  0  0  0  0  0  0  0  0  0  0
    3.8630   -4.0000    1.1420 C   0  0  0  0  0  0  0  0  0  0  0  0
    5.0090   -4.1530    0.1360 C   0  0  1  0  0  0  0  0  0  0  0  0
    5.5730   -3.1870    0.0320 H   0  0  0  0  0  0  0  0  0  0  0  0
    5.8510   -5.2170    0.5400 O   0  0  0  0  0  0  0  0  0  0  0  0
    6.7290   -4.9360    1.5850 C   0  0  2  0  0  0  0  0  0  0  0  0
    6.2420   -4.4290    2.4660 H   0  0  0  0  0  0  0  0  0  0  0  0
    7.7230   -4.1350    0.9930 O   0  0  0  0  0  0  0  0  0  0  0  0
    8.7560   -3.8000    1.8840 C   0  0  2  0  0  0  0  0  0  0  0  0
    8.3700   -3.2660    2.7960 H   0  0  0  0  0  0  0  0  0  0  0  0
    9.6850   -2.8700    1.0780 C   0  0  0  0  0  0  0  0  0  0  0  0
    8.8940   -1.7240    0.8530 O   0  0  0  0  0  0  0  0  0  0  0  0
    9.4800   -0.7570    0.0330 C   0  0  2  0  0  0  0  0  0  0  0  0
    9.9410   -1.1770   -0.9070 H   0  0  0  0  0  0  0  0  0  0  0  0
   10.4320   -0.1400    0.8680 O   0  0  0  0  0  0  0  0  0  0  0  0
   11.0830    0.9340    0.2430 C   0  0  2  0  0  0  0  0  0  0  0  0
   11.6020    0.6100   -0.7020 H   0  0  0  0  0  0  0  0  0  0  0  0
   12.1210    1.4220    1.2800 C   0  0  0  0  0  0  0  0  0  0  0  0
   13.2250    0.5710    1.2130 O   0  0  0  0  0  0  0  0  0  0  0  0
   10.0590    2.0610   -0.0650 C   0  0  1  0  0  0  0  0  0  0  0  0
    9.6280    2.4730    0.8860 H   0  0  0  0  0  0  0  0  0  0  0  0
   10.7870    2.9980   -0.8220 O   0  0  0  0  0  0  0  0  0  0  0  0
   10.5810    4.3450   -0.5170 C   0  0  2  0  0  0  0  0  0  0  0  0
   10.5690    4.5590    0.5920 H   0  0  0  0  0  0  0  0  0  0  0  0
    9.3630    4.6580   -1.1410 O   0  0  0  0  0  0  0  0  0  0  0  0
    9.0190    6.0150   -1.0140 C   0  0  2  0  0  0  0  0  0  0  0  0
    8.9500    6.3290    0.0630 H   0  0  0  0  0  0  0  0  0  0  0  0
    7.6330    6.1450   -1.6830 C   0  0  0  0  0  0  0  0  0  0  0  0
    6.6590    5.6520   -0.8300 O   0  0  0  0  0  0  0  0  0  0  0  0
   10.0650    6.8760   -1.7670 C   0  0  1  0  0  0  0  0  0  0  0  0
   10.0710    6.6160   -2.8610 H   0  0  0  0  0  0  0  0  0  0  0  0
    9.6930    8.2000   -1.5410 O   0  0  0  0  0  0  0  0  0  0  0  0
   11.4610    6.6110   -1.1450 C   0  0  2  0  0  0  0  0  0  0  0  0
   11.4900    6.9630   -0.0770 H   0  0  0  0  0  0  0  0  0  0  0  0
   12.3600    7.3150   -1.9470 O   0  0  0  0  0  0  0  0  0  0  0  0
   11.7470    5.0940   -1.2280 C   0  0  1  0  0  0  0  0  0  0  0  0
   11.8300    4.7670   -2.3020 H   0  0  0  0  0  0  0  0  0  0  0  0
   12.9340    4.8950   -0.5350 O   0  0  0  0  0  0  0  0  0  0  0  0
    8.9310    1.4990   -0.9610 C   0  0  2  0  0  0  0  0  0  0  0  0
    9.3380    1.2430   -1.9780 H   0  0  0  0  0  0  0  0  0  0  0  0
    7.9450    2.4780   -1.0130 O   0  0  0  0  0  0  0  0  0  0  0  0
    8.3310    0.2410   -0.2810 C   0  0  1  0  0  0  0  0  0  0  0  0
    7.7920    0.5330    0.6620 H   0  0  0  0  0  0  0  0  0  0  0  0
    7.4760   -0.3130   -1.2310 O   0  0  0  0  0  0  0  0  0  0  0  0
    9.5100   -5.0920    2.2920 C   0  0  1  0  0  0  0  0  0  0  0  0
    9.9710   -5.5810    1.3900 H   0  0  0  0  0  0  0  0  0  0  0  0
   10.4740   -4.6870    3.2110 O   0  0  0  0  0  0  0  0  0  0  0  0
    8.5020   -6.0590    2.9660 C   0  0  2  0  0  0  0  0  0  0  0  0
    8.1210   -5.6200    3.9300 H   0  0  0  0  0  0  0  0  0  0  0  0
    9.2170   -7.2340    3.1880 O   0  0  0  0  0  0  0  0  0  0  0  0
    7.3360   -6.3130    1.9820 C   0  0  1  0  0  0  0  0  0  0  0  0
    7.7060   -6.8610    1.0720 H   0  0  0  0  0  0  0  0  0  0  0  0
    6.3980   -7.0530    2.7010 O   0  0  0  0  0  0  0  0  0  0  0  0
    4.4640   -4.6000   -1.2230 C   0  0  0  0  0  0  0  0  0  0  0  0
    3.4550   -3.5780   -1.7240 C   0  0  0  0  0  0  0  0  0  0  0  0
    2.2840   -3.3760   -0.7490 C   0  0  1  0  0  0  0  0  0  0  0  0
    1.4650   -4.6640   -0.6490 C   0  0  0  0  0  0  0  0  0  0  0  0
    1.4140   -2.2000   -1.2630 C   0  0  1  0  0  0  0  0  0  0  0  0
    2.0830   -1.3200   -1.4580 H   0  0  0  0  0  0  0  0  0  0  0  0
    0.7360   -2.5550   -2.5940 C   0  0  0  0  0  0  0  0  0  0  0  0
   -0.3590   -1.5770   -3.0230 C   0  0  0  0  0  0  0  0  0  0  0  0
   -1.3480   -1.3490   -1.8770 C   0  0  1  0  0  0  0  0  0  0  0  0
   -1.9580   -2.6990   -1.5090 C   0  0  0  0  0  0  0  0  0  0  0  0
   -2.4410   -0.2470   -2.1200 C   0  0  2  0  0  0  0  0  0  0  0  0
   -1.8730    0.5920   -3.0880 O   0  0  0  0  0  0  0  0  0  0  0  0
   -3.7690   -0.7820   -2.7030 C   0  0  2  0  0  0  0  0  0  0  0  0
   -3.4790   -1.3740   -3.6130 H   0  0  0  0  0  0  0  0  0  0  0  0
   -4.6980    0.3470   -3.1520 C   0  0  0  0  0  0  0  0  0  0  0  0
   -4.5760   -1.6750   -1.7800 C   0  0  0  0  0  0  0  0  0  0  0  0
   -4.6310   -1.5160   -0.5800 O   0  0  0  0  0  0  0  0  0  0  0  0
   -5.3730   -2.7750   -2.4560 C   0  0  0  0  0  0  0  0  0  0  0  0
   -5.8390   -3.8130   -1.4390 C   0  0  0  0  0  0  0  0  0  0  0  0
   -6.4370   -5.0540   -2.1050 C   0  0  1  0  0  0  0  0  0  0  0  0
   -6.8390   -6.0560   -1.0250 C   0  0  0  0  0  0  0  0  0  0  0  0
   -7.6570   -4.7040   -2.9440 C   0  0  0  0  0  0  0  0  0  0  0  0
   -5.6700    1.5930    0.7940 C   0  0  2  0  0  0  0  0  0  0  0  0
   -5.7430    0.6380    1.3860 H   0  0  0  0  0  0  0  0  0  0  0  0
   -6.4720    1.6230   -0.3620 O   0  0  0  0  0  0  0  0  0  0  0  0
   -7.4180    0.6820   -0.5690 C   0  0  0  0  0  0  0  0  0  0  0  0
   -8.0540    0.8360   -1.9140 C   0  0  0  0  0  0  0  0  0  0  0  0
   -7.6580   -0.1540    0.2550 O   0  0  0  0  0  0  0  0  0  0  0  0
   -7.8580    4.5380    2.9310 O   0  0  0  0  0  0  0  0  0  0  0  0
   -8.7550    5.6060    3.0690 C   0  0  0  0  0  0  0  0  0  0  0  0
  -10.0970    5.0910    3.6350 C   0  0  1  0  0  0  0  0  0  0  0  0
   -9.9510    4.6250    4.6460 H   0  0  0  0  0  0  0  0  0  0  0  0
  -11.0350    6.1340    3.6510 O   0  0  0  0  0  0  0  0  0  0  0  0
  -10.6810    4.0570    2.6430 C   0  0  2  0  0  0  0  0  0  0  0  0
  -10.9110    4.5410    1.6530 H   0  0  0  0  0  0  0  0  0  0  0  0
  -11.8020    3.4240    3.1920 O   0  0  0  0  0  0  0  0  0  0  0  0
   -9.6390    2.9230    2.4740 C   0  0  1  0  0  0  0  0  0  0  0  0
   -9.4990    2.3460    3.4280 H   0  0  0  0  0  0  0  0  0  0  0  0
  -10.0400    2.1470    1.3720 O   0  0  0  0  0  0  0  0  0  0  0  0
  -10.6910    0.9540    1.5950 C   0  0  0  0  0  0  0  0  0  0  0  0
  -10.8680    0.5220    2.7110 O   0  0  0  0  0  0  0  0  0  0  0  0
  -11.0540    0.3250    0.3120 C   0  0  0  0  0  0  0  0  0  0  0  0
  -11.6760    1.0570   -0.6840 C   0  0  0  0  0  0  0  0  0  0  0  0
  -12.0290    0.4360   -1.8850 C   0  0  0  0  0  0  0  0  0  0  0  0
  -11.7830   -0.9180   -2.0470 C   0  0  0  0  0  0  0  0  0  0  0  0
  -12.1280   -1.6590   -3.1210 O   0  0  0  0  0  0  0  0  0  0  0  0
  -12.8450   -1.0440   -4.1530 C   0  0  0  0  0  0  0  0  0  0  0  0
  -11.1390   -1.6540   -1.0230 C   0  0  0  0  0  0  0  0  0  0  0  0
  -10.9180   -2.9560   -1.3280 O   0  0  0  0  0  0  0  0  0  0  0  0
  -10.6610   -3.8320   -0.2760 C   0  0  0  0  0  0  0  0  0  0  0  0
  -10.7690   -1.0340    0.1570 C   0  0  0  0  0  0  0  0  0  0  0  0
   -4.6270    1.8640    4.3270 H   0  0  0  0  0  0  0  0  0  0  0  0
   -3.5290    4.0340    1.6970 H   0  0  0  0  0  0  0  0  0  0  0  0
   -2.8750    3.0350    3.0200 H   0  0  0  0  0  0  0  0  0  0  0  0
   -1.1840    0.4750    1.0020 H   0  0  0  0  0  0  0  0  0  0  0  0
   -2.1430   -0.9730    0.7860 H   0  0  0  0  0  0  0  0  0  0  0  0
    1.6270   -0.1960    0.7660 H   0  0  0  0  0  0  0  0  0  0  0  0
    0.5530   -1.0330    1.8810 H   0  0  0  0  0  0  0  0  0  0  0  0
    2.7770   -1.8920    2.3900 H   0  0  0  0  0  0  0  0  0  0  0  0
    4.2620   -3.6540    2.1220 H   0  0  0  0  0  0  0  0  0  0  0  0
    3.4050   -4.9870    1.3730 H   0  0  0  0  0  0  0  0  0  0  0  0
   10.6020   -2.6320    1.6610 H   0  0  0  0  0  0  0  0  0  0  0  0
   10.0160   -3.3460    0.1270 H   0  0  0  0  0  0  0  0  0  0  0  0
   12.4900    2.4370    1.0100 H   0  0  0  0  0  0  0  0  0  0  0  0
   11.6720    1.5180    2.2930 H   0  0  0  0  0  0  0  0  0  0  0  0
   13.2560    0.0580    2.0320 H   0  0  0  0  0  0  0  0  0  0  0  0
    7.3770    7.2170   -1.8410 H   0  0  0  0  0  0  0  0  0  0  0  0
    7.6240    5.6680   -2.6890 H   0  0  0  0  0  0  0  0  0  0  0  0
    6.5410    4.7310   -1.0020 H   0  0  0  0  0  0  0  0  0  0  0  0
   10.3020    8.7530   -2.0510 H   0  0  0  0  0  0  0  0  0  0  0  0
   13.2330    7.2170   -1.5540 H   0  0  0  0  0  0  0  0  0  0  0  0
   13.2390    4.0050   -0.6760 H   0  0  0  0  0  0  0  0  0  0  0  0
    7.4140    2.3030   -1.7950 H   0  0  0  0  0  0  0  0  0  0  0  0
    7.0240   -1.0540   -0.8130 H   0  0  0  0  0  0  0  0  0  0  0  0
   10.9770   -5.4620    3.4750 H   0  0  0  0  0  0  0  0  0  0  0  0
    8.6250   -7.8570    3.6240 H   0  0  0  0  0  0  0  0  0  0  0  0
    5.6910   -7.2870    2.0920 H   0  0  0  0  0  0  0  0  0  0  0  0
    5.2950   -4.7170   -1.9520 H   0  0  0  0  0  0  0  0  0  0  0  0
    4.0140   -5.6130   -1.1590 H   0  0  0  0  0  0  0  0  0  0  0  0
    3.9670   -2.6120   -1.9220 H   0  0  0  0  0  0  0  0  0  0  0  0
    3.0790   -3.9020   -2.7170 H   0  0  0  0  0  0  0  0  0  0  0  0
    2.0700   -5.5410   -0.3820 H   0  0  0  0  0  0  0  0  0  0  0  0
    0.6740   -4.5950    0.1130 H   0  0  0  0  0  0  0  0  0  0  0  0
    0.9700   -4.9160   -1.6010 H   0  0  0  0  0  0  0  0  0  0  0  0
    1.5020   -2.5920   -3.4000 H   0  0  0  0  0  0  0  0  0  0  0  0
    0.3300   -3.5910   -2.5730 H   0  0  0  0  0  0  0  0  0  0  0  0
    0.1150   -0.6310   -3.3610 H   0  0  0  0  0  0  0  0  0  0  0  0
   -0.8870   -1.9540   -3.9240 H   0  0  0  0  0  0  0  0  0  0  0  0
   -1.1930   -3.4530   -1.2550 H   0  0  0  0  0  0  0  0  0  0  0  0
   -2.5950   -2.6780   -0.6170 H   0  0  0  0  0  0  0  0  0  0  0  0
   -2.5260   -3.1500   -2.3340 H   0  0  0  0  0  0  0  0  0  0  0  0
   -2.4050    1.3830   -3.1810 H   0  0  0  0  0  0  0  0  0  0  0  0
   -4.4370    0.7230   -4.1520 H   0  0  0  0  0  0  0  0  0  0  0  0
   -5.7530    0.0330   -3.2250 H   0  0  0  0  0  0  0  0  0  0  0  0
   -4.7040    1.2100   -2.4740 H   0  0  0  0  0  0  0  0  0  0  0  0
   -6.2350   -2.3070   -2.9750 H   0  0  0  0  0  0  0  0  0  0  0  0
   -4.7820   -3.2560   -3.2620 H   0  0  0  0  0  0  0  0  0  0  0  0
   -4.9840   -4.1100   -0.7940 H   0  0  0  0  0  0  0  0  0  0  0  0
   -6.5700   -3.3550   -0.7380 H   0  0  0  0  0  0  0  0  0  0  0  0
   -5.6630   -5.5270   -2.7640 H   0  0  0  0  0  0  0  0  0  0  0  0
   -7.6280   -5.6620   -0.3690 H   0  0  0  0  0  0  0  0  0  0  0  0
   -7.2210   -6.9930   -1.4540 H   0  0  0  0  0  0  0  0  0  0  0  0
   -5.9970   -6.3320   -0.3750 H   0  0  0  0  0  0  0  0  0  0  0  0
   -7.4040   -4.0990   -3.8260 H   0  0  0  0  0  0  0  0  0  0  0  0
   -8.1640   -5.6020   -3.3260 H   0  0  0  0  0  0  0  0  0  0  0  0
   -8.4100   -4.1390   -2.3720 H   0  0  0  0  0  0  0  0  0  0  0  0
   -7.3960    0.4090   -2.6910 H   0  0  0  0  0  0  0  0  0  0  0  0
   -9.0180    0.3100   -1.9600 H   0  0  0  0  0  0  0  0  0  0  0  0
   -8.2340    1.8870   -2.1820 H   0  0  0  0  0  0  0  0  0  0  0  0
   -8.2420    6.2900    3.7770 H   0  0  0  0  0  0  0  0  0  0  0  0
   -8.8980    6.1740    2.1220 H   0  0  0  0  0  0  0  0  0  0  0  0
  -10.8060    6.7050    4.3870 H   0  0  0  0  0  0  0  0  0  0  0  0
  -12.5000    4.0840    3.2520 H   0  0  0  0  0  0  0  0  0  0  0  0
  -11.9200    2.1190   -0.5240 H   0  0  0  0  0  0  0  0  0  0  0  0
  -12.4940    1.0420   -2.6650 H   0  0  0  0  0  0  0  0  0  0  0  0
  -13.0090   -1.8550   -4.8780 H   0  0  0  0  0  0  0  0  0  0  0  0
  -13.8080   -0.6430   -3.8230 H   0  0  0  0  0  0  0  0  0  0  0  0
  -12.2810   -0.2570   -4.6610 H   0  0  0  0  0  0  0  0  0  0  0  0
   -9.6680   -3.7020    0.1610 H   0  0  0  0  0  0  0  0  0  0  0  0
  -11.4160   -3.7790    0.5210 H   0  0  0  0  0  0  0  0  0  0  0  0
  -10.7070   -4.8240   -0.7510 H   0  0  0  0  0  0  0  0  0  0  0  0
  -10.2810   -1.5700    0.9770 H   0  0  0  0  0  0  0  0  0  0  0  0
  2  1  1  6
  2  3  1  0
  2112  1  0
  2104  1  0
  3  4  1  0
  4 98  1  0
  4  5  1  6
  4  6  1  0
  6  9  1  0
  6  7  1  1
  6  8  1  0
  8127  1  0
  9 10  1  0
  9128  1  0
  9129  1  0
 10 11  1  0
 11 12  1  6
 11 13  1  0
 11 98  1  0
 13 14  1  0
 14 86  1  0
 14 15  1  6
 14 16  1  0
 16 17  1  0
 16131  1  0
 16130  1  0
 17 84  1  0
 17 18  1  6
 17 19  1  0
 19 80  1  0
 19 20  1  1
 19 21  1  0
 21132  1  0
 21 22  1  0
 21133  1  0
 22 23  2  0
 22134  1  0
 23 78  1  0
 23 24  1  0
 24 25  1  0
 24136  1  0
 24135  1  0
 25 76  1  0
 25 26  1  6
 25 27  1  0
 27 28  1  0
 28 30  1  0
 28 73  1  0
 28 29  1  1
 30 31  1  0
 31 33  1  0
 31 67  1  0
 31 32  1  1
 33138  1  0
 33 34  1  0
 33137  1  0
 34 35  1  0
 35 36  1  6
 35 64  1  0
 35 37  1  0
 37 38  1  0
 38 39  1  6
 38 42  1  0
 38 40  1  0
 40139  1  0
 40 41  1  0
 40140  1  0
 41141  1  0
 42 61  1  0
 42 44  1  0
 42 43  1  1
 44 45  1  0
 45 58  1  0
 45 47  1  0
 45 46  1  1
 47 48  1  0
 48 52  1  0
 48 50  1  0
 48 49  1  1
 50143  1  0
 50142  1  0
 50 51  1  0
 51144  1  0
 52 53  1  6
 52 54  1  0
 52 55  1  0
 54145  1  0
 55 57  1  0
 55 58  1  0
 55 56  1  1
 57146  1  0
 58 59  1  6
 58 60  1  0
 60147  1  0
 61 62  1  6
 61 63  1  0
 61 64  1  0
 63148  1  0
 64 66  1  0
 64 65  1  1
 66149  1  0
 67 68  1  6
 67 70  1  0
 67 69  1  0
 69150  1  0
 70 73  1  0
 70 72  1  0
 70 71  1  1
 72151  1  0
 73 74  1  6
 73 75  1  0
 75152  1  0
 76153  1  0
 76 77  1  0
 76154  1  0
 77156  1  0
 77155  1  0
 77 78  1  0
 78 80  1  0
 78 79  1  1
 79159  1  0
 79157  1  0
 79158  1  0
 80 82  1  0
 80 81  1  6
 82160  1  0
 82 83  1  0
 82161  1  0
 83163  1  0
 83162  1  0
 83 84  1  0
 84 86  1  0
 84 85  1  1
 85166  1  0
 85164  1  0
 85165  1  0
 86 87  1  6
 86 88  1  0
 87167  1  0
 88 89  1  6
 88 90  1  0
 88 91  1  0
 90168  1  0
 90169  1  0
 90170  1  0
 91 93  1  0
 91 92  2  0
 93172  1  0
 93171  1  0
 93 94  1  0
 94 95  1  0
 94173  1  0
 94174  1  0
 95 97  1  0
 95175  1  6
 95 96  1  0
 96177  1  0
 96178  1  0
 96176  1  0
 97179  1  0
 97180  1  0
 97181  1  0
 98100  1  0
 98 99  1  1
100101  1  0
101102  1  0
101103  2  0
102182  1  0
102184  1  0
102183  1  0
104105  1  0
105186  1  0
105106  1  0
105185  1  0
106109  1  0
106108  1  0
106107  1  1
108187  1  0
109110  1  6
109112  1  0
109111  1  0
111188  1  0
112114  1  0
112113  1  1
114115  1  0
115117  1  0
115116  2  0
117118  2  0
117126  1  0
118119  1  0
118189  1  0
119190  1  0
119120  2  0
120121  1  0
120123  1  0
121122  1  0
122191  1  0
122193  1  0
122192  1  0
123124  1  0
123126  2  0
124125  1  0
125196  1  0
125194  1  0
125195  1  0
126197  1  0
M  END
>  <id>  (589) 
693

>  <scaffolds>  (589) 
['c1ccccc1', 'C1=C2CCCCC2C2CCC3CCCC3C2C1', 'C1=CCCCC1', 'C1=CCC2CCCCC2C1', 'C1=C2CCCCC2C2CCC3CC(OC4CCCCO4)CC3C2C1', 'C1CCOCC1', 'C1=C2CC(OC3CCCCO3)CCC2C2CCC3CCCC3C2C1', 'O=C(OC1CCCOC1OC1CCOC(OC2CC3CCC4C5CCC(OC6CCCCO6)CC5=CCC4C3C2)C1)c1ccccc1', 'C1=C2CC(OC3CCCCO3)CCC2C2CCC3CC(OC4CCCCO4)CC3C2C1', 'C1CCCCC1', 'O=C(OC1CCCOC1OC1CCOC(OC2CC3CCC4C5CCC(OC6CCCC(COC7CCC(OC8CCCCO8)CO7)O6)CC5=CCC4C3C2)C1)c1ccccc1', 'O=C(OC1CCCOC1OC1CCOC(OC2CC3CCC4C5CCCCC5=CCC4C3C2)C1)c1ccccc1', 'O=C(OC1CCCOC1OC1CCOC(OC2CC3CCC4C5CCC(OC6CCCC(COC7CCCCO7)O6)CC5=CCC4C3C2)C1)c1ccccc1', 'C1=C2CC(OC3CCCC(COC4CCCCO4)O3)CCC2C2CCC3CC(OC4CC(OC5CCCCO5)CCO4)CC3C2C1', 'C1=C2CCCCC2C2CCC3CC(OC4CC(OC5CCCCO5)CCO4)CC3C2C1', 'C1=C2CCCCC2CCC1', 'C1=C2CC(OC3CCCCO3)CCC2C2CCC3CC(OC4CC(OC5CCCCO5)CCO4)CC3C2C1', 'C1CCC(OC2CCCOC2)OC1', 'C1=C2CC(OC3CCCC(COC4CCC(OC5CCCCO5)CO4)O3)CCC2C2CCC3CC(OC4CC(OC5CCCCO5)CCO4)CC3C2C1']

>  <name>  (589) 
3[beta]-[(O-[beta]-D-Glucopyranosyl-(1[to]4)-O-[beta]-D-glucopyranosyl-(1[to]6)-[beta]-D-glucopyranosyl)oxy)]-17[alpha]-hydroxy-16[beta]-[(O-(2-O-3,4-dimethoxybenzoyl-[beta]-D-xylopyranosyl)-(1[to]3)-2-O-acetyl-[alpha]-L-arabinopyranosyl)oxy]cholest-5-...

>  <formula>  (589) 
C66H100O31

>  <SMILES>  (589) 
[H][C@@]9(O[C@H]8[C@@H](O)CO[C@@]([H])(O[C@H]7C[C@@]6([H])[C@]5([H])CC=C4C[C@@H](O[C@]3([H])O[C@H](CO[C@@H]2O[C@H](CO)[C@@H](O[C@]1([H])O[C@H](CO)[C@@H](O)[C@H](O)[C@H]1O)[C@H](O)[C@H]2O)[C@@H](O)[C@H](O)[C@H]3O)CC[C@]4(C)[C@@]5([H])CC[C@]6(C)[C@@]7(O)[C@H](C)C(=O)CCC(C)C)[C@@H]8OC(C)=O)OC[C@@H](O)[C@H](O)[C@H]9OC(=O)c%10ccc(OC)c(OC)c%10

>  <ChEMBL_id>  (589) 


>  <ZINC_id>  (589) 


>  <PubChem_id>  (589) 


>  <DrugBank_id>  (589) 


>  <CAS_no>  (589) 
474125-95-6

>  <references>  (589) 
[{'journal': {'name': 'Journal of Natural Products', 'id': 5}, 'title': 'Cholestane Glycosides from the Bulbs of Ornithogalum thyrsoides and Their Cytotoxic Activity against HL-60 Leukemia Cells', 'year': 2002, 'start_page': 1417, 'volume': 65, 'issue': 10, 'doi': '10.1021/np020114j', 'isbn': '', 'despositor': {'code': 'NFA', 'first_name': 'Ngonidzashe', 'last_name': 'Faya', 'id': 21}, 'refauthors_set': [{'author': {'first_name': 'Minpei', 'initials': 'M', 'last_name': 'Kuroda', 'id': 644}, 'first_author': True, 'id': 1199}, {'author': {'first_name': 'Yoshihiro ', 'initials': 'Y', 'last_name': 'Mimaki', 'id': 643}, 'first_author': None, 'id': 1200}, {'author': {'first_name': 'Akihito ', 'initials': 'A', 'last_name': 'Yokosuka', 'id': 650}, 'first_author': None, 'id': 1201}, {'author': {'first_name': 'Fusako', 'initials': 'F', 'last_name': 'Hasegawa', 'id': 711}, 'first_author': None, 'id': 1202}, {'author': {'first_name': 'Yutaka', 'initials': 'Y', 'last_name': 'Sashida', 'id': 645}, 'first_author': None, 'id': 1203}], 'id': 341}]

>  <classifications>  (589) 
[{'classification': 'Steroids and steroid derivatives (Classyfire)', 'id': 942}]

>  <molecular_mass>  (589) 
1389.48

$$$$
SANC00694_minRM1.pdb
     RDKit          3D

 97101  0  0  1  0  0  0  0  0999 V2000
   -3.3310   -1.5540    1.5840 H   0  0  0  0  0  0  0  0  0  0  0  0
   -2.7940   -1.7920    0.6220 C   0  0  2  0  0  0  0  0  0  0  0  0
   -1.9230   -0.7880    0.1840 O   0  0  0  0  0  0  0  0  0  0  0  0
   -1.1180   -0.1900    1.1740 C   0  0  1  0  0  0  0  0  0  0  0  0
   -1.6340   -0.1680    2.1710 H   0  0  0  0  0  0  0  0  0  0  0  0
    0.2330   -0.9410    1.2720 C   0  0  0  0  0  0  0  0  0  0  0  0
    1.2850    0.1420    1.0620 C   0  0  1  0  0  0  0  0  0  0  0  0
    1.4540    0.6620    2.0440 H   0  0  0  0  0  0  0  0  0  0  0  0
    2.6310   -0.3280    0.5380 C   0  0  2  0  0  0  0  0  0  0  0  0
    2.4900   -0.8300   -0.4600 H   0  0  0  0  0  0  0  0  0  0  0  0
    3.2470   -1.3260    1.5180 C   0  0  0  0  0  0  0  0  0  0  0  0
    4.6770   -1.5840    1.2170 C   0  0  0  0  0  0  0  0  0  0  0  0
    5.4140   -0.8370    0.3920 C   0  0  0  0  0  0  0  0  0  0  0  0
    6.8170   -1.2500    0.0950 C   0  0  0  0  0  0  0  0  0  0  0  0
    7.7650   -0.0500    0.1850 C   0  0  1  0  0  0  0  0  0  0  0  0
    7.7710    0.3570    1.2330 H   0  0  0  0  0  0  0  0  0  0  0  0
    9.0570   -0.4120   -0.2210 O   0  0  0  0  0  0  0  0  0  0  0  0
    7.3000    1.0190   -0.8040 C   0  0  0  0  0  0  0  0  0  0  0  0
    5.9030    1.4860   -0.4220 C   0  0  0  0  0  0  0  0  0  0  0  0
    4.8680    0.3550   -0.3450 C   0  0  1  0  0  0  0  0  0  0  0  0
    4.5220   -0.1140   -1.7620 C   0  0  0  0  0  0  0  0  0  0  0  0
    3.5900    0.8630    0.3860 C   0  0  1  0  0  0  0  0  0  0  0  0
    3.8840    1.2100    1.4120 H   0  0  0  0  0  0  0  0  0  0  0  0
    2.9310    2.0490   -0.3560 C   0  0  2  0  0  0  0  0  0  0  0  0
    2.9620    1.8570   -1.4670 H   0  0  0  0  0  0  0  0  0  0  0  0
    3.7040    3.1730   -0.0180 O   0  0  0  0  0  0  0  0  0  0  0  0
    1.4780    2.3670    0.0660 C   0  0  0  0  0  0  0  0  0  0  0  0
    0.6120    1.1150    0.0750 C   0  0  1  0  0  0  0  0  0  0  0  0
    0.5040    0.5490   -1.3360 C   0  0  0  0  0  0  0  0  0  0  0  0
   -0.7800    1.2660    0.7320 C   0  0  1  0  0  0  0  0  0  0  0  0
   -0.6550    1.8630    1.6750 H   0  0  0  0  0  0  0  0  0  0  0  0
   -1.8630    1.9570   -0.0950 C   0  0  2  0  0  0  0  0  0  0  0  0
   -2.0290    1.4080   -1.0550 H   0  0  0  0  0  0  0  0  0  0  0  0
   -1.4470    3.3880   -0.4160 C   0  0  0  0  0  0  0  0  0  0  0  0
   -3.2090    1.9600    0.6770 C   0  0  1  0  0  0  0  0  0  0  0  0
   -3.5260    0.9160    0.9320 H   0  0  0  0  0  0  0  0  0  0  0  0
   -3.0870    2.5440    1.9340 O   0  0  0  0  0  0  0  0  0  0  0  0
   -4.3140    2.6320   -0.1610 C   0  0  0  0  0  0  0  0  0  0  0  0
   -5.6310    2.6960    0.6080 C   0  0  0  0  0  0  0  0  0  0  0  0
   -6.8170    3.0470   -0.3010 C   0  0  1  0  0  0  0  0  0  0  0  0
   -8.0980    3.0810    0.5280 C   0  0  0  0  0  0  0  0  0  0  0  0
   -6.6250    4.3970   -0.9750 C   0  0  0  0  0  0  0  0  0  0  0  0
   -2.0600   -2.9260    0.9490 O   0  0  0  0  0  0  0  0  0  0  0  0
   -1.3510   -3.5390   -0.1050 C   0  0  1  0  0  0  0  0  0  0  0  0
   -0.5640   -2.8390   -0.5110 H   0  0  0  0  0  0  0  0  0  0  0  0
   -0.6890   -4.7640    0.5220 C   0  0  0  0  0  0  0  0  0  0  0  0
   -2.3340   -3.9590   -1.2190 C   0  0  2  0  0  0  0  0  0  0  0  0
   -3.0760   -4.7100   -0.8340 H   0  0  0  0  0  0  0  0  0  0  0  0
   -1.5380   -4.4630   -2.2460 O   0  0  0  0  0  0  0  0  0  0  0  0
   -3.0690   -2.6970   -1.7360 C   0  0  1  0  0  0  0  0  0  0  0  0
   -2.3420   -1.9720   -2.1970 H   0  0  0  0  0  0  0  0  0  0  0  0
   -3.9580   -3.1750   -2.6990 O   0  0  0  0  0  0  0  0  0  0  0  0
   -3.7870   -2.0060   -0.5560 C   0  0  1  0  0  0  0  0  0  0  0  0
   -4.1990   -1.0090   -0.8780 H   0  0  0  0  0  0  0  0  0  0  0  0
   -4.8080   -2.8780   -0.1810 O   0  0  0  0  0  0  0  0  0  0  0  0
    0.3440   -1.4600    2.2440 H   0  0  0  0  0  0  0  0  0  0  0  0
    0.3270   -1.7490    0.5140 H   0  0  0  0  0  0  0  0  0  0  0  0
    3.1590   -0.9700    2.5700 H   0  0  0  0  0  0  0  0  0  0  0  0
    2.6790   -2.2820    1.5010 H   0  0  0  0  0  0  0  0  0  0  0  0
    5.1040   -2.4500    1.7410 H   0  0  0  0  0  0  0  0  0  0  0  0
    7.1620   -2.0620    0.7660 H   0  0  0  0  0  0  0  0  0  0  0  0
    6.8630   -1.7130   -0.9150 H   0  0  0  0  0  0  0  0  0  0  0  0
    9.3940   -1.0470    0.4140 H   0  0  0  0  0  0  0  0  0  0  0  0
    8.0060    1.8760   -0.8070 H   0  0  0  0  0  0  0  0  0  0  0  0
    7.3390    0.6370   -1.8440 H   0  0  0  0  0  0  0  0  0  0  0  0
    5.9490    2.0350    0.5450 H   0  0  0  0  0  0  0  0  0  0  0  0
    5.5830    2.2470   -1.1690 H   0  0  0  0  0  0  0  0  0  0  0  0
    5.4010   -0.4510   -2.3280 H   0  0  0  0  0  0  0  0  0  0  0  0
    3.8150   -0.9610   -1.7510 H   0  0  0  0  0  0  0  0  0  0  0  0
    4.0500    0.6840   -2.3610 H   0  0  0  0  0  0  0  0  0  0  0  0
    3.4320    3.8980   -0.5880 H   0  0  0  0  0  0  0  0  0  0  0  0
    1.4640    2.8680    1.0570 H   0  0  0  0  0  0  0  0  0  0  0  0
    1.0600    3.1320   -0.6290 H   0  0  0  0  0  0  0  0  0  0  0  0
    1.4480    0.0980   -1.6850 H   0  0  0  0  0  0  0  0  0  0  0  0
   -0.2410   -0.2510   -1.4420 H   0  0  0  0  0  0  0  0  0  0  0  0
    0.2370    1.3160   -2.0770 H   0  0  0  0  0  0  0  0  0  0  0  0
   -0.5870    3.4270   -1.1020 H   0  0  0  0  0  0  0  0  0  0  0  0
   -2.2560    3.9580   -0.9050 H   0  0  0  0  0  0  0  0  0  0  0  0
   -1.1490    3.9650    0.4710 H   0  0  0  0  0  0  0  0  0  0  0  0
   -2.9370    3.4870    1.8240 H   0  0  0  0  0  0  0  0  0  0  0  0
   -3.9910    3.6500   -0.4720 H   0  0  0  0  0  0  0  0  0  0  0  0
   -4.4370    2.0740   -1.1110 H   0  0  0  0  0  0  0  0  0  0  0  0
   -5.8280    1.7260    1.1120 H   0  0  0  0  0  0  0  0  0  0  0  0
   -5.5550    3.4250    1.4420 H   0  0  0  0  0  0  0  0  0  0  0  0
   -6.9190    2.2580   -1.0880 H   0  0  0  0  0  0  0  0  0  0  0  0
   -8.0750    3.8630    1.2970 H   0  0  0  0  0  0  0  0  0  0  0  0
   -8.9880    3.2770   -0.0890 H   0  0  0  0  0  0  0  0  0  0  0  0
   -8.2840    2.1330    1.0450 H   0  0  0  0  0  0  0  0  0  0  0  0
   -6.3980    5.1950   -0.2540 H   0  0  0  0  0  0  0  0  0  0  0  0
   -5.8130    4.3850   -1.7220 H   0  0  0  0  0  0  0  0  0  0  0  0
   -7.5320    4.7140   -1.5190 H   0  0  0  0  0  0  0  0  0  0  0  0
   -1.4170   -5.4560    0.9690 H   0  0  0  0  0  0  0  0  0  0  0  0
   -0.1200   -5.3290   -0.2300 H   0  0  0  0  0  0  0  0  0  0  0  0
    0.0150   -4.4810    1.3180 H   0  0  0  0  0  0  0  0  0  0  0  0
   -2.0960   -5.0170   -2.8040 H   0  0  0  0  0  0  0  0  0  0  0  0
   -4.6380   -2.5100   -2.8420 H   0  0  0  0  0  0  0  0  0  0  0  0
   -5.3020   -2.4670    0.5340 H   0  0  0  0  0  0  0  0  0  0  0  0
  2  1  1  1
  2 53  1  0
  2  3  1  0
  2 43  1  0
  3  4  1  0
  4 30  1  0
  4  6  1  0
  4  5  1  1
  6 57  1  0
  6  7  1  0
  6 56  1  0
  7 28  1  0
  7  9  1  0
  7  8  1  1
  9 10  1  6
  9 22  1  0
  9 11  1  0
 11 12  1  0
 11 59  1  0
 11 58  1  0
 12 13  2  0
 12 60  1  0
 13 20  1  0
 13 14  1  0
 14 62  1  0
 14 15  1  0
 14 61  1  0
 15 18  1  0
 15 17  1  0
 15 16  1  1
 17 63  1  0
 18 65  1  0
 18 64  1  0
 18 19  1  0
 19 67  1  0
 19 20  1  0
 19 66  1  0
 20 21  1  6
 20 22  1  0
 21 70  1  0
 21 68  1  0
 21 69  1  0
 22 24  1  0
 22 23  1  1
 24 25  1  6
 24 26  1  0
 24 27  1  0
 26 71  1  0
 27 73  1  0
 27 28  1  0
 27 72  1  0
 28 29  1  6
 28 30  1  0
 29 76  1  0
 29 74  1  0
 29 75  1  0
 30 32  1  0
 30 31  1  1
 32 33  1  6
 32 34  1  0
 32 35  1  0
 34 77  1  0
 34 78  1  0
 34 79  1  0
 35 38  1  0
 35 36  1  1
 35 37  1  0
 37 80  1  0
 38 82  1  0
 38 81  1  0
 38 39  1  0
 39 40  1  0
 39 83  1  0
 39 84  1  0
 40 85  1  6
 40 42  1  0
 40 41  1  0
 41 87  1  0
 41 88  1  0
 41 86  1  0
 42 90  1  0
 42 91  1  0
 42 89  1  0
 43 44  1  0
 44 47  1  0
 44 45  1  6
 44 46  1  0
 46 93  1  0
 46 92  1  0
 46 94  1  0
 47 49  1  0
 47 50  1  0
 47 48  1  1
 49 95  1  0
 50 52  1  0
 50 51  1  6
 50 53  1  0
 52 96  1  0
 53 54  1  6
 53 55  1  0
 55 97  1  0
M  END
>  <id>  (590) 
694

>  <scaffolds>  (590) 
['C1=C2CCCCC2C2CCC3CCCC3C2C1', 'C1=CCCCC1', 'C1=CCC2CCCCC2C1', 'C1=C2CCCCC2C2CCC3CC(OC4CCCCO4)CC3C2C1', 'C1CCOCC1', 'C1CCCCC1', 'C1=C2CCCCC2CCC1']

>  <name>  (590) 
(22S)-Cholest-5-ene-3[beta],11[beta],16[beta],22-tetrol 16-O-[alpha]-L-rhamnopyranoside

>  <formula>  (590) 
C33H56O8

>  <SMILES>  (590) 
[H][C@@]5(O[C@H]4C[C@@]3([H])[C@]2([H])CC=C1C[C@@H](O)CC[C@]1(C)[C@@]2([H])[C@H](O)C[C@]3(C)[C@@]4([H])[C@H](C)[C@@H](O)CCC(C)C)O[C@@H](C)[C@H](O)[C@@H](O)[C@H]5O

>  <ChEMBL_id>  (590) 


>  <ZINC_id>  (590) 


>  <PubChem_id>  (590) 


>  <DrugBank_id>  (590) 


>  <CAS_no>  (590) 
145476-90-0

>  <references>  (590) 
[{'journal': {'name': 'Phytochemistry', 'id': 10}, 'title': 'Cholestane rhamnosides from the bulbs of Ornithogalum saundersiae', 'year': 1999, 'start_page': 445, 'volume': 52, 'issue': 3, 'doi': '10.1016/S0031-9422(99)00240-X', 'isbn': '', 'despositor': {'code': 'NFA', 'first_name': 'Ngonidzashe', 'last_name': 'Faya', 'id': 21}, 'refauthors_set': [{'author': {'first_name': 'Minpei', 'initials': 'M', 'last_name': 'Kuroda', 'id': 644}, 'first_author': True, 'id': 1186}, {'author': {'first_name': 'Yoshihiro ', 'initials': 'Y', 'last_name': 'Mimaki', 'id': 643}, 'first_author': None, 'id': 1187}, {'author': {'first_name': 'Yutaka', 'initials': 'Y', 'last_name': 'Sashida', 'id': 645}, 'first_author': None, 'id': 1188}], 'id': 342}]

>  <classifications>  (590) 
[{'classification': 'Steroids and steroid derivatives (Classyfire)', 'id': 942}]

>  <molecular_mass>  (590) 
580.79

$$$$
SANC00695_minRM1.pdb
     RDKit          3D

 95 99  0  0  1  0  0  0  0  0999 V2000
    3.3750   -1.5500   -1.5850 H   0  0  0  0  0  0  0  0  0  0  0  0
    2.8530   -1.8360   -0.6290 C   0  0  2  0  0  0  0  0  0  0  0  0
    2.0010   -0.8470   -0.1210 O   0  0  0  0  0  0  0  0  0  0  0  0
    1.1810   -0.2080   -1.0730 C   0  0  1  0  0  0  0  0  0  0  0  0
    1.6710   -0.1620   -2.0820 H   0  0  0  0  0  0  0  0  0  0  0  0
   -0.1710   -0.9540   -1.1600 C   0  0  0  0  0  0  0  0  0  0  0  0
   -1.2130    0.1440   -0.9890 C   0  0  1  0  0  0  0  0  0  0  0  0
   -1.3470    0.6590   -1.9790 H   0  0  0  0  0  0  0  0  0  0  0  0
   -2.5760   -0.3090   -0.4970 C   0  0  2  0  0  0  0  0  0  0  0  0
   -2.4710   -0.8020    0.5070 H   0  0  0  0  0  0  0  0  0  0  0  0
   -3.1730   -1.3160   -1.4800 C   0  0  0  0  0  0  0  0  0  0  0  0
   -4.6040   -1.5780   -1.1890 C   0  0  0  0  0  0  0  0  0  0  0  0
   -5.3570   -0.8080   -0.4000 C   0  0  0  0  0  0  0  0  0  0  0  0
   -6.7690   -1.2050   -0.1260 C   0  0  0  0  0  0  0  0  0  0  0  0
   -7.6990   -0.0030   -0.3330 C   0  0  1  0  0  0  0  0  0  0  0  0
   -7.6320    0.3580   -1.3950 H   0  0  0  0  0  0  0  0  0  0  0  0
   -9.0170   -0.3300    0.0030 O   0  0  0  0  0  0  0  0  0  0  0  0
   -7.2840    1.1020    0.6370 C   0  0  0  0  0  0  0  0  0  0  0  0
   -5.8630    1.5430    0.3170 C   0  0  0  0  0  0  0  0  0  0  0  0
   -4.8300    0.4070    0.3110 C   0  0  1  0  0  0  0  0  0  0  0  0
   -4.5220   -0.0160    1.7510 C   0  0  0  0  0  0  0  0  0  0  0  0
   -3.5270    0.8920   -0.3890 C   0  0  1  0  0  0  0  0  0  0  0  0
   -3.7850    1.2280   -1.4290 H   0  0  0  0  0  0  0  0  0  0  0  0
   -2.8790    2.0820    0.3550 C   0  0  2  0  0  0  0  0  0  0  0  0
   -2.9540    1.9130    1.4690 H   0  0  0  0  0  0  0  0  0  0  0  0
   -3.6280    3.2080   -0.0270 O   0  0  0  0  0  0  0  0  0  0  0  0
   -1.4050    2.3750   -0.0120 C   0  0  0  0  0  0  0  0  0  0  0  0
   -0.5550    1.1130    0.0120 C   0  0  1  0  0  0  0  0  0  0  0  0
   -0.4910    0.5440    1.4230 C   0  0  0  0  0  0  0  0  0  0  0  0
    0.8640    1.2440   -0.5920 C   0  0  1  0  0  0  0  0  0  0  0  0
    0.7900    1.8760   -1.5180 H   0  0  0  0  0  0  0  0  0  0  0  0
    1.9420    1.8700    0.2950 C   0  0  2  0  0  0  0  0  0  0  0  0
    2.0900    1.2570    1.2190 H   0  0  0  0  0  0  0  0  0  0  0  0
    1.5530    3.2880    0.7030 C   0  0  0  0  0  0  0  0  0  0  0  0
    3.2970    1.9080   -0.4630 C   0  0  1  0  0  0  0  0  0  0  0  0
    3.5650    0.9000   -0.8700 H   0  0  0  0  0  0  0  0  0  0  0  0
    3.2100    2.6810   -1.6180 O   0  0  0  0  0  0  0  0  0  0  0  0
    4.4290    2.3900    0.4710 C   0  0  0  0  0  0  0  0  0  0  0  0
    5.6840    2.5870   -0.3000 C   0  0  0  0  0  0  0  0  0  0  0  0
    6.4420    3.6840   -0.2580 C   0  0  0  0  0  0  0  0  0  0  0  0
    6.1210    4.8760    0.5700 C   0  0  0  0  0  0  0  0  0  0  0  0
    7.6840    3.7920   -1.0720 C   0  0  0  0  0  0  0  0  0  0  0  0
    2.1000   -2.9390   -1.0120 O   0  0  0  0  0  0  0  0  0  0  0  0
    1.4140   -3.6240    0.0100 C   0  0  1  0  0  0  0  0  0  0  0  0
    0.6250   -2.9610    0.4690 H   0  0  0  0  0  0  0  0  0  0  0  0
    0.7600   -4.8120   -0.6910 C   0  0  0  0  0  0  0  0  0  0  0  0
    2.4090   -4.1090    1.0880 C   0  0  2  0  0  0  0  0  0  0  0  0
    3.1390   -4.8420    0.6510 H   0  0  0  0  0  0  0  0  0  0  0  0
    1.6290   -4.6450    2.1120 O   0  0  0  0  0  0  0  0  0  0  0  0
    3.1610   -2.8840    1.6630 C   0  0  1  0  0  0  0  0  0  0  0  0
    2.4470   -2.1830    2.1760 H   0  0  0  0  0  0  0  0  0  0  0  0
    4.0700   -3.4270    2.5700 O   0  0  0  0  0  0  0  0  0  0  0  0
    3.8660   -2.1300    0.5130 C   0  0  1  0  0  0  0  0  0  0  0  0
    4.2950   -1.1580    0.8860 H   0  0  0  0  0  0  0  0  0  0  0  0
    4.8700   -2.9880    0.0680 O   0  0  0  0  0  0  0  0  0  0  0  0
   -0.2770   -1.5070   -2.1130 H   0  0  0  0  0  0  0  0  0  0  0  0
   -0.2730   -1.7350   -0.3740 H   0  0  0  0  0  0  0  0  0  0  0  0
   -3.0790   -0.9670   -2.5340 H   0  0  0  0  0  0  0  0  0  0  0  0
   -2.6000   -2.2680   -1.4490 H   0  0  0  0  0  0  0  0  0  0  0  0
   -5.0160   -2.4670   -1.6810 H   0  0  0  0  0  0  0  0  0  0  0  0
   -7.0930   -2.0590   -0.7570 H   0  0  0  0  0  0  0  0  0  0  0  0
   -6.8550   -1.5990    0.9110 H   0  0  0  0  0  0  0  0  0  0  0  0
   -9.3120   -1.0070   -0.6110 H   0  0  0  0  0  0  0  0  0  0  0  0
   -7.9800    1.9650    0.5610 H   0  0  0  0  0  0  0  0  0  0  0  0
   -7.3910    0.7640    1.6880 H   0  0  0  0  0  0  0  0  0  0  0  0
   -5.8580    2.0700   -0.6590 H   0  0  0  0  0  0  0  0  0  0  0  0
   -5.5730    2.3140    1.0640 H   0  0  0  0  0  0  0  0  0  0  0  0
   -5.4210   -0.2740    2.3250 H   0  0  0  0  0  0  0  0  0  0  0  0
   -3.8620   -0.8970    1.7880 H   0  0  0  0  0  0  0  0  0  0  0  0
   -4.0080    0.7830    2.3140 H   0  0  0  0  0  0  0  0  0  0  0  0
   -3.3490    3.9460    0.5250 H   0  0  0  0  0  0  0  0  0  0  0  0
   -1.3500    2.8670   -1.0080 H   0  0  0  0  0  0  0  0  0  0  0  0
   -1.0130    3.1410    0.6900 H   0  0  0  0  0  0  0  0  0  0  0  0
   -1.4560    0.1360    1.7640 H   0  0  0  0  0  0  0  0  0  0  0  0
    0.2240   -0.2850    1.5280 H   0  0  0  0  0  0  0  0  0  0  0  0
   -0.1990    1.3000    2.1670 H   0  0  0  0  0  0  0  0  0  0  0  0
    0.8010    3.3050    1.5040 H   0  0  0  0  0  0  0  0  0  0  0  0
    2.4130    3.8590    1.0940 H   0  0  0  0  0  0  0  0  0  0  0  0
    1.1410    3.8800   -0.1270 H   0  0  0  0  0  0  0  0  0  0  0  0
    3.2170    3.6110   -1.3710 H   0  0  0  0  0  0  0  0  0  0  0  0
    4.1100    3.3010    1.0250 H   0  0  0  0  0  0  0  0  0  0  0  0
    4.6050    1.6360    1.2680 H   0  0  0  0  0  0  0  0  0  0  0  0
    5.9640    1.7390   -0.9330 H   0  0  0  0  0  0  0  0  0  0  0  0
    5.9940    4.6230    1.6320 H   0  0  0  0  0  0  0  0  0  0  0  0
    6.9070    5.6470    0.5430 H   0  0  0  0  0  0  0  0  0  0  0  0
    5.1960    5.3690    0.2370 H   0  0  0  0  0  0  0  0  0  0  0  0
    7.5930    4.5880   -1.8270 H   0  0  0  0  0  0  0  0  0  0  0  0
    8.5580    4.0370   -0.4490 H   0  0  0  0  0  0  0  0  0  0  0  0
    7.9390    2.8710   -1.6140 H   0  0  0  0  0  0  0  0  0  0  0  0
    1.4930   -5.4690   -1.1800 H   0  0  0  0  0  0  0  0  0  0  0  0
    0.1930   -5.4270    0.0210 H   0  0  0  0  0  0  0  0  0  0  0  0
    0.0580   -4.4860   -1.4710 H   0  0  0  0  0  0  0  0  0  0  0  0
    2.0890   -5.4150    2.4580 H   0  0  0  0  0  0  0  0  0  0  0  0
    4.7040   -2.7430    2.8030 H   0  0  0  0  0  0  0  0  0  0  0  0
    5.3320   -2.5550   -0.6560 H   0  0  0  0  0  0  0  0  0  0  0  0
  2  1  1  6
  2 43  1  0
  2  3  1  0
  2 53  1  0
  3  4  1  0
  4  5  1  6
  4  6  1  0
  4 30  1  0
  6 56  1  0
  6  7  1  0
  6 57  1  0
  7  8  1  6
  7  9  1  0
  7 28  1  0
  9 11  1  0
  9 22  1  0
  9 10  1  1
 11 58  1  0
 11 59  1  0
 11 12  1  0
 12 60  1  0
 12 13  2  0
 13 14  1  0
 13 20  1  0
 14 61  1  0
 14 15  1  0
 14 62  1  0
 15 16  1  6
 15 17  1  0
 15 18  1  0
 17 63  1  0
 18 19  1  0
 18 64  1  0
 18 65  1  0
 19 66  1  0
 19 20  1  0
 19 67  1  0
 20 22  1  0
 20 21  1  1
 21 69  1  0
 21 70  1  0
 21 68  1  0
 22 23  1  6
 22 24  1  0
 24 26  1  0
 24 27  1  0
 24 25  1  1
 26 71  1  0
 27 72  1  0
 27 28  1  0
 27 73  1  0
 28 30  1  0
 28 29  1  1
 29 75  1  0
 29 74  1  0
 29 76  1  0
 30 31  1  6
 30 32  1  0
 32 35  1  0
 32 34  1  0
 32 33  1  1
 34 79  1  0
 34 78  1  0
 34 77  1  0
 35 37  1  0
 35 36  1  6
 35 38  1  0
 37 80  1  0
 38 39  1  0
 38 81  1  0
 38 82  1  0
 39 83  1  0
 39 40  2  0
 40 42  1  0
 40 41  1  0
 41 86  1  0
 41 85  1  0
 41 84  1  0
 42 87  1  0
 42 89  1  0
 42 88  1  0
 43 44  1  0
 44 46  1  0
 44 45  1  1
 44 47  1  0
 46 92  1  0
 46 90  1  0
 46 91  1  0
 47 48  1  6
 47 50  1  0
 47 49  1  0
 49 93  1  0
 50 53  1  0
 50 51  1  1
 50 52  1  0
 52 94  1  0
 53 55  1  0
 53 54  1  1
 55 95  1  0
M  END
>  <id>  (591) 
695

>  <scaffolds>  (591) 
['C1=C2CCCCC2C2CCC3CCCC3C2C1', 'C1=CCCCC1', 'C1=CCC2CCCCC2C1', 'C1=C2CCCCC2C2CCC3CC(OC4CCCCO4)CC3C2C1', 'C1CCOCC1', 'C1CCCCC1', 'C1=C2CCCCC2CCC1']

>  <name>  (591) 
(22S)-Cholesta-5,24-diene-3[beta],11[beta],16[beta],22-tetrol 16-O-[alpha]-L-rhamnopyranoside

>  <formula>  (591) 
C33H54O8

>  <SMILES>  (591) 
[H][C@@]5(O[C@H]4C[C@@]3([H])[C@]2([H])CC=C1C[C@@H](O)CC[C@]1(C)[C@@]2([H])[C@H](O)C[C@]3(C)[C@@]4([H])[C@H](C)[C@@H](O)C/C=C(C)/C)O[C@@H](C)[C@H](O)[C@@H](O)[C@H]5O

>  <ChEMBL_id>  (591) 


>  <ZINC_id>  (591) 


>  <PubChem_id>  (591) 


>  <DrugBank_id>  (591) 


>  <CAS_no>  (591) 
145476-93-3

>  <references>  (591) 
[{'journal': {'name': 'Phytochemistry', 'id': 10}, 'title': 'Cholestane rhamnosides from the bulbs of Ornithogalum saundersiae', 'year': 1999, 'start_page': 445, 'volume': 52, 'issue': 3, 'doi': '10.1016/S0031-9422(99)00240-X', 'isbn': '', 'despositor': {'code': 'NFA', 'first_name': 'Ngonidzashe', 'last_name': 'Faya', 'id': 21}, 'refauthors_set': [{'author': {'first_name': 'Minpei', 'initials': 'M', 'last_name': 'Kuroda', 'id': 644}, 'first_author': True, 'id': 1186}, {'author': {'first_name': 'Yoshihiro ', 'initials': 'Y', 'last_name': 'Mimaki', 'id': 643}, 'first_author': None, 'id': 1187}, {'author': {'first_name': 'Yutaka', 'initials': 'Y', 'last_name': 'Sashida', 'id': 645}, 'first_author': None, 'id': 1188}], 'id': 342}]

>  <classifications>  (591) 
[{'classification': 'Steroids and steroid derivatives (Classyfire)', 'id': 942}]

>  <molecular_mass>  (591) 
578.77

$$$$
SANC00696_minRM1.pdb
     RDKit          3D

 48 50  0  0  1  0  0  0  0  0999 V2000
   -5.3430   -0.1250    0.9540 C   0  0  0  0  0  0  0  0  0  0  0  0
   -4.7110   -0.3120   -0.2930 O   0  0  0  0  0  0  0  0  0  0  0  0
   -3.3510   -0.2560   -0.1970 C   0  0  0  0  0  0  0  0  0  0  0  0
   -2.6800    0.9200   -0.5510 C   0  0  0  0  0  0  0  0  0  0  0  0
   -3.4900    1.9450   -0.8810 O   0  0  0  0  0  0  0  0  0  0  0  0
   -1.2760    0.9850   -0.6000 C   0  0  0  0  0  0  0  0  0  0  0  0
   -0.5670    2.2280   -1.0300 C   0  0  0  0  0  0  0  0  0  0  0  0
   -0.3950    3.1530    0.1270 C   0  0  0  0  0  0  0  0  0  0  0  0
    0.7780    3.5850    0.5920 C   0  0  0  0  0  0  0  0  0  0  0  0
    0.8390    4.5450    1.7300 C   0  0  0  0  0  0  0  0  0  0  0  0
    2.0940    3.1500    0.0490 C   0  0  0  0  0  0  0  0  0  0  0  0
   -0.5760   -0.1700   -0.2550 C   0  0  0  0  0  0  0  0  0  0  0  0
    0.7810   -0.0990   -0.3210 O   0  0  0  0  0  0  0  0  0  0  0  0
    1.4830   -1.0520    0.4610 C   0  0  2  0  0  0  0  0  0  0  0  0
    1.2950   -0.8250    1.5470 H   0  0  0  0  0  0  0  0  0  0  0  0
    2.9350   -0.8940    0.1100 C   0  0  0  0  0  0  0  0  0  0  0  0
    3.3340   -0.6500   -1.2000 C   0  0  0  0  0  0  0  0  0  0  0  0
    4.6870   -0.5250   -1.4970 C   0  0  0  0  0  0  0  0  0  0  0  0
    5.6380   -0.6640   -0.4940 C   0  0  0  0  0  0  0  0  0  0  0  0
    5.2370   -0.9180    0.8130 C   0  0  0  0  0  0  0  0  0  0  0  0
    3.8860   -1.0270    1.1190 C   0  0  0  0  0  0  0  0  0  0  0  0
    1.0300   -2.4770    0.1340 C   0  0  0  0  0  0  0  0  0  0  0  0
   -0.4540   -2.5820    0.3160 C   0  0  0  0  0  0  0  0  0  0  0  0
   -1.0140   -3.6380    0.6040 O   0  0  0  0  0  0  0  0  0  0  0  0
   -1.2150   -1.3700    0.0880 C   0  0  0  0  0  0  0  0  0  0  0  0
   -2.6190   -1.4030    0.1360 C   0  0  0  0  0  0  0  0  0  0  0  0
   -3.3170   -2.4740    0.5190 O   0  0  0  0  0  0  0  0  0  0  0  0
   -5.1380    0.8640    1.3930 H   0  0  0  0  0  0  0  0  0  0  0  0
   -6.4150   -0.2010    0.7180 H   0  0  0  0  0  0  0  0  0  0  0  0
   -5.0830   -0.9020    1.6920 H   0  0  0  0  0  0  0  0  0  0  0  0
   -3.0230    2.7880   -0.7540 H   0  0  0  0  0  0  0  0  0  0  0  0
    0.3900    1.9820   -1.5370 H   0  0  0  0  0  0  0  0  0  0  0  0
   -1.1280    2.7460   -1.8430 H   0  0  0  0  0  0  0  0  0  0  0  0
   -1.3270    3.4880    0.5950 H   0  0  0  0  0  0  0  0  0  0  0  0
    1.1090    4.0330    2.6650 H   0  0  0  0  0  0  0  0  0  0  0  0
    1.5890    5.3400    1.5620 H   0  0  0  0  0  0  0  0  0  0  0  0
   -0.1170    5.0670    1.9240 H   0  0  0  0  0  0  0  0  0  0  0  0
    2.2520    3.5180   -0.9770 H   0  0  0  0  0  0  0  0  0  0  0  0
    2.9490    3.5120    0.6430 H   0  0  0  0  0  0  0  0  0  0  0  0
    2.1900    2.0520    0.0250 H   0  0  0  0  0  0  0  0  0  0  0  0
    2.5940   -0.5470   -2.0000 H   0  0  0  0  0  0  0  0  0  0  0  0
    5.0010   -0.3170   -2.5230 H   0  0  0  0  0  0  0  0  0  0  0  0
    6.7030   -0.5740   -0.7320 H   0  0  0  0  0  0  0  0  0  0  0  0
    5.9850   -1.0280    1.6040 H   0  0  0  0  0  0  0  0  0  0  0  0
    3.5820   -1.2190    2.1530 H   0  0  0  0  0  0  0  0  0  0  0  0
    1.2830   -2.7520   -0.9130 H   0  0  0  0  0  0  0  0  0  0  0  0
    1.5780   -3.2120    0.7600 H   0  0  0  0  0  0  0  0  0  0  0  0
   -2.7350   -3.2700    0.5420 H   0  0  0  0  0  0  0  0  0  0  0  0
  1  2  1  0
  1 29  1  0
  1 28  1  0
  1 30  1  0
  2  3  1  0
  3  4  2  0
  3 26  1  0
  4  5  1  0
  4  6  1  0
  5 31  1  0
  6  7  1  0
  6 12  2  0
  7 33  1  0
  7 32  1  0
  7  8  1  0
  8  9  2  0
  8 34  1  0
  9 11  1  0
  9 10  1  0
 10 36  1  0
 10 37  1  0
 10 35  1  0
 11 38  1  0
 11 40  1  0
 11 39  1  0
 12 13  1  0
 12 25  1  0
 13 14  1  0
 14 16  1  0
 14 22  1  0
 14 15  1  1
 16 17  2  0
 16 21  1  0
 17 41  1  0
 17 18  1  0
 18 42  1  0
 18 19  2  0
 19 43  1  0
 19 20  1  0
 20 21  2  0
 20 44  1  0
 21 45  1  0
 22 46  1  0
 22 23  1  0
 22 47  1  0
 23 25  1  0
 23 24  2  0
 25 26  2  0
 26 27  1  0
 27 48  1  0
M  END
>  <id>  (592) 
696

>  <scaffolds>  (592) 
['c1ccccc1', 'O=C1CC(c2ccccc2)Oc2ccccc21', 'c1ccc(C2CCc3ccccc3O2)cc1', 'O=C(CCc1ccccc1)c1ccccc1']

>  <name>  (592) 
Agrandol

>  <formula>  (592) 
C21H22O5

>  <SMILES>  (592) 
COc3c(O)c(C/C=C(C)\C)c2O[C@H](c1ccccc1)CC(=O)c2c3O

>  <ChEMBL_id>  (592) 
CHEMBL491588

>  <ZINC_id>  (592) 


>  <PubChem_id>  (592) 
 15895373

>  <DrugBank_id>  (592) 


>  <CAS_no>  (592) 
253786-74-2

>  <references>  (592) 
[{'journal': {'name': 'Journal of Natural Products', 'id': 5}, 'title': 'Bioactive Constituents of Cedrelopsis microfoliata', 'year': 2002, 'start_page': 1349, 'volume': 65, 'issue': 9, 'doi': '10.1021/np0200562', 'isbn': '', 'despositor': {'code': 'NFA', 'first_name': 'Ngonidzashe', 'last_name': 'Faya', 'id': 21}, 'refauthors_set': [{'author': {'first_name': 'Neil', 'initials': 'NA', 'last_name': 'Koorbanally', 'id': 699}, 'first_author': True, 'id': 1046}, {'author': {'first_name': 'Milijaona', 'initials': 'M', 'last_name': 'Randrianarivelojosia', 'id': 726}, 'first_author': None, 'id': 1136}, {'author': {'first_name': 'Dulcie', 'initials': 'DA', 'last_name': 'Mulholland', 'id': 525}, 'first_author': None, 'id': 1137}, {'author': {'first_name': 'Linda', 'initials': 'L', 'last_name': 'Quarles van Ufford,', 'id': 727}, 'first_author': None, 'id': 1138}, {'author': {'first_name': 'Albert', 'initials': 'AJJ', 'last_name': 'van den Berg', 'id': 728}, 'first_author': None, 'id': 1139}], 'id': 349}]

>  <classifications>  (592) 
[{'classification': 'Flavonoids', 'id': 776}, {'classification': 'Flavonoids (Classyfire)', 'id': 941}]

>  <molecular_mass>  (592) 
354.4

$$$$
SANC00697_minRM1.pdb
     RDKit          3D

 54 55  0  0  1  0  0  0  0  0999 V2000
    2.2480    1.1570   -1.4160 C   0  0  0  0  0  0  0  0  0  0  0  0
    2.0710    1.7550   -0.0660 C   0  0  0  0  0  0  0  0  0  0  0  0
    0.9670    2.4290    0.2740 C   0  0  0  0  0  0  0  0  0  0  0  0
   -0.1610    2.6520   -0.6760 C   0  0  0  0  0  0  0  0  0  0  0  0
   -1.4310    3.1780   -0.0000 C   0  0  0  0  0  0  0  0  0  0  0  0
   -2.6330    2.2150   -0.1570 C   0  0  2  0  0  0  0  0  0  0  0  0
   -3.1140    2.1590   -1.6090 C   0  0  0  0  0  0  0  0  0  0  0  0
   -3.6410    2.7870    0.6350 O   0  0  0  0  0  0  0  0  0  0  0  0
   -2.2420    0.8790    0.4190 C   0  0  0  0  0  0  0  0  0  0  0  0
   -1.9120   -0.1880   -0.3000 C   0  0  0  0  0  0  0  0  0  0  0  0
   -1.3360   -1.4510    0.2980 C   0  0  1  0  0  0  0  0  0  0  0  0
   -0.9840   -1.2780    1.6390 O   0  0  0  0  0  0  0  0  0  0  0  0
   -2.3890   -2.5880    0.3100 C   0  0  1  0  0  0  0  0  0  0  0  0
   -3.5720   -2.2290    1.2000 C   0  0  0  0  0  0  0  0  0  0  0  0
   -2.8880   -2.8830   -1.0990 C   0  0  0  0  0  0  0  0  0  0  0  0
   -0.0940   -1.8390   -0.5500 C   0  0  0  0  0  0  0  0  0  0  0  0
    1.0030   -2.5780    0.2280 C   0  0  0  0  0  0  0  0  0  0  0  0
    2.0870   -1.6280    0.5530 C   0  0  0  0  0  0  0  0  0  0  0  0
    2.1460   -0.6470    1.4600 C   0  0  0  0  0  0  0  0  0  0  0  0
    3.4390    0.1160    1.2810 C   0  0  2  0  0  0  0  0  0  0  0  0
    4.0980    0.0390    2.1830 H   0  0  0  0  0  0  0  0  0  0  0  0
    3.2030    1.5820    0.8950 C   0  0  0  0  0  0  0  0  0  0  0  0
    4.1290   -0.5470    0.2270 O   0  0  0  0  0  0  0  0  0  0  0  0
    3.3460   -1.5790   -0.2360 C   0  0  0  0  0  0  0  0  0  0  0  0
    3.7670   -2.2560   -1.1440 O   0  0  0  0  0  0  0  0  0  0  0  0
    1.6450    0.2330   -1.5130 H   0  0  0  0  0  0  0  0  0  0  0  0
    1.9360    1.8360   -2.2250 H   0  0  0  0  0  0  0  0  0  0  0  0
    3.2900    0.8920   -1.6530 H   0  0  0  0  0  0  0  0  0  0  0  0
    0.8600    2.8670    1.2720 H   0  0  0  0  0  0  0  0  0  0  0  0
    0.1750    3.3720   -1.4570 H   0  0  0  0  0  0  0  0  0  0  0  0
   -0.3620    1.7170   -1.2440 H   0  0  0  0  0  0  0  0  0  0  0  0
   -1.2660    3.3820    1.0800 H   0  0  0  0  0  0  0  0  0  0  0  0
   -1.7070    4.1710   -0.4140 H   0  0  0  0  0  0  0  0  0  0  0  0
   -2.3060    1.9420   -2.3210 H   0  0  0  0  0  0  0  0  0  0  0  0
   -3.8920    1.3980   -1.7620 H   0  0  0  0  0  0  0  0  0  0  0  0
   -3.5460    3.1210   -1.9260 H   0  0  0  0  0  0  0  0  0  0  0  0
   -4.4070    2.2070    0.5990 H   0  0  0  0  0  0  0  0  0  0  0  0
   -2.2090    0.8790    1.5170 H   0  0  0  0  0  0  0  0  0  0  0  0
   -2.0030   -0.2140   -1.3910 H   0  0  0  0  0  0  0  0  0  0  0  0
   -0.3150   -0.5840    1.6820 H   0  0  0  0  0  0  0  0  0  0  0  0
   -1.8910   -3.5080    0.7180 H   0  0  0  0  0  0  0  0  0  0  0  0
   -4.0470   -1.2820    0.9060 H   0  0  0  0  0  0  0  0  0  0  0  0
   -4.3540   -3.0020    1.1630 H   0  0  0  0  0  0  0  0  0  0  0  0
   -3.2870   -2.1250    2.2570 H   0  0  0  0  0  0  0  0  0  0  0  0
   -2.0610   -3.0280   -1.8140 H   0  0  0  0  0  0  0  0  0  0  0  0
   -3.4890   -3.8030   -1.1270 H   0  0  0  0  0  0  0  0  0  0  0  0
   -3.5280   -2.0860   -1.5050 H   0  0  0  0  0  0  0  0  0  0  0  0
   -0.4240   -2.4590   -1.4140 H   0  0  0  0  0  0  0  0  0  0  0  0
    0.3470   -0.9340   -1.0360 H   0  0  0  0  0  0  0  0  0  0  0  0
    0.6200   -3.0730    1.1450 H   0  0  0  0  0  0  0  0  0  0  0  0
    1.4070   -3.4160   -0.3800 H   0  0  0  0  0  0  0  0  0  0  0  0
    1.4200   -0.3700    2.2200 H   0  0  0  0  0  0  0  0  0  0  0  0
    4.1330    2.0080    0.4580 H   0  0  0  0  0  0  0  0  0  0  0  0
    3.0420    2.1680    1.8250 H   0  0  0  0  0  0  0  0  0  0  0  0
  1 27  1  0
  1 28  1  0
  1 26  1  0
  1  2  1  0
  2  3  2  0
  2 22  1  0
  3  4  1  0
  3 29  1  0
  4 30  1  0
  4 31  1  0
  4  5  1  0
  5 33  1  0
  5  6  1  0
  5 32  1  0
  6  7  1  0
  6  9  1  0
  6  8  1  1
  7 34  1  0
  7 36  1  0
  7 35  1  0
  8 37  1  0
  9 10  2  0
  9 38  1  0
 10 39  1  0
 10 11  1  0
 11 16  1  0
 11 13  1  0
 11 12  1  1
 12 40  1  0
 13 15  1  0
 13 41  1  1
 13 14  1  0
 14 42  1  0
 14 43  1  0
 14 44  1  0
 15 45  1  0
 15 47  1  0
 15 46  1  0
 16 48  1  0
 16 49  1  0
 16 17  1  0
 17 51  1  0
 17 18  1  0
 17 50  1  0
 18 24  1  0
 18 19  2  0
 19 20  1  0
 19 52  1  0
 20 23  1  0
 20 22  1  0
 20 21  1  1
 22 53  1  0
 22 54  1  0
 23 24  1  0
 24 25  2  0
M  END
>  <id>  (593) 
697

>  <scaffolds>  (593) 
[]

>  <name>  (593) 
(-)-(1S*,4S*,10R*)-1,4-Dihydroxycembra-2E,7E,11Z-trien-20,10-olide (4)

>  <formula>  (593) 
C20H30O4

>  <SMILES>  (593) 
CC1=CCC[C@](C)(O)C=C[C@@](O)(C(C)C)CCC2=C[C@H](C1)OC2=O

>  <ChEMBL_id>  (593) 


>  <ZINC_id>  (593) 


>  <PubChem_id>  (593) 


>  <DrugBank_id>  (593) 


>  <CAS_no>  (593) 
1346224-13-2

>  <references>  (593) 
[{'journal': {'name': 'Journal of Natural Products', 'id': 5}, 'title': 'Cembranolides from the Leaves of Croton gratissimus', 'year': 2011, 'start_page': 2349, 'volume': 74, 'issue': None, 'doi': '10.1021/np2002012', 'isbn': '', 'despositor': {'code': 'NFA', 'first_name': 'Ngonidzashe', 'last_name': 'Faya', 'id': 21}, 'refauthors_set': [{'author': {'first_name': 'Moses', 'initials': 'MK', 'last_name': 'Langat', 'id': 730}, 'first_author': True, 'id': 1048}, {'author': {'first_name': 'Neil', 'initials': 'NR', 'last_name': 'Crouch', 'id': 524}, 'first_author': None, 'id': 1142}, {'author': {'first_name': 'Peter', 'initials': 'PJ', 'last_name': 'Smith', 'id': 490}, 'first_author': None, 'id': 1143}, {'author': {'first_name': 'Dulcie', 'initials': 'DA', 'last_name': 'Mulholland', 'id': 525}, 'first_author': None, 'id': 1144}], 'id': 351}]

>  <classifications>  (593) 
[{'classification': 'Cembranolide', 'id': 758}, {'classification': 'Phenol lipids (Classyfire)', 'id': 951}]

>  <molecular_mass>  (593) 
334.45

$$$$
SANC00698_minRM1.pdb
     RDKit          3D

 55 56  0  0  1  0  0  0  0  0999 V2000
   -1.0820    4.1490    0.6330 C   0  0  0  0  0  0  0  0  0  0  0  0
   -0.7720    3.2000   -0.2430 C   0  0  0  0  0  0  0  0  0  0  0  0
    0.6250    3.0050   -0.7250 C   0  0  0  0  0  0  0  0  0  0  0  0
    1.5140    2.5200    0.4240 C   0  0  1  0  0  0  0  0  0  0  0  0
    1.4850    3.2190    1.2980 H   0  0  0  0  0  0  0  0  0  0  0  0
    1.2050    1.1000    0.8460 C   0  0  0  0  0  0  0  0  0  0  0  0
    2.2860    0.3410    0.6460 C   0  0  0  0  0  0  0  0  0  0  0  0
    2.5970   -1.0600    0.9730 C   0  0  0  0  0  0  0  0  0  0  0  0
    1.3980   -1.9730    1.1920 C   0  0  0  0  0  0  0  0  0  0  0  0
    0.5630   -2.3820   -0.0530 C   0  0  2  0  0  0  0  0  0  0  0  0
    0.2210   -3.7360    0.0620 O   0  0  0  0  0  0  0  0  0  0  0  0
    1.3250   -2.2960   -1.3990 C   0  0  1  0  0  0  0  0  0  0  0  0
    2.5350   -3.2250   -1.4210 C   0  0  0  0  0  0  0  0  0  0  0  0
    0.4110   -2.6670   -2.5640 C   0  0  0  0  0  0  0  0  0  0  0  0
   -0.6840   -1.5190   -0.1040 C   0  0  0  0  0  0  0  0  0  0  0  0
   -1.7520   -1.7950    0.6380 C   0  0  0  0  0  0  0  0  0  0  0  0
   -3.0860   -1.0910    0.5910 C   0  0  1  0  0  0  0  0  0  0  0  0
   -4.1140   -2.1050    0.0570 C   0  0  0  0  0  0  0  0  0  0  0  0
   -3.4400   -0.6560    1.8730 O   0  0  0  0  0  0  0  0  0  0  0  0
   -3.1200    0.1720   -0.2870 C   0  0  0  0  0  0  0  0  0  0  0  0
   -2.2860    1.3020    0.3040 C   0  0  0  0  0  0  0  0  0  0  0  0
   -1.8380    2.2830   -0.7940 C   0  0  1  0  0  0  0  0  0  0  0  0
   -1.4430    1.7230   -1.6880 H   0  0  0  0  0  0  0  0  0  0  0  0
   -2.9880    2.9950   -1.1500 O   0  0  0  0  0  0  0  0  0  0  0  0
    3.3400    1.2130    0.0620 C   0  0  0  0  0  0  0  0  0  0  0  0
    4.4720    0.9920   -0.2980 O   0  0  0  0  0  0  0  0  0  0  0  0
    2.8580    2.4950   -0.0470 O   0  0  0  0  0  0  0  0  0  0  0  0
   -2.0910    4.3150    1.0010 H   0  0  0  0  0  0  0  0  0  0  0  0
   -0.3620    4.8470    1.0490 H   0  0  0  0  0  0  0  0  0  0  0  0
    0.6880    2.3000   -1.5810 H   0  0  0  0  0  0  0  0  0  0  0  0
    1.0250    3.9600   -1.1340 H   0  0  0  0  0  0  0  0  0  0  0  0
    0.2290    0.8280    1.2440 H   0  0  0  0  0  0  0  0  0  0  0  0
    3.3000   -1.4880    0.2200 H   0  0  0  0  0  0  0  0  0  0  0  0
    3.2090   -1.0380    1.9080 H   0  0  0  0  0  0  0  0  0  0  0  0
    1.7880   -2.8950    1.6840 H   0  0  0  0  0  0  0  0  0  0  0  0
    0.7270   -1.5270    1.9590 H   0  0  0  0  0  0  0  0  0  0  0  0
   -0.3380   -3.8480    0.8390 H   0  0  0  0  0  0  0  0  0  0  0  0
    1.6650   -1.2360   -1.5350 H   0  0  0  0  0  0  0  0  0  0  0  0
    2.2580   -4.2850   -1.3330 H   0  0  0  0  0  0  0  0  0  0  0  0
    3.1030   -3.1250   -2.3580 H   0  0  0  0  0  0  0  0  0  0  0  0
    3.2460   -3.0140   -0.6070 H   0  0  0  0  0  0  0  0  0  0  0  0
   -0.4640   -2.0090   -2.6590 H   0  0  0  0  0  0  0  0  0  0  0  0
    0.9420   -2.6060   -3.5260 H   0  0  0  0  0  0  0  0  0  0  0  0
    0.0230   -3.6930   -2.4850 H   0  0  0  0  0  0  0  0  0  0  0  0
   -0.6340   -0.6650   -0.7860 H   0  0  0  0  0  0  0  0  0  0  0  0
   -1.7280   -2.6380    1.3450 H   0  0  0  0  0  0  0  0  0  0  0  0
   -4.1300   -3.0400    0.6360 H   0  0  0  0  0  0  0  0  0  0  0  0
   -5.1370   -1.7030    0.0840 H   0  0  0  0  0  0  0  0  0  0  0  0
   -3.9020   -2.3840   -0.9840 H   0  0  0  0  0  0  0  0  0  0  0  0
   -3.5640   -1.4270    2.4340 H   0  0  0  0  0  0  0  0  0  0  0  0
   -2.8020   -0.0990   -1.3150 H   0  0  0  0  0  0  0  0  0  0  0  0
   -4.1670    0.5200   -0.4140 H   0  0  0  0  0  0  0  0  0  0  0  0
   -2.8610    1.8330    1.0930 H   0  0  0  0  0  0  0  0  0  0  0  0
   -1.3940    0.9140    0.8430 H   0  0  0  0  0  0  0  0  0  0  0  0
   -2.7230    3.6920   -1.7580 H   0  0  0  0  0  0  0  0  0  0  0  0
  1  2  2  0
  1 28  1  0
  1 29  1  0
  2 22  1  0
  2  3  1  0
  3 30  1  0
  3 31  1  0
  3  4  1  0
  4 27  1  0
  4  6  1  0
  4  5  1  1
  6  7  2  0
  6 32  1  0
  7 25  1  0
  7  8  1  0
  8 33  1  0
  8  9  1  0
  8 34  1  0
  9 10  1  0
  9 35  1  0
  9 36  1  0
 10 12  1  0
 10 15  1  0
 10 11  1  1
 11 37  1  0
 12 14  1  0
 12 38  1  6
 12 13  1  0
 13 40  1  0
 13 39  1  0
 13 41  1  0
 14 43  1  0
 14 42  1  0
 14 44  1  0
 15 45  1  0
 15 16  2  0
 16 17  1  0
 16 46  1  0
 17 20  1  0
 17 18  1  0
 17 19  1  1
 18 49  1  0
 18 48  1  0
 18 47  1  0
 19 50  1  0
 20 51  1  0
 20 52  1  0
 20 21  1  0
 21 22  1  0
 21 54  1  0
 21 53  1  0
 22 23  1  6
 22 24  1  0
 24 55  1  0
 25 26  2  0
 25 27  1  0
M  END
>  <id>  (594) 
698

>  <scaffolds>  (594) 
[]

>  <name>  (594) 
(-)-(1S*,4S*,7S*,10R*)-1,4,7-Trihydroxycembra-2E,8(19),11Z-trien-20,10-olide

>  <formula>  (594) 
C20H30O5

>  <SMILES>  (594) 
C=C1C[C@H]2C=C(CC[C@](O)(C(C)C)C=C[C@@](C)(O)CC[C@H]1O)C(=O)O2

>  <ChEMBL_id>  (594) 


>  <ZINC_id>  (594) 


>  <PubChem_id>  (594) 


>  <DrugBank_id>  (594) 


>  <CAS_no>  (594) 
1346224-17-6

>  <references>  (594) 
[{'journal': {'name': 'Journal of Natural Products', 'id': 5}, 'title': 'Cembranolides from the Leaves of Croton gratissimus', 'year': 2011, 'start_page': 2349, 'volume': 74, 'issue': None, 'doi': '10.1021/np2002012', 'isbn': '', 'despositor': {'code': 'NFA', 'first_name': 'Ngonidzashe', 'last_name': 'Faya', 'id': 21}, 'refauthors_set': [{'author': {'first_name': 'Moses', 'initials': 'MK', 'last_name': 'Langat', 'id': 730}, 'first_author': True, 'id': 1048}, {'author': {'first_name': 'Neil', 'initials': 'NR', 'last_name': 'Crouch', 'id': 524}, 'first_author': None, 'id': 1142}, {'author': {'first_name': 'Peter', 'initials': 'PJ', 'last_name': 'Smith', 'id': 490}, 'first_author': None, 'id': 1143}, {'author': {'first_name': 'Dulcie', 'initials': 'DA', 'last_name': 'Mulholland', 'id': 525}, 'first_author': None, 'id': 1144}], 'id': 351}]

>  <classifications>  (594) 
[{'classification': 'Cembranolide', 'id': 758}, {'classification': 'Phenol lipids (Classyfire)', 'id': 951}]

>  <molecular_mass>  (594) 
350.45

$$$$
SANC00699_minRM1.pdb
     RDKit          3D

 55 56  0  0  1  0  0  0  0  0999 V2000
    2.9190   -3.0150    0.5600 C   0  0  0  0  0  0  0  0  0  0  0  0
    2.2680   -1.7700   -0.0710 C   0  0  2  0  0  0  0  0  0  0  0  0
    2.1350   -0.7470    0.8680 O   0  0  0  0  0  0  0  0  0  0  0  0
    0.9310   -2.1970   -0.6290 C   0  0  0  0  0  0  0  0  0  0  0  0
   -0.0910   -2.5460    0.1480 C   0  0  0  0  0  0  0  0  0  0  0  0
   -1.3570   -3.1150   -0.4010 C   0  0  0  0  0  0  0  0  0  0  0  0
   -2.5890   -2.3170    0.0810 C   0  0  1  0  0  0  0  0  0  0  0  0
   -3.8710   -2.8680   -0.5630 C   0  0  0  0  0  0  0  0  0  0  0  0
   -2.6360   -2.5020    1.4640 O   0  0  0  0  0  0  0  0  0  0  0  0
   -2.3900   -0.8840   -0.3280 C   0  0  0  0  0  0  0  0  0  0  0  0
   -2.0960    0.0990    0.5150 C   0  0  0  0  0  0  0  0  0  0  0  0
   -1.7270    1.4990    0.0740 C   0  0  1  0  0  0  0  0  0  0  0  0
   -1.5550    1.5750   -1.3070 O   0  0  0  0  0  0  0  0  0  0  0  0
   -2.8990    2.4570    0.4090 C   0  0  1  0  0  0  0  0  0  0  0  0
   -2.5690    3.8940    0.0310 C   0  0  0  0  0  0  0  0  0  0  0  0
   -4.1730    2.0210   -0.3070 C   0  0  0  0  0  0  0  0  0  0  0  0
   -0.4310    1.8790    0.8460 C   0  0  0  0  0  0  0  0  0  0  0  0
    0.5920    2.6970    0.0520 C   0  0  0  0  0  0  0  0  0  0  0  0
    1.6770    1.8200   -0.4380 C   0  0  0  0  0  0  0  0  0  0  0  0
    1.6690    0.8360   -1.3460 C   0  0  0  0  0  0  0  0  0  0  0  0
    3.0660    0.2730   -1.4740 C   0  0  2  0  0  0  0  0  0  0  0  0
    3.4880    0.5010   -2.4890 H   0  0  0  0  0  0  0  0  0  0  0  0
    3.2020   -1.2210   -1.1710 C   0  0  0  0  0  0  0  0  0  0  0  0
    3.8580    1.0020   -0.5410 O   0  0  0  0  0  0  0  0  0  0  0  0
    3.0570    1.9100    0.1070 C   0  0  0  0  0  0  0  0  0  0  0  0
    3.5540    2.6160    0.9540 O   0  0  0  0  0  0  0  0  0  0  0  0
    3.8520   -2.7700    1.0870 H   0  0  0  0  0  0  0  0  0  0  0  0
    2.2640   -3.5080    1.2920 H   0  0  0  0  0  0  0  0  0  0  0  0
    3.1640   -3.7690   -0.2000 H   0  0  0  0  0  0  0  0  0  0  0  0
    1.7480   -1.1110    1.6700 H   0  0  0  0  0  0  0  0  0  0  0  0
    0.8630   -2.2640   -1.7180 H   0  0  0  0  0  0  0  0  0  0  0  0
   -0.0610   -2.4720    1.2410 H   0  0  0  0  0  0  0  0  0  0  0  0
   -1.3550   -3.1530   -1.5100 H   0  0  0  0  0  0  0  0  0  0  0  0
   -1.4380   -4.1770   -0.0810 H   0  0  0  0  0  0  0  0  0  0  0  0
   -4.0730   -3.9020   -0.2480 H   0  0  0  0  0  0  0  0  0  0  0  0
   -4.7550   -2.2710   -0.2940 H   0  0  0  0  0  0  0  0  0  0  0  0
   -3.8180   -2.8710   -1.6600 H   0  0  0  0  0  0  0  0  0  0  0  0
   -3.4240   -2.0590    1.7950 H   0  0  0  0  0  0  0  0  0  0  0  0
   -2.4720   -0.7260   -1.4100 H   0  0  0  0  0  0  0  0  0  0  0  0
   -2.0740   -0.0500    1.6010 H   0  0  0  0  0  0  0  0  0  0  0  0
   -0.8110    1.0070   -1.5430 H   0  0  0  0  0  0  0  0  0  0  0  0
   -3.0770    2.4020    1.5150 H   0  0  0  0  0  0  0  0  0  0  0  0
   -2.3470    4.0080   -1.0400 H   0  0  0  0  0  0  0  0  0  0  0  0
   -3.4080    4.5720    0.2500 H   0  0  0  0  0  0  0  0  0  0  0  0
   -1.7040    4.2920    0.5810 H   0  0  0  0  0  0  0  0  0  0  0  0
   -4.4700    0.9940   -0.0470 H   0  0  0  0  0  0  0  0  0  0  0  0
   -5.0250    2.6670   -0.0470 H   0  0  0  0  0  0  0  0  0  0  0  0
   -4.0740    2.0550   -1.4010 H   0  0  0  0  0  0  0  0  0  0  0  0
   -0.7040    2.4220    1.7740 H   0  0  0  0  0  0  0  0  0  0  0  0
    0.0720    0.9640    1.2320 H   0  0  0  0  0  0  0  0  0  0  0  0
    0.1390    3.2590   -0.7920 H   0  0  0  0  0  0  0  0  0  0  0  0
    1.0200    3.4960    0.6990 H   0  0  0  0  0  0  0  0  0  0  0  0
    0.8400    0.4530   -1.9320 H   0  0  0  0  0  0  0  0  0  0  0  0
    4.2630   -1.4220   -0.8990 H   0  0  0  0  0  0  0  0  0  0  0  0
    3.0490   -1.7980   -2.1080 H   0  0  0  0  0  0  0  0  0  0  0  0
  1 29  1  0
  1  2  1  0
  1 27  1  0
  1 28  1  0
  2 23  1  0
  2  4  1  0
  2  3  1  1
  3 30  1  0
  4 31  1  0
  4  5  2  0
  5  6  1  0
  5 32  1  0
  6 33  1  0
  6 34  1  0
  6  7  1  0
  7  8  1  0
  7 10  1  0
  7  9  1  1
  8 37  1  0
  8 36  1  0
  8 35  1  0
  9 38  1  0
 10 39  1  0
 10 11  2  0
 11 12  1  0
 11 40  1  0
 12 13  1  6
 12 14  1  0
 12 17  1  0
 13 41  1  0
 14 16  1  0
 14 15  1  0
 14 42  1  1
 15 43  1  0
 15 44  1  0
 15 45  1  0
 16 48  1  0
 16 46  1  0
 16 47  1  0
 17 18  1  0
 17 50  1  0
 17 49  1  0
 18 51  1  0
 18 19  1  0
 18 52  1  0
 19 20  2  0
 19 25  1  0
 20 53  1  0
 20 21  1  0
 21 22  1  6
 21 23  1  0
 21 24  1  0
 23 55  1  0
 23 54  1  0
 24 25  1  0
 25 26  2  0
M  END
>  <id>  (595) 
699

>  <scaffolds>  (595) 
[]

>  <name>  (595) 
(+)-(1S*,4R*,8S*,10R*)-1,4,8-Trihydroxycembra-2E,6E,11Z-trien-20,10-olide

>  <formula>  (595) 
C20H30O5

>  <SMILES>  (595) 
C[C@]1(O)C=CC[C@@](C)(O)C=C[C@@](O)(C(C)C)CCC2=C[C@H](C1)OC2=O

>  <ChEMBL_id>  (595) 


>  <ZINC_id>  (595) 


>  <PubChem_id>  (595) 


>  <DrugBank_id>  (595) 


>  <CAS_no>  (595) 
1346224-19-8

>  <references>  (595) 
[{'journal': {'name': 'Journal of Natural Products', 'id': 5}, 'title': 'Cembranolides from the Leaves of Croton gratissimus', 'year': 2011, 'start_page': 2349, 'volume': 74, 'issue': None, 'doi': '10.1021/np2002012', 'isbn': '', 'despositor': {'code': 'NFA', 'first_name': 'Ngonidzashe', 'last_name': 'Faya', 'id': 21}, 'refauthors_set': [{'author': {'first_name': 'Moses', 'initials': 'MK', 'last_name': 'Langat', 'id': 730}, 'first_author': True, 'id': 1048}, {'author': {'first_name': 'Neil', 'initials': 'NR', 'last_name': 'Crouch', 'id': 524}, 'first_author': None, 'id': 1142}, {'author': {'first_name': 'Peter', 'initials': 'PJ', 'last_name': 'Smith', 'id': 490}, 'first_author': None, 'id': 1143}, {'author': {'first_name': 'Dulcie', 'initials': 'DA', 'last_name': 'Mulholland', 'id': 525}, 'first_author': None, 'id': 1144}], 'id': 351}]

>  <classifications>  (595) 
[{'classification': 'Cembranolide', 'id': 758}, {'classification': 'Phenol lipids (Classyfire)', 'id': 951}]

>  <molecular_mass>  (595) 
350.45

$$$$
SANC00700_minRM1.pdb
     RDKit          3D

 81 85  0  0  1  0  0  0  0  0999 V2000
    2.3420   -1.1430   -1.1470 H   0  0  0  0  0  0  0  0  0  0  0  0
    2.6540   -0.7570   -0.1380 C   0  0  2  0  0  0  0  0  0  0  0  0
    3.3800   -1.8960    0.5780 C   0  0  0  0  0  0  0  0  0  0  0  0
    4.7050   -2.2150   -0.0890 C   0  0  0  0  0  0  0  0  0  0  0  0
    5.6080   -0.9810   -0.0480 C   0  0  2  0  0  0  0  0  0  0  0  0
    6.6000   -1.2300   -0.5230 H   0  0  0  0  0  0  0  0  0  0  0  0
    5.8110   -0.5510    1.2680 O   0  0  0  0  0  0  0  0  0  0  0  0
    4.9620    0.2030   -0.8020 C   0  0  1  0  0  0  0  0  0  0  0  0
    5.8410    1.4380   -0.5650 C   0  0  0  0  0  0  0  0  0  0  0  0
    4.9670   -0.1010   -2.3060 C   0  0  0  0  0  0  0  0  0  0  0  0
    3.5270    0.4310   -0.4110 C   0  0  0  0  0  0  0  0  0  0  0  0
    3.0070    1.6590   -0.4820 C   0  0  0  0  0  0  0  0  0  0  0  0
    1.5750    1.9890   -0.2600 C   0  0  0  0  0  0  0  0  0  0  0  0
    0.6890    0.7500   -0.1890 C   0  0  1  0  0  0  0  0  0  0  0  0
    0.6150    0.3400   -1.2370 H   0  0  0  0  0  0  0  0  0  0  0  0
    1.3830   -0.3320    0.6600 C   0  0  2  0  0  0  0  0  0  0  0  0
    1.8270    0.1530    2.0380 C   0  0  0  0  0  0  0  0  0  0  0  0
    0.4580   -1.5460    0.8300 C   0  0  0  0  0  0  0  0  0  0  0  0
   -0.9680   -1.1750    1.2160 C   0  0  0  0  0  0  0  0  0  0  0  0
   -1.6050   -0.1890    0.2250 C   0  0  1  0  0  0  0  0  0  0  0  0
   -1.5790   -0.8190   -1.1650 C   0  0  0  0  0  0  0  0  0  0  0  0
   -3.0530    0.1230    0.6810 C   0  0  2  0  0  0  0  0  0  0  0  0
   -2.9480    0.4480    1.7550 H   0  0  0  0  0  0  0  0  0  0  0  0
   -3.9540   -1.1230    0.7630 C   0  0  0  0  0  0  0  0  0  0  0  0
   -4.9910   -1.4350   -0.3310 C   0  0  1  0  0  0  0  0  0  0  0  0
   -4.4620   -2.4860   -1.3130 C   0  0  0  0  0  0  0  0  0  0  0  0
   -6.2180   -2.0710    0.3500 C   0  0  0  0  0  0  0  0  0  0  0  0
   -5.4720   -0.2090   -1.1090 C   0  0  0  0  0  0  0  0  0  0  0  0
   -4.3810    0.8180   -1.3540 C   0  0  0  0  0  0  0  0  0  0  0  0
   -3.7420    1.2840   -0.0460 C   0  0  1  0  0  0  0  0  0  0  0  0
   -4.8520    1.8360    0.8700 C   0  0  0  0  0  0  0  0  0  0  0  0
   -2.7910    2.4620   -0.3170 C   0  0  0  0  0  0  0  0  0  0  0  0
   -1.3860    2.0760   -0.7540 C   0  0  0  0  0  0  0  0  0  0  0  0
   -0.7530    1.1000    0.2470 C   0  0  2  0  0  0  0  0  0  0  0  0
   -0.7360    1.7670    1.6220 C   0  0  0  0  0  0  0  0  0  0  0  0
    3.5350   -1.6540    1.6540 H   0  0  0  0  0  0  0  0  0  0  0  0
    2.7560   -2.8160    0.5880 H   0  0  0  0  0  0  0  0  0  0  0  0
    5.1950   -3.0790    0.4090 H   0  0  0  0  0  0  0  0  0  0  0  0
    4.5580   -2.5610   -1.1330 H   0  0  0  0  0  0  0  0  0  0  0  0
    6.1570   -1.2970    1.7670 H   0  0  0  0  0  0  0  0  0  0  0  0
    6.9080    1.2170   -0.7150 H   0  0  0  0  0  0  0  0  0  0  0  0
    5.6040    2.2660   -1.2490 H   0  0  0  0  0  0  0  0  0  0  0  0
    5.7400    1.8300    0.4570 H   0  0  0  0  0  0  0  0  0  0  0  0
    4.3840   -0.9940   -2.5690 H   0  0  0  0  0  0  0  0  0  0  0  0
    4.5330    0.7270   -2.8860 H   0  0  0  0  0  0  0  0  0  0  0  0
    5.9830   -0.2580   -2.6980 H   0  0  0  0  0  0  0  0  0  0  0  0
    3.6160    2.5360   -0.7270 H   0  0  0  0  0  0  0  0  0  0  0  0
    1.4740    2.6210    0.6540 H   0  0  0  0  0  0  0  0  0  0  0  0
    1.2340    2.6580   -1.0830 H   0  0  0  0  0  0  0  0  0  0  0  0
    0.9880    0.3680    2.7160 H   0  0  0  0  0  0  0  0  0  0  0  0
    2.4400   -0.6040    2.5600 H   0  0  0  0  0  0  0  0  0  0  0  0
    2.4520    1.0550    2.0100 H   0  0  0  0  0  0  0  0  0  0  0  0
    0.4500   -2.1680   -0.0910 H   0  0  0  0  0  0  0  0  0  0  0  0
    0.8590   -2.2340    1.6060 H   0  0  0  0  0  0  0  0  0  0  0  0
   -1.5870   -2.1000    1.2860 H   0  0  0  0  0  0  0  0  0  0  0  0
   -0.9890   -0.7630    2.2490 H   0  0  0  0  0  0  0  0  0  0  0  0
   -2.0260   -1.8240   -1.1820 H   0  0  0  0  0  0  0  0  0  0  0  0
   -2.1180   -0.2210   -1.9170 H   0  0  0  0  0  0  0  0  0  0  0  0
   -0.5620   -0.9290   -1.5780 H   0  0  0  0  0  0  0  0  0  0  0  0
   -3.3170   -2.0250    0.9210 H   0  0  0  0  0  0  0  0  0  0  0  0
   -4.4890   -1.0380    1.7380 H   0  0  0  0  0  0  0  0  0  0  0  0
   -4.1470   -3.4120   -0.8090 H   0  0  0  0  0  0  0  0  0  0  0  0
   -5.2190   -2.7890   -2.0520 H   0  0  0  0  0  0  0  0  0  0  0  0
   -3.5940   -2.1330   -1.8870 H   0  0  0  0  0  0  0  0  0  0  0  0
   -6.7000   -1.4010    1.0770 H   0  0  0  0  0  0  0  0  0  0  0  0
   -6.9980   -2.3440   -0.3760 H   0  0  0  0  0  0  0  0  0  0  0  0
   -5.9610   -2.9900    0.8960 H   0  0  0  0  0  0  0  0  0  0  0  0
   -5.9140   -0.5210   -2.0820 H   0  0  0  0  0  0  0  0  0  0  0  0
   -6.3350    0.2730   -0.5980 H   0  0  0  0  0  0  0  0  0  0  0  0
   -3.6150    0.4180   -2.0510 H   0  0  0  0  0  0  0  0  0  0  0  0
   -4.8140    1.6820   -1.9070 H   0  0  0  0  0  0  0  0  0  0  0  0
   -5.5630    1.0680    1.2060 H   0  0  0  0  0  0  0  0  0  0  0  0
   -4.4600    2.2930    1.7910 H   0  0  0  0  0  0  0  0  0  0  0  0
   -5.4450    2.6150    0.3680 H   0  0  0  0  0  0  0  0  0  0  0  0
   -3.2390    3.1510   -1.0650 H   0  0  0  0  0  0  0  0  0  0  0  0
   -2.7040    3.0950    0.5980 H   0  0  0  0  0  0  0  0  0  0  0  0
   -1.3930    1.6620   -1.7840 H   0  0  0  0  0  0  0  0  0  0  0  0
   -0.7730    2.9990   -0.8470 H   0  0  0  0  0  0  0  0  0  0  0  0
   -1.6670    2.3020    1.8690 H   0  0  0  0  0  0  0  0  0  0  0  0
   -0.5680    1.0490    2.4440 H   0  0  0  0  0  0  0  0  0  0  0  0
    0.0610    2.5260    1.6990 H   0  0  0  0  0  0  0  0  0  0  0  0
  2  1  1  6
  2 11  1  0
  2  3  1  0
  2 16  1  0
  3  4  1  0
  3 37  1  0
  3 36  1  0
  4 39  1  0
  4  5  1  0
  4 38  1  0
  5  8  1  0
  5  6  1  6
  5  7  1  0
  7 40  1  0
  8 10  1  6
  8  9  1  0
  8 11  1  0
  9 42  1  0
  9 41  1  0
  9 43  1  0
 10 45  1  0
 10 46  1  0
 10 44  1  0
 11 12  2  0
 12 47  1  0
 12 13  1  0
 13 49  1  0
 13 14  1  0
 13 48  1  0
 14 15  1  6
 14 34  1  0
 14 16  1  0
 16 18  1  0
 16 17  1  1
 17 52  1  0
 17 51  1  0
 17 50  1  0
 18 53  1  0
 18 19  1  0
 18 54  1  0
 19 20  1  0
 19 55  1  0
 19 56  1  0
 20 21  1  6
 20 34  1  0
 20 22  1  0
 21 58  1  0
 21 59  1  0
 21 57  1  0
 22 30  1  0
 22 24  1  0
 22 23  1  1
 24 25  1  0
 24 60  1  0
 24 61  1  0
 25 26  1  6
 25 28  1  0
 25 27  1  0
 26 63  1  0
 26 64  1  0
 26 62  1  0
 27 66  1  0
 27 67  1  0
 27 65  1  0
 28 68  1  0
 28 29  1  0
 28 69  1  0
 29 70  1  0
 29 71  1  0
 29 30  1  0
 30 32  1  0
 30 31  1  1
 31 74  1  0
 31 72  1  0
 31 73  1  0
 32 75  1  0
 32 33  1  0
 32 76  1  0
 33 77  1  0
 33 78  1  0
 33 34  1  0
 34 35  1  1
 35 81  1  0
 35 79  1  0
 35 80  1  0
M  END
>  <id>  (596) 
700

>  <scaffolds>  (596) 
['C1=CCCCC1', 'C1=CCC2CCCCC2C1', 'C1CCCCC1', 'C1=C2CCCCC2CCC1', 'C1=C2CCCCC2C2CCC3C4CCCCC4CCC3C2C1', 'C1CCC2CCCCC2C1']

>  <name>  (596) 
[alpha]-Glutinol

>  <formula>  (596) 
C30H50O

>  <SMILES>  (596) 
[H][C@@]12CC[C@H](O)C(C)(C)C1=CC[C@@]4([H])[C@@]2(C)CC[C@@]5(C)[C@]3([H])CC(C)(C)CC[C@]3(C)CC[C@]45C

>  <ChEMBL_id>  (596) 
CHEMBL452242

>  <ZINC_id>  (596) 


>  <PubChem_id>  (596) 
 9932254

>  <DrugBank_id>  (596) 


>  <CAS_no>  (596) 
545-24-4

>  <references>  (596) 
[{'journal': {'name': 'Journal of Natural Products', 'id': 5}, 'title': 'Cembranolides from the Leaves of Croton gratissimus', 'year': 2011, 'start_page': 2349, 'volume': 74, 'issue': None, 'doi': '10.1021/np2002012', 'isbn': '', 'despositor': {'code': 'NFA', 'first_name': 'Ngonidzashe', 'last_name': 'Faya', 'id': 21}, 'refauthors_set': [{'author': {'first_name': 'Moses', 'initials': 'MK', 'last_name': 'Langat', 'id': 730}, 'first_author': True, 'id': 1048}, {'author': {'first_name': 'Neil', 'initials': 'NR', 'last_name': 'Crouch', 'id': 524}, 'first_author': None, 'id': 1142}, {'author': {'first_name': 'Peter', 'initials': 'PJ', 'last_name': 'Smith', 'id': 490}, 'first_author': None, 'id': 1143}, {'author': {'first_name': 'Dulcie', 'initials': 'DA', 'last_name': 'Mulholland', 'id': 525}, 'first_author': None, 'id': 1144}], 'id': 351}]

>  <classifications>  (596) 
[{'classification': 'Phenol lipids (Classyfire)', 'id': 951}]

>  <molecular_mass>  (596) 
426.72

$$$$
SANC00701_minRM1.pdb
     RDKit          3D

 50 51  0  0  1  0  0  0  0  0999 V2000
   -2.3680   -3.1110    1.1520 C   0  0  0  0  0  0  0  0  0  0  0  0
   -2.1310   -2.0760    0.0950 C   0  0  0  0  0  0  0  0  0  0  0  0
   -1.2510   -2.3210   -0.8760 C   0  0  0  0  0  0  0  0  0  0  0  0
   -0.8260   -1.3800   -1.9500 C   0  0  0  0  0  0  0  0  0  0  0  0
    0.6560   -1.2180   -1.8510 C   0  0  0  0  0  0  0  0  0  0  0  0
    1.3370   -0.1560   -2.2870 C   0  0  0  0  0  0  0  0  0  0  0  0
    0.7370    0.9300   -3.1020 C   0  0  0  0  0  0  0  0  0  0  0  0
    2.7790   -0.0050   -1.9190 C   0  0  0  0  0  0  0  0  0  0  0  0
    2.9560    0.0820   -0.3930 C   0  0  1  0  0  0  0  0  0  0  0  0
    3.9250    0.5750   -0.1290 H   0  0  0  0  0  0  0  0  0  0  0  0
    1.7800    0.7480    0.2890 C   0  0  0  0  0  0  0  0  0  0  0  0
    1.1870   -0.1310    1.1030 C   0  0  0  0  0  0  0  0  0  0  0  0
   -0.0090   -0.0450    1.9620 C   0  0  0  0  0  0  0  0  0  0  0  0
   -0.8590    1.1940    1.6930 C   0  0  0  0  0  0  0  0  0  0  0  0
   -1.5540    1.1420    0.3290 C   0  0  2  0  0  0  0  0  0  0  0  0
   -0.8740    0.6640   -0.4270 H   0  0  0  0  0  0  0  0  0  0  0  0
   -1.9190    2.5570   -0.1790 C   0  0  1  0  0  0  0  0  0  0  0  0
   -2.7420    3.3320    0.8440 C   0  0  0  0  0  0  0  0  0  0  0  0
   -0.6920    3.3740   -0.5620 C   0  0  0  0  0  0  0  0  0  0  0  0
   -2.8260    0.3580    0.4050 C   0  0  0  0  0  0  0  0  0  0  0  0
   -3.0380   -0.9450    0.2380 C   0  0  0  0  0  0  0  0  0  0  0  0
    1.9670   -1.3950    1.0290 C   0  0  0  0  0  0  0  0  0  0  0  0
    1.8470   -2.4640    1.5810 O   0  0  0  0  0  0  0  0  0  0  0  0
    3.0150   -1.2320    0.1520 O   0  0  0  0  0  0  0  0  0  0  0  0
   -3.2490   -3.7280    0.9150 H   0  0  0  0  0  0  0  0  0  0  0  0
   -1.5220   -3.8030    1.2790 H   0  0  0  0  0  0  0  0  0  0  0  0
   -2.5460   -2.6620    2.1410 H   0  0  0  0  0  0  0  0  0  0  0  0
   -0.7440   -3.2970   -0.9060 H   0  0  0  0  0  0  0  0  0  0  0  0
   -1.1120   -1.7750   -2.9490 H   0  0  0  0  0  0  0  0  0  0  0  0
   -1.3490   -0.4010   -1.8620 H   0  0  0  0  0  0  0  0  0  0  0  0
    1.1900   -2.0450   -1.3680 H   0  0  0  0  0  0  0  0  0  0  0  0
   -0.1730    0.6220   -3.6380 H   0  0  0  0  0  0  0  0  0  0  0  0
    0.4670    1.7980   -2.4780 H   0  0  0  0  0  0  0  0  0  0  0  0
    1.4270    1.2970   -3.8780 H   0  0  0  0  0  0  0  0  0  0  0  0
    3.3790   -0.8480   -2.3260 H   0  0  0  0  0  0  0  0  0  0  0  0
    3.2260    0.9000   -2.3780 H   0  0  0  0  0  0  0  0  0  0  0  0
    1.5250    1.7790    0.0780 H   0  0  0  0  0  0  0  0  0  0  0  0
   -0.6190   -0.9690    1.8400 H   0  0  0  0  0  0  0  0  0  0  0  0
    0.3190   -0.0640    3.0260 H   0  0  0  0  0  0  0  0  0  0  0  0
   -1.6140    1.3020    2.5010 H   0  0  0  0  0  0  0  0  0  0  0  0
   -0.2270    2.1020    1.7890 H   0  0  0  0  0  0  0  0  0  0  0  0
   -2.5400    2.4270   -1.1080 H   0  0  0  0  0  0  0  0  0  0  0  0
   -2.1600    3.6430    1.7230 H   0  0  0  0  0  0  0  0  0  0  0  0
   -3.1630    4.2530    0.4130 H   0  0  0  0  0  0  0  0  0  0  0  0
   -3.5950    2.7430    1.2190 H   0  0  0  0  0  0  0  0  0  0  0  0
   -0.0850    2.8750   -1.3370 H   0  0  0  0  0  0  0  0  0  0  0  0
   -0.9740    4.3540   -0.9760 H   0  0  0  0  0  0  0  0  0  0  0  0
   -0.0280    3.5860    0.2890 H   0  0  0  0  0  0  0  0  0  0  0  0
   -3.7170    0.9760    0.6110 H   0  0  0  0  0  0  0  0  0  0  0  0
   -4.0850   -1.2920    0.2690 H   0  0  0  0  0  0  0  0  0  0  0  0
  1  2  1  0
  1 25  1  0
  1 26  1  0
  1 27  1  0
  2  3  2  0
  2 21  1  0
  3  4  1  0
  3 28  1  0
  4 29  1  0
  4 30  1  0
  4  5  1  0
  5  6  2  0
  5 31  1  0
  6  7  1  0
  6  8  1  0
  7 34  1  0
  7 32  1  0
  7 33  1  0
  8 36  1  0
  8 35  1  0
  8  9  1  0
  9 10  1  6
  9 24  1  0
  9 11  1  0
 11 37  1  0
 11 12  2  0
 12 22  1  0
 12 13  1  0
 13 14  1  0
 13 38  1  0
 13 39  1  0
 14 15  1  0
 14 41  1  0
 14 40  1  0
 15 16  1  6
 15 17  1  0
 15 20  1  0
 17 42  1  6
 17 19  1  0
 17 18  1  0
 18 44  1  0
 18 45  1  0
 18 43  1  0
 19 46  1  0
 19 47  1  0
 19 48  1  0
 20 21  2  0
 20 49  1  0
 21 50  1  0
 22 24  1  0
 22 23  2  0
M  END
>  <id>  (597) 
701

>  <scaffolds>  (597) 
[]

>  <name>  (597) 
(+)-(1R*,10R*)-Cembra-2E,4E,7E,11Z-tetraen-20,10-olide

>  <formula>  (597) 
C20H28O2

>  <SMILES>  (597) 
CC1=CCC=C(C)C[C@H]2C=C(CC[C@H](C(C)C)C=C1)C(=O)O2

>  <ChEMBL_id>  (597) 


>  <ZINC_id>  (597) 


>  <PubChem_id>  (597) 


>  <DrugBank_id>  (597) 


>  <CAS_no>  (597) 
1242413-72-4

>  <references>  (597) 
[{'journal': {'name': 'Journal of Natural Products', 'id': 5}, 'title': 'Cembranolides from the Leaves of Croton gratissimus', 'year': 2011, 'start_page': 2349, 'volume': 74, 'issue': None, 'doi': '10.1021/np2002012', 'isbn': '', 'despositor': {'code': 'NFA', 'first_name': 'Ngonidzashe', 'last_name': 'Faya', 'id': 21}, 'refauthors_set': [{'author': {'first_name': 'Moses', 'initials': 'MK', 'last_name': 'Langat', 'id': 730}, 'first_author': True, 'id': 1048}, {'author': {'first_name': 'Neil', 'initials': 'NR', 'last_name': 'Crouch', 'id': 524}, 'first_author': None, 'id': 1142}, {'author': {'first_name': 'Peter', 'initials': 'PJ', 'last_name': 'Smith', 'id': 490}, 'first_author': None, 'id': 1143}, {'author': {'first_name': 'Dulcie', 'initials': 'DA', 'last_name': 'Mulholland', 'id': 525}, 'first_author': None, 'id': 1144}], 'id': 351}]

>  <classifications>  (597) 
[{'classification': 'Cembranolide', 'id': 758}, {'classification': 'Phenol lipids (Classyfire)', 'id': 951}]

>  <molecular_mass>  (597) 
300.43

$$$$
SANC00702_minRM1.pdb
     RDKit          3D

 53 54  0  0  1  0  0  0  0  0999 V2000
    2.2990    1.4710   -1.2780 C   0  0  0  0  0  0  0  0  0  0  0  0
    1.9490    1.9220    0.0960 C   0  0  0  0  0  0  0  0  0  0  0  0
    0.8020    2.5380    0.3980 C   0  0  0  0  0  0  0  0  0  0  0  0
   -0.2430    2.8820   -0.6070 C   0  0  0  0  0  0  0  0  0  0  0  0
   -1.5940    3.2080    0.0370 C   0  0  0  0  0  0  0  0  0  0  0  0
   -2.6100    2.0500   -0.1040 C   0  0  2  0  0  0  0  0  0  0  0  0
   -3.1880    2.0140   -1.5240 C   0  0  0  0  0  0  0  0  0  0  0  0
   -3.6320    2.3700    0.8010 O   0  0  0  0  0  0  0  0  0  0  0  0
   -1.9710    0.7510    0.3180 C   0  0  0  0  0  0  0  0  0  0  0  0
   -2.1290   -0.4100   -0.3080 C   0  0  0  0  0  0  0  0  0  0  0  0
   -1.4610   -1.6730    0.1540 C   0  0  1  0  0  0  0  0  0  0  0  0
   -1.0800   -1.5560    1.2000 H   0  0  0  0  0  0  0  0  0  0  0  0
   -2.5020   -2.8120    0.1300 C   0  0  1  0  0  0  0  0  0  0  0  0
   -1.9000   -4.1430    0.5570 C   0  0  0  0  0  0  0  0  0  0  0  0
   -3.6640   -2.4660    1.0590 C   0  0  0  0  0  0  0  0  0  0  0  0
   -0.2820   -1.9360   -0.7970 C   0  0  0  0  0  0  0  0  0  0  0  0
    0.9350   -2.5560   -0.1070 C   0  0  0  0  0  0  0  0  0  0  0  0
    1.8810   -1.5330    0.3780 C   0  0  0  0  0  0  0  0  0  0  0  0
    1.7600   -0.5880    1.3170 C   0  0  0  0  0  0  0  0  0  0  0  0
    3.0770    0.1480    1.4480 C   0  0  2  0  0  0  0  0  0  0  0  0
    3.5400   -0.0320    2.4510 H   0  0  0  0  0  0  0  0  0  0  0  0
    2.9640    1.6470    1.1560 C   0  0  0  0  0  0  0  0  0  0  0  0
    3.9460   -0.4510    0.4910 O   0  0  0  0  0  0  0  0  0  0  0  0
    3.2620   -1.4490   -0.1610 C   0  0  0  0  0  0  0  0  0  0  0  0
    3.8410   -2.0780   -1.0150 O   0  0  0  0  0  0  0  0  0  0  0  0
    1.7500    0.5540   -1.5480 H   0  0  0  0  0  0  0  0  0  0  0  0
    2.0620    2.2260   -2.0440 H   0  0  0  0  0  0  0  0  0  0  0  0
    3.3700    1.2440   -1.4080 H   0  0  0  0  0  0  0  0  0  0  0  0
    0.6060    2.8620    1.4290 H   0  0  0  0  0  0  0  0  0  0  0  0
    0.1170    3.7620   -1.1900 H   0  0  0  0  0  0  0  0  0  0  0  0
   -0.3450    2.0770   -1.3650 H   0  0  0  0  0  0  0  0  0  0  0  0
   -1.4740    3.4710    1.1110 H   0  0  0  0  0  0  0  0  0  0  0  0
   -2.0230    4.1300   -0.4050 H   0  0  0  0  0  0  0  0  0  0  0  0
   -2.4340    1.7410   -2.2750 H   0  0  0  0  0  0  0  0  0  0  0  0
   -4.0180    1.3000   -1.6240 H   0  0  0  0  0  0  0  0  0  0  0  0
   -3.6000    2.9900   -1.8210 H   0  0  0  0  0  0  0  0  0  0  0  0
   -4.2510    1.6360    0.8170 H   0  0  0  0  0  0  0  0  0  0  0  0
   -1.3640    0.8350    1.2270 H   0  0  0  0  0  0  0  0  0  0  0  0
   -2.7290   -0.5180   -1.2170 H   0  0  0  0  0  0  0  0  0  0  0  0
   -2.9020   -2.9270   -0.9100 H   0  0  0  0  0  0  0  0  0  0  0  0
   -2.6580   -4.9420    0.5800 H   0  0  0  0  0  0  0  0  0  0  0  0
   -1.1220   -4.4960   -0.1330 H   0  0  0  0  0  0  0  0  0  0  0  0
   -1.4620   -4.1070    1.5620 H   0  0  0  0  0  0  0  0  0  0  0  0
   -4.1900   -1.5530    0.7540 H   0  0  0  0  0  0  0  0  0  0  0  0
   -4.4200   -3.2640    1.0840 H   0  0  0  0  0  0  0  0  0  0  0  0
   -3.3390   -2.3160    2.0970 H   0  0  0  0  0  0  0  0  0  0  0  0
   -0.6040   -2.5840   -1.6420 H   0  0  0  0  0  0  0  0  0  0  0  0
    0.0250   -0.9930   -1.3000 H   0  0  0  0  0  0  0  0  0  0  0  0
    0.6500   -3.2090    0.7440 H   0  0  0  0  0  0  0  0  0  0  0  0
    1.4560   -3.2400   -0.8150 H   0  0  0  0  0  0  0  0  0  0  0  0
    0.9040   -0.3220    1.9280 H   0  0  0  0  0  0  0  0  0  0  0  0
    3.9530    2.0610    0.8560 H   0  0  0  0  0  0  0  0  0  0  0  0
    2.7250    2.1760    2.1040 H   0  0  0  0  0  0  0  0  0  0  0  0
  1 27  1  0
  1 26  1  0
  1 28  1  0
  1  2  1  0
  2  3  2  0
  2 22  1  0
  3  4  1  0
  3 29  1  0
  4 31  1  0
  4 30  1  0
  4  5  1  0
  5 33  1  0
  5  6  1  0
  5 32  1  0
  6  7  1  0
  6  9  1  0
  6  8  1  1
  7 34  1  0
  7 36  1  0
  7 35  1  0
  8 37  1  0
  9 10  2  0
  9 38  1  0
 10 39  1  0
 10 11  1  0
 11 16  1  0
 11 13  1  0
 11 12  1  1
 13 40  1  6
 13 14  1  0
 13 15  1  0
 14 42  1  0
 14 41  1  0
 14 43  1  0
 15 44  1  0
 15 45  1  0
 15 46  1  0
 16 47  1  0
 16 48  1  0
 16 17  1  0
 17 50  1  0
 17 18  1  0
 17 49  1  0
 18 24  1  0
 18 19  2  0
 19 20  1  0
 19 51  1  0
 20 23  1  0
 20 22  1  0
 20 21  1  1
 22 52  1  0
 22 53  1  0
 23 24  1  0
 24 25  2  0
M  END
>  <id>  (598) 
702

>  <scaffolds>  (598) 
[]

>  <name>  (598) 
(+)-(1R*,4S*,10R*)-4-Hydroxycembra-2E,7E,11Z-trien-20,10-olide

>  <formula>  (598) 
C20H30O3

>  <SMILES>  (598) 
CC1=CCC[C@](C)(O)C=C[C@@H](C(C)C)CCC2=C[C@H](C1)OC2=O

>  <ChEMBL_id>  (598) 


>  <ZINC_id>  (598) 


>  <PubChem_id>  (598) 


>  <DrugBank_id>  (598) 


>  <CAS_no>  (598) 
1242413-73-5

>  <references>  (598) 
[{'journal': {'name': 'Journal of Natural Products', 'id': 5}, 'title': 'Cembranolides from the Leaves of Croton gratissimus', 'year': 2011, 'start_page': 2349, 'volume': 74, 'issue': None, 'doi': '10.1021/np2002012', 'isbn': '', 'despositor': {'code': 'NFA', 'first_name': 'Ngonidzashe', 'last_name': 'Faya', 'id': 21}, 'refauthors_set': [{'author': {'first_name': 'Moses', 'initials': 'MK', 'last_name': 'Langat', 'id': 730}, 'first_author': True, 'id': 1048}, {'author': {'first_name': 'Neil', 'initials': 'NR', 'last_name': 'Crouch', 'id': 524}, 'first_author': None, 'id': 1142}, {'author': {'first_name': 'Peter', 'initials': 'PJ', 'last_name': 'Smith', 'id': 490}, 'first_author': None, 'id': 1143}, {'author': {'first_name': 'Dulcie', 'initials': 'DA', 'last_name': 'Mulholland', 'id': 525}, 'first_author': None, 'id': 1144}], 'id': 351}]

>  <classifications>  (598) 
[{'classification': 'Cembranolide', 'id': 758}, {'classification': 'Phenol lipids (Classyfire)', 'id': 951}]

>  <molecular_mass>  (598) 
318.45

$$$$
SANC00703_minRM1.pdb
     RDKit          3D

 76 79  0  0  1  0  0  0  0  0999 V2000
    1.5000   -0.3720    1.5360 H   0  0  0  0  0  0  0  0  0  0  0  0
    1.5310   -0.2470    0.4220 C   0  0  1  0  0  0  0  0  0  0  0  0
    2.6670   -1.1230   -0.1160 C   0  0  2  0  0  0  0  0  0  0  0  0
    2.7020   -1.0760   -1.2340 H   0  0  0  0  0  0  0  0  0  0  0  0
    2.4890   -2.5800    0.3050 C   0  0  0  0  0  0  0  0  0  0  0  0
    3.9660   -0.6380    0.4580 C   0  0  0  0  0  0  0  0  0  0  0  0
    5.0280   -0.3610   -0.2960 C   0  0  0  0  0  0  0  0  0  0  0  0
    6.3470    0.0560    0.2780 C   0  0  1  0  0  0  0  0  0  0  0  0
    7.3910   -1.0100   -0.0830 C   0  0  0  0  0  0  0  0  0  0  0  0
    6.9660   -2.3840    0.4110 C   0  0  0  0  0  0  0  0  0  0  0  0
    6.7320    1.4340   -0.2950 C   0  0  1  0  0  0  0  0  0  0  0  0
    5.6680    2.4610    0.0800 C   0  0  0  0  0  0  0  0  0  0  0  0
    8.0820    1.8990    0.2380 C   0  0  0  0  0  0  0  0  0  0  0  0
    1.7570    1.2430    0.0840 C   0  0  0  0  0  0  0  0  0  0  0  0
    0.3700    1.8710   -0.1340 C   0  0  0  0  0  0  0  0  0  0  0  0
   -0.6060    0.7730    0.2790 C   0  0  1  0  0  0  0  0  0  0  0  0
   -0.6960    0.8060    1.3990 H   0  0  0  0  0  0  0  0  0  0  0  0
   -2.0110    0.8160   -0.3060 C   0  0  2  0  0  0  0  0  0  0  0  0
   -1.9660    0.7250   -1.4260 H   0  0  0  0  0  0  0  0  0  0  0  0
   -2.6960    2.1270    0.0670 C   0  0  0  0  0  0  0  0  0  0  0  0
   -4.1110    2.1540   -0.4920 C   0  0  0  0  0  0  0  0  0  0  0  0
   -4.8910    0.9580   -0.0600 C   0  0  0  0  0  0  0  0  0  0  0  0
   -6.1280    1.1060    0.4230 C   0  0  0  0  0  0  0  0  0  0  0  0
   -6.9920   -0.0390    0.7340 C   0  0  0  0  0  0  0  0  0  0  0  0
   -8.0240    0.0770    1.3720 O   0  0  0  0  0  0  0  0  0  0  0  0
   -6.5360   -1.3620    0.1830 C   0  0  0  0  0  0  0  0  0  0  0  0
   -5.0390   -1.4940    0.4130 C   0  0  0  0  0  0  0  0  0  0  0  0
   -4.2470   -0.3810   -0.2940 C   0  0  1  0  0  0  0  0  0  0  0  0
   -4.2550   -0.6160   -1.8070 C   0  0  0  0  0  0  0  0  0  0  0  0
   -2.8070   -0.3640    0.2740 C   0  0  1  0  0  0  0  0  0  0  0  0
   -2.8800   -0.2230    1.3850 H   0  0  0  0  0  0  0  0  0  0  0  0
   -2.0870   -1.6940    0.0150 C   0  0  0  0  0  0  0  0  0  0  0  0
   -0.6340   -1.6820    0.4920 C   0  0  0  0  0  0  0  0  0  0  0  0
    0.1210   -0.5200   -0.1410 C   0  0  2  0  0  0  0  0  0  0  0  0
    0.1680   -0.6810   -1.6570 C   0  0  0  0  0  0  0  0  0  0  0  0
    1.5510   -3.0120   -0.0800 H   0  0  0  0  0  0  0  0  0  0  0  0
    3.3090   -3.2120   -0.0670 H   0  0  0  0  0  0  0  0  0  0  0  0
    2.4670   -2.7040    1.3970 H   0  0  0  0  0  0  0  0  0  0  0  0
    3.9960   -0.5550    1.5500 H   0  0  0  0  0  0  0  0  0  0  0  0
    4.9990   -0.4420   -1.3890 H   0  0  0  0  0  0  0  0  0  0  0  0
    6.2900    0.1340    1.3950 H   0  0  0  0  0  0  0  0  0  0  0  0
    7.5650   -1.0320   -1.1790 H   0  0  0  0  0  0  0  0  0  0  0  0
    8.3780   -0.7550    0.3560 H   0  0  0  0  0  0  0  0  0  0  0  0
    7.7300   -3.1460    0.1980 H   0  0  0  0  0  0  0  0  0  0  0  0
    6.7950   -2.4010    1.4980 H   0  0  0  0  0  0  0  0  0  0  0  0
    6.0350   -2.7340   -0.0590 H   0  0  0  0  0  0  0  0  0  0  0  0
    6.7900    1.3650   -1.4120 H   0  0  0  0  0  0  0  0  0  0  0  0
    5.5790    2.5920    1.1680 H   0  0  0  0  0  0  0  0  0  0  0  0
    5.8870    3.4540   -0.3410 H   0  0  0  0  0  0  0  0  0  0  0  0
    4.6690    2.1830   -0.2880 H   0  0  0  0  0  0  0  0  0  0  0  0
    8.9220    1.3190   -0.1700 H   0  0  0  0  0  0  0  0  0  0  0  0
    8.2890    2.9470   -0.0280 H   0  0  0  0  0  0  0  0  0  0  0  0
    8.1480    1.8350    1.3330 H   0  0  0  0  0  0  0  0  0  0  0  0
    2.3180    1.7510    0.8930 H   0  0  0  0  0  0  0  0  0  0  0  0
    2.3970    1.3720   -0.8100 H   0  0  0  0  0  0  0  0  0  0  0  0
    0.2360    2.7990    0.4550 H   0  0  0  0  0  0  0  0  0  0  0  0
    0.2180    2.1880   -1.1840 H   0  0  0  0  0  0  0  0  0  0  0  0
   -2.7140    2.2720    1.1680 H   0  0  0  0  0  0  0  0  0  0  0  0
   -2.1210    2.9950   -0.3190 H   0  0  0  0  0  0  0  0  0  0  0  0
   -4.6110    3.1040   -0.2010 H   0  0  0  0  0  0  0  0  0  0  0  0
   -4.0990    2.1900   -1.6040 H   0  0  0  0  0  0  0  0  0  0  0  0
   -6.5730    2.0920    0.5990 H   0  0  0  0  0  0  0  0  0  0  0  0
   -7.0850   -2.2070    0.6490 H   0  0  0  0  0  0  0  0  0  0  0  0
   -6.7980   -1.4210   -0.8940 H   0  0  0  0  0  0  0  0  0  0  0  0
   -4.8370   -1.4840    1.5060 H   0  0  0  0  0  0  0  0  0  0  0  0
   -4.7000   -2.4970    0.0780 H   0  0  0  0  0  0  0  0  0  0  0  0
   -5.1840   -0.2650   -2.2790 H   0  0  0  0  0  0  0  0  0  0  0  0
   -3.4300   -0.0920   -2.3150 H   0  0  0  0  0  0  0  0  0  0  0  0
   -4.1630   -1.6770   -2.0790 H   0  0  0  0  0  0  0  0  0  0  0  0
   -2.6170   -2.5240    0.5310 H   0  0  0  0  0  0  0  0  0  0  0  0
   -2.1280   -1.9760   -1.0570 H   0  0  0  0  0  0  0  0  0  0  0  0
   -0.5940   -1.6270    1.6010 H   0  0  0  0  0  0  0  0  0  0  0  0
   -0.1400   -2.6510    0.2520 H   0  0  0  0  0  0  0  0  0  0  0  0
   -0.8020   -0.4720   -2.1390 H   0  0  0  0  0  0  0  0  0  0  0  0
    0.8780    0.0000   -2.1470 H   0  0  0  0  0  0  0  0  0  0  0  0
    0.4510   -1.7000   -1.9580 H   0  0  0  0  0  0  0  0  0  0  0  0
  2  1  1  1
  2 34  1  0
  2  3  1  0
  2 14  1  0
  3  4  1  6
  3  5  1  0
  3  6  1  0
  5 36  1  0
  5 37  1  0
  5 38  1  0
  6  7  2  0
  6 39  1  0
  7 40  1  0
  7  8  1  0
  8 11  1  0
  8  9  1  0
  8 41  1  1
  9 42  1  0
  9 43  1  0
  9 10  1  0
 10 46  1  0
 10 44  1  0
 10 45  1  0
 11 47  1  6
 11 12  1  0
 11 13  1  0
 12 49  1  0
 12 50  1  0
 12 48  1  0
 13 51  1  0
 13 52  1  0
 13 53  1  0
 14 55  1  0
 14 15  1  0
 14 54  1  0
 15 57  1  0
 15 16  1  0
 15 56  1  0
 16 18  1  0
 16 34  1  0
 16 17  1  1
 18 19  1  6
 18 20  1  0
 18 30  1  0
 20 21  1  0
 20 59  1  0
 20 58  1  0
 21 61  1  0
 21 60  1  0
 21 22  1  0
 22 28  1  0
 22 23  2  0
 23 62  1  0
 23 24  1  0
 24 26  1  0
 24 25  2  0
 26 64  1  0
 26 27  1  0
 26 63  1  0
 27 28  1  0
 27 66  1  0
 27 65  1  0
 28 29  1  6
 28 30  1  0
 29 68  1  0
 29 67  1  0
 29 69  1  0
 30 32  1  0
 30 31  1  1
 32 71  1  0
 32 33  1  0
 32 70  1  0
 33 34  1  0
 33 73  1  0
 33 72  1  0
 34 35  1  6
 35 75  1  0
 35 74  1  0
 35 76  1  0
M  END
>  <id>  (599) 
703

>  <scaffolds>  (599) 
['C1=CCCCC1', 'C=C1CCC2CCCCC2C1', 'C1CCC(C2CCCC2)CC1', 'C1CCCCC1', 'O=C1C=CCCC1', 'C1=C2CCCCC2CCC1', 'C1CCC2CCCCC2C1']

>  <name>  (599) 
24-Ethylcholesta-4,22-dien-3-one

>  <formula>  (599) 
C29H46O

>  <SMILES>  (599) 
[H][C@]3([C@H](C)/C=C/C(CC)C(C)C)CC[C@@]4([H])[C@]2([H])CCC1=CC(=O)CC[C@]1(C)[C@@]2([H])CC[C@]34C

>  <ChEMBL_id>  (599) 


>  <ZINC_id>  (599) 


>  <PubChem_id>  (599) 


>  <DrugBank_id>  (599) 


>  <CAS_no>  (599) 
521079-80-1

>  <references>  (599) 
[{'journal': {'name': 'Journal of Natural Products', 'id': 5}, 'title': 'Cembranolides from the Leaves of Croton gratissimus', 'year': 2011, 'start_page': 2349, 'volume': 74, 'issue': None, 'doi': '10.1021/np2002012', 'isbn': '', 'despositor': {'code': 'NFA', 'first_name': 'Ngonidzashe', 'last_name': 'Faya', 'id': 21}, 'refauthors_set': [{'author': {'first_name': 'Moses', 'initials': 'MK', 'last_name': 'Langat', 'id': 730}, 'first_author': True, 'id': 1048}, {'author': {'first_name': 'Neil', 'initials': 'NR', 'last_name': 'Crouch', 'id': 524}, 'first_author': None, 'id': 1142}, {'author': {'first_name': 'Peter', 'initials': 'PJ', 'last_name': 'Smith', 'id': 490}, 'first_author': None, 'id': 1143}, {'author': {'first_name': 'Dulcie', 'initials': 'DA', 'last_name': 'Mulholland', 'id': 525}, 'first_author': None, 'id': 1144}], 'id': 351}]

>  <classifications>  (599) 
[{'classification': 'Steroids and steroid derivatives (Classyfire)', 'id': 942}]

>  <molecular_mass>  (599) 
410.67

$$$$
SANC00704_minRM1.pdb
     RDKit          3D

 30 32  0  0  0  0  0  0  0  0999 V2000
   -3.0640    0.4020    1.6760 C   0  0  0  0  0  0  0  0  0  0  0  0
   -3.0900    0.5480    0.1530 C   0  0  0  0  0  0  0  0  0  0  0  0
   -4.5180    0.4830   -0.3890 C   0  0  0  0  0  0  0  0  0  0  0  0
   -2.4170    1.8370   -0.2280 C   0  0  0  0  0  0  0  0  0  0  0  0
   -1.1010    1.8630   -0.4510 C   0  0  0  0  0  0  0  0  0  0  0  0
   -0.3520    0.6230   -0.3330 C   0  0  0  0  0  0  0  0  0  0  0  0
   -1.0810   -0.5580   -0.3070 C   0  0  0  0  0  0  0  0  0  0  0  0
   -2.4420   -0.5700   -0.4350 O   0  0  0  0  0  0  0  0  0  0  0  0
   -0.4400   -1.8120   -0.2130 C   0  0  0  0  0  0  0  0  0  0  0  0
   -1.0860   -2.9970   -0.2260 O   0  0  0  0  0  0  0  0  0  0  0  0
    0.9420   -1.8790   -0.0830 C   0  0  0  0  0  0  0  0  0  0  0  0
    1.6560   -0.6740   -0.0620 C   0  0  0  0  0  0  0  0  0  0  0  0
    2.9950   -0.8180    0.1210 O   0  0  0  0  0  0  0  0  0  0  0  0
    3.7860    0.3120    0.2070 C   0  0  0  0  0  0  0  0  0  0  0  0
    4.9440    0.0560    0.4710 O   0  0  0  0  0  0  0  0  0  0  0  0
    3.1940    1.6240   -0.0170 C   0  0  0  0  0  0  0  0  0  0  0  0
    1.8730    1.7500   -0.2140 C   0  0  0  0  0  0  0  0  0  0  0  0
    1.0440    0.5740   -0.2090 C   0  0  0  0  0  0  0  0  0  0  0  0
   -2.0390    0.4060    2.0740 H   0  0  0  0  0  0  0  0  0  0  0  0
   -3.6050    1.2210    2.1700 H   0  0  0  0  0  0  0  0  0  0  0  0
   -3.5300   -0.5380    2.0060 H   0  0  0  0  0  0  0  0  0  0  0  0
   -5.1410    1.2800    0.0430 H   0  0  0  0  0  0  0  0  0  0  0  0
   -4.5500    0.5960   -1.4820 H   0  0  0  0  0  0  0  0  0  0  0  0
   -5.0070   -0.4730   -0.1520 H   0  0  0  0  0  0  0  0  0  0  0  0
   -3.0460    2.7280   -0.2870 H   0  0  0  0  0  0  0  0  0  0  0  0
   -0.5670    2.7760   -0.7280 H   0  0  0  0  0  0  0  0  0  0  0  0
   -2.0320   -2.8550   -0.3440 H   0  0  0  0  0  0  0  0  0  0  0  0
    1.4570   -2.8410    0.0080 H   0  0  0  0  0  0  0  0  0  0  0  0
    3.8840    2.4720   -0.0080 H   0  0  0  0  0  0  0  0  0  0  0  0
    1.4090    2.7280   -0.3800 H   0  0  0  0  0  0  0  0  0  0  0  0
  1  2  1  0
  1 21  1  0
  1 19  1  0
  1 20  1  0
  2  8  1  0
  2  3  1  0
  2  4  1  0
  3 23  1  0
  3 24  1  0
  3 22  1  0
  4  5  2  0
  4 25  1  0
  5 26  1  0
  5  6  1  0
  6  7  2  0
  6 18  1  0
  7  8  1  0
  7  9  1  0
  9 10  1  0
  9 11  2  0
 10 27  1  0
 11 12  1  0
 11 28  1  0
 12 18  2  0
 12 13  1  0
 13 14  1  0
 14 16  1  0
 14 15  2  0
 16 17  2  0
 16 29  1  0
 17 30  1  0
 17 18  1  0
M  END
>  <id>  (600) 
704

>  <scaffolds>  (600) 
['c1ccccc1', 'O=c1ccc2ccccc2o1', 'C1=Cc2ccccc2OC1', 'O=c1ccc2c3c(ccc2o1)OCC=C3']

>  <name>  (600) 
Cedrecoumarin A

>  <formula>  (600) 
C14H12O4

>  <SMILES>  (600) 
CC1(C)C=Cc2c(O1)c(O)cc3oc(=O)ccc23

>  <ChEMBL_id>  (600) 


>  <ZINC_id>  (600) 


>  <PubChem_id>  (600) 


>  <DrugBank_id>  (600) 


>  <CAS_no>  (600) 
181637-89-8

>  <references>  (600) 
[{'journal': {'name': 'Journal of Natural Products', 'id': 5}, 'title': 'Bioactive Constituents of Cedrelopsis microfoliata', 'year': 2002, 'start_page': 1349, 'volume': 65, 'issue': 9, 'doi': '10.1021/np0200562', 'isbn': '', 'despositor': {'code': 'NFA', 'first_name': 'Ngonidzashe', 'last_name': 'Faya', 'id': 21}, 'refauthors_set': [{'author': {'first_name': 'Neil', 'initials': 'NA', 'last_name': 'Koorbanally', 'id': 699}, 'first_author': True, 'id': 1046}, {'author': {'first_name': 'Milijaona', 'initials': 'M', 'last_name': 'Randrianarivelojosia', 'id': 726}, 'first_author': None, 'id': 1136}, {'author': {'first_name': 'Dulcie', 'initials': 'DA', 'last_name': 'Mulholland', 'id': 525}, 'first_author': None, 'id': 1137}, {'author': {'first_name': 'Linda', 'initials': 'L', 'last_name': 'Quarles van Ufford,', 'id': 727}, 'first_author': None, 'id': 1138}, {'author': {'first_name': 'Albert', 'initials': 'AJJ', 'last_name': 'van den Berg', 'id': 728}, 'first_author': None, 'id': 1139}], 'id': 349}]

>  <classifications>  (600) 
[{'classification': 'Coumarins and derivatives (Classyfire)', 'id': 965}]

>  <molecular_mass>  (600) 
244.24

$$$$
SANC00705_minRM1.pdb
     RDKit          3D

 39 40  0  0  1  0  0  0  0  0999 V2000
    0.1600    3.2870   -0.4500 H   0  0  0  0  0  0  0  0  0  0  0  0
    0.1160    2.1680   -0.3530 C   0  0  1  0  0  0  0  0  0  0  0  0
    0.1160    1.7540    1.1250 C   0  0  0  0  0  0  0  0  0  0  0  0
   -1.1520    0.9020    1.2780 C   0  0  2  0  0  0  0  0  0  0  0  0
   -1.6500    1.0470    2.2700 H   0  0  0  0  0  0  0  0  0  0  0  0
   -0.8930   -0.4650    1.3270 O   0  0  0  0  0  0  0  0  0  0  0  0
   -0.4080   -1.1320    0.1840 C   0  0  2  0  0  0  0  0  0  0  0  0
   -1.0390   -0.9140   -0.7240 H   0  0  0  0  0  0  0  0  0  0  0  0
   -0.5860   -2.6210    0.5490 C   0  0  0  0  0  0  0  0  0  0  0  0
   -2.0450   -2.9760    0.7860 C   0  0  0  0  0  0  0  0  0  0  0  0
    1.0500   -0.7330   -0.0920 C   0  0  1  0  0  0  0  0  0  0  0  0
    1.5560   -0.2770    0.7870 H   0  0  0  0  0  0  0  0  0  0  0  0
    2.2370   -2.3710   -0.3580 Br  0  0  0  0  0  0  0  0  0  0  0  0
    1.2300    0.0610   -1.3720 C   0  0  0  0  0  0  0  0  0  0  0  0
    1.2270    1.5590   -1.1960 C   0  0  2  0  0  0  0  0  0  0  0  0
    1.3020    2.0680   -2.1810 H   0  0  0  0  0  0  0  0  0  0  0  0
    2.9690    2.1060   -0.3070 Br  0  0  0  0  0  0  0  0  0  0  0  0
   -2.0170    1.4350    0.1110 C   0  0  2  0  0  0  0  0  0  0  0  0
   -2.5090    2.3910    0.4460 H   0  0  0  0  0  0  0  0  0  0  0  0
   -3.0870    0.5080   -0.4580 C   0  0  0  0  0  0  0  0  0  0  0  0
   -4.0740    0.1790    0.6070 C   0  0  0  0  0  0  0  0  0  0  0  0
   -5.3930    0.3390    0.4710 C   0  0  0  0  0  0  0  0  0  0  0  0
   -5.9920    0.8540   -0.6950 C   0  0  0  0  0  0  0  0  0  0  0  0
   -6.5160    1.2820   -1.6640 C   0  0  0  0  0  0  0  0  0  0  0  0
   -1.1040    1.7340   -0.9250 O   0  0  0  0  0  0  0  0  0  0  0  0
    1.0400    1.2350    1.4530 H   0  0  0  0  0  0  0  0  0  0  0  0
    0.0740    2.6440    1.7850 H   0  0  0  0  0  0  0  0  0  0  0  0
   -0.1870   -3.2520   -0.2740 H   0  0  0  0  0  0  0  0  0  0  0  0
    0.0210   -2.8740    1.4440 H   0  0  0  0  0  0  0  0  0  0  0  0
   -2.4870   -2.4260    1.6300 H   0  0  0  0  0  0  0  0  0  0  0  0
   -2.6760   -2.7780   -0.0920 H   0  0  0  0  0  0  0  0  0  0  0  0
   -2.1590   -4.0450    1.0190 H   0  0  0  0  0  0  0  0  0  0  0  0
    2.1830   -0.2290   -1.8730 H   0  0  0  0  0  0  0  0  0  0  0  0
    0.4510   -0.2100   -2.1220 H   0  0  0  0  0  0  0  0  0  0  0  0
   -3.5580    0.9910   -1.3430 H   0  0  0  0  0  0  0  0  0  0  0  0
   -2.6480   -0.4290   -0.8690 H   0  0  0  0  0  0  0  0  0  0  0  0
   -3.6600   -0.2380    1.5330 H   0  0  0  0  0  0  0  0  0  0  0  0
   -6.0930    0.0720    1.2720 H   0  0  0  0  0  0  0  0  0  0  0  0
   -6.9850    1.6660   -2.5250 H   0  0  0  0  0  0  0  0  0  0  0  0
  2  1  1  1
  2 15  1  0
  2 25  1  0
  2  3  1  0
  3  4  1  0
  3 26  1  0
  3 27  1  0
  4 18  1  0
  4  6  1  0
  4  5  1  1
  6  7  1  0
  7  8  1  6
  7 11  1  0
  7  9  1  0
  9 28  1  0
  9 10  1  0
  9 29  1  0
 10 31  1  0
 10 32  1  0
 10 30  1  0
 11 14  1  0
 11 13  1  0
 11 12  1  1
 14 34  1  0
 14 33  1  0
 14 15  1  0
 15 16  1  6
 15 17  1  0
 18 25  1  0
 18 20  1  0
 18 19  1  1
 20 35  1  0
 20 36  1  0
 20 21  1  0
 21 22  2  0
 21 37  1  0
 22 23  1  0
 22 38  1  0
 23 24  3  0
 24 39  1  0
M  END
>  <id>  (601) 
705

>  <scaffolds>  (601) 
['C1CCC2CC(CO2)OC1']

>  <name>  (601) 
(3Z)-Bromofucin

>  <formula>  (601) 
C15H20Br2O2

>  <SMILES>  (601) 
[H][C@]12C[C@]([H])(O[C@H](CC)[C@@H](Br)C[C@@H]1Br)[C@H](C/C=C\C#C)O2

>  <ChEMBL_id>  (601) 


>  <ZINC_id>  (601) 


>  <PubChem_id>  (601) 


>  <DrugBank_id>  (601) 


>  <CAS_no>  (601) 
861958-67-0

>  <references>  (601) 
[{'journal': {'name': 'Natural Product Research', 'id': 18}, 'title': '(3Z)-Bromofucin from a South African sea hare', 'year': 2005, 'start_page': 449, 'volume': 19, 'issue': 5, 'doi': '10.1080/14786410412331271960', 'isbn': '', 'despositor': {'code': 'GU2', 'first_name': 'Gugu', 'last_name': 'Mahlangu', 'id': 24}, 'refauthors_set': [{'author': {'first_name': 'Michael', 'initials': 'MT', 'last_name': 'Davies-Coleman', 'id': 449}, 'first_author': False, 'id': 1390}, {'author': {'first_name': 'Kerry', 'initials': 'KL', 'last_name': 'McPhail', 'id': 483}, 'first_author': True, 'id': 1391}], 'id': 397}]

>  <classifications>  (601) 
[{'classification': 'Polyketide', 'id': 810}, {'classification': 'Acetogenin', 'id': 854}, {'classification': 'Tetrahydrofurans (Classyfire)', 'id': 958}]

>  <molecular_mass>  (601) 
392.13

$$$$
SANC00706_minRM1.pdb
     RDKit          3D

 84 85  0  0  1  0  0  0  0  0999 V2000
   -5.4360    1.2530    2.2330 C   0  0  0  0  0  0  0  0  0  0  0  0
   -5.9360    0.8570    0.8940 C   0  0  0  0  0  0  0  0  0  0  0  0
   -5.2310    0.9350   -0.2400 C   0  0  0  0  0  0  0  0  0  0  0  0
   -3.8170    1.4530   -0.2950 C   0  0  2  0  0  0  0  0  0  0  0  0
   -3.4710    1.7690    0.7330 H   0  0  0  0  0  0  0  0  0  0  0  0
   -3.7670    2.6970   -1.2160 C   0  0  1  0  0  0  0  0  0  0  0  0
   -4.7210    3.7570   -0.6790 C   0  0  0  0  0  0  0  0  0  0  0  0
   -2.3520    3.2570   -1.2690 C   0  0  0  0  0  0  0  0  0  0  0  0
   -2.9370    0.3760   -0.8020 N   0  0  0  0  0  0  0  0  0  0  0  0
   -3.1280   -0.0470   -2.1930 C   0  0  0  0  0  0  0  0  0  0  0  0
   -3.7530    0.6680   -2.7630 H   0  0  0  0  0  0  0  0  0  0  0  0
   -2.1650   -0.1080   -2.7350 H   0  0  0  0  0  0  0  0  0  0  0  0
   -3.6210   -1.0390   -2.2740 H   0  0  0  0  0  0  0  0  0  0  0  0
   -2.1400   -0.3580    0.0750 C   0  0  0  0  0  0  0  0  0  0  0  0
   -2.0470   -0.0190    1.2550 O   0  0  0  0  0  0  0  0  0  0  0  0
   -1.3300   -1.5560   -0.4530 C   0  0  1  0  0  0  0  0  0  0  0  0
   -1.3080   -1.5700   -1.5790 H   0  0  0  0  0  0  0  0  0  0  0  0
    0.0410   -1.3980    0.0360 N   0  0  0  0  0  0  0  0  0  0  0  0
    1.1470   -1.6350   -0.7650 C   0  0  0  0  0  0  0  0  0  0  0  0
    1.0240   -2.0270   -1.9250 O   0  0  0  0  0  0  0  0  0  0  0  0
    2.5390   -1.4360   -0.1320 C   0  0  1  0  0  0  0  0  0  0  0  0
    2.4720   -1.5960    0.9810 H   0  0  0  0  0  0  0  0  0  0  0  0
    3.4990   -2.4180   -0.6600 N   0  0  0  0  0  0  0  0  0  0  0  0
    3.1610   -3.8070   -0.3110 C   0  0  0  0  0  0  0  0  0  0  0  0
    3.1740   -3.9490    0.7850 H   0  0  0  0  0  0  0  0  0  0  0  0
    2.1850   -4.1860   -0.6680 H   0  0  0  0  0  0  0  0  0  0  0  0
    3.9320   -4.4810   -0.7250 H   0  0  0  0  0  0  0  0  0  0  0  0
    3.0530    0.0090   -0.3920 C   0  0  1  0  0  0  0  0  0  0  0  0
    3.1270    0.3150   -1.8880 C   0  0  0  0  0  0  0  0  0  0  0  0
    2.0890    0.9950    0.2770 C   0  0  0  0  0  0  0  0  0  0  0  0
    4.4010    0.1940    0.2080 C   0  0  0  0  0  0  0  0  0  0  0  0
    5.0800   -0.6660    1.0480 C   0  0  0  0  0  0  0  0  0  0  0  0
    6.3040   -0.0840    1.4170 N   0  0  0  0  0  0  0  0  0  0  0  0
    7.3530   -0.7270    2.1900 C   0  0  0  0  0  0  0  0  0  0  0  0
    8.1580   -1.1260    1.5470 H   0  0  0  0  0  0  0  0  0  0  0  0
    7.8160   -0.0170    2.8980 H   0  0  0  0  0  0  0  0  0  0  0  0
    6.9530   -1.5700    2.7790 H   0  0  0  0  0  0  0  0  0  0  0  0
    6.4220    1.1480    0.7690 C   0  0  0  0  0  0  0  0  0  0  0  0
    7.4620    2.0840    0.8010 C   0  0  0  0  0  0  0  0  0  0  0  0
    7.2890    3.2370    0.0680 C   0  0  0  0  0  0  0  0  0  0  0  0
    6.1210    3.4590   -0.6860 C   0  0  0  0  0  0  0  0  0  0  0  0
    5.1010    2.5330   -0.7170 C   0  0  0  0  0  0  0  0  0  0  0  0
    5.2340    1.3520    0.0160 C   0  0  0  0  0  0  0  0  0  0  0  0
   -1.9820   -2.8820    0.0310 C   0  0  1  0  0  0  0  0  0  0  0  0
   -3.4440   -2.9060   -0.4150 C   0  0  0  0  0  0  0  0  0  0  0  0
   -1.2410   -4.0470   -0.6280 C   0  0  0  0  0  0  0  0  0  0  0  0
   -1.9230   -3.0510    1.5450 C   0  0  0  0  0  0  0  0  0  0  0  0
   -7.3190    0.3490    0.8180 C   0  0  0  0  0  0  0  0  0  0  0  0
   -7.8370   -0.2530   -0.1120 O   0  0  0  0  0  0  0  0  0  0  0  0
   -8.0630    0.6070    1.9160 O   0  0  0  0  0  0  0  0  0  0  0  0
   -5.9570    2.1530    2.6020 H   0  0  0  0  0  0  0  0  0  0  0  0
   -5.6040    0.4620    2.9800 H   0  0  0  0  0  0  0  0  0  0  0  0
   -4.3550    1.4690    2.2400 H   0  0  0  0  0  0  0  0  0  0  0  0
   -5.6680    0.6210   -1.1970 H   0  0  0  0  0  0  0  0  0  0  0  0
   -4.0880    2.4110   -2.2540 H   0  0  0  0  0  0  0  0  0  0  0  0
   -4.4800    4.0590    0.3510 H   0  0  0  0  0  0  0  0  0  0  0  0
   -4.6950    4.6720   -1.2890 H   0  0  0  0  0  0  0  0  0  0  0  0
   -5.7680    3.4190   -0.6740 H   0  0  0  0  0  0  0  0  0  0  0  0
   -1.9730    3.5370   -0.2760 H   0  0  0  0  0  0  0  0  0  0  0  0
   -1.6330    2.5420   -1.6930 H   0  0  0  0  0  0  0  0  0  0  0  0
   -2.2960    4.1610   -1.8930 H   0  0  0  0  0  0  0  0  0  0  0  0
    0.1590   -1.1000    1.0010 H   0  0  0  0  0  0  0  0  0  0  0  0
    3.6080   -2.3190   -1.6790 H   0  0  0  0  0  0  0  0  0  0  0  0
    2.2060    0.0750   -2.4340 H   0  0  0  0  0  0  0  0  0  0  0  0
    3.3050    1.3890   -2.0720 H   0  0  0  0  0  0  0  0  0  0  0  0
    3.9510   -0.2110   -2.3900 H   0  0  0  0  0  0  0  0  0  0  0  0
    1.8930    0.7480    1.3300 H   0  0  0  0  0  0  0  0  0  0  0  0
    2.4930    2.0190    0.2840 H   0  0  0  0  0  0  0  0  0  0  0  0
    1.1190    1.0550   -0.2370 H   0  0  0  0  0  0  0  0  0  0  0  0
    4.8070   -1.6500    1.4200 H   0  0  0  0  0  0  0  0  0  0  0  0
    8.3690    1.9030    1.3800 H   0  0  0  0  0  0  0  0  0  0  0  0
    8.0740    3.9990    0.0630 H   0  0  0  0  0  0  0  0  0  0  0  0
    6.0340    4.3860   -1.2630 H   0  0  0  0  0  0  0  0  0  0  0  0
    4.2010    2.7040   -1.3170 H   0  0  0  0  0  0  0  0  0  0  0  0
   -3.5620   -2.6870   -1.4890 H   0  0  0  0  0  0  0  0  0  0  0  0
   -3.9080   -3.8890   -0.2440 H   0  0  0  0  0  0  0  0  0  0  0  0
   -4.0660   -2.1800    0.1280 H   0  0  0  0  0  0  0  0  0  0  0  0
   -0.1930   -4.1110   -0.3040 H   0  0  0  0  0  0  0  0  0  0  0  0
   -1.6990   -5.0170   -0.3830 H   0  0  0  0  0  0  0  0  0  0  0  0
   -1.2290   -3.9760   -1.7250 H   0  0  0  0  0  0  0  0  0  0  0  0
   -2.4790   -2.2780    2.0930 H   0  0  0  0  0  0  0  0  0  0  0  0
   -2.3620   -4.0130    1.8540 H   0  0  0  0  0  0  0  0  0  0  0  0
   -0.8970   -3.0490    1.9400 H   0  0  0  0  0  0  0  0  0  0  0  0
   -8.9590    0.2560    1.8200 H   0  0  0  0  0  0  0  0  0  0  0  0
  1  2  1  0
  1 53  1  0
  1 51  1  0
  1 52  1  0
  2  3  2  0
  2 48  1  0
  3 54  1  0
  3  4  1  0
  4  6  1  0
  4  9  1  0
  4  5  1  1
  6 55  1  6
  6  8  1  0
  6  7  1  0
  7 57  1  0
  7 58  1  0
  7 56  1  0
  8 61  1  0
  8 60  1  0
  8 59  1  0
  9 10  1  0
  9 14  1  0
 10 11  1  0
 10 12  1  0
 10 13  1  0
 14 16  1  0
 14 15  2  0
 16 17  1  6
 16 44  1  0
 16 18  1  0
 18 19  1  0
 18 62  1  0
 19 20  2  0
 19 21  1  0
 21 23  1  0
 21 28  1  0
 21 22  1  1
 23 63  1  0
 23 24  1  0
 24 27  1  0
 24 26  1  0
 24 25  1  0
 28 29  1  6
 28 31  1  0
 28 30  1  0
 29 64  1  0
 29 66  1  0
 29 65  1  0
 30 69  1  0
 30 68  1  0
 30 67  1  0
 31 43  1  0
 31 32  2  0
 32 33  1  0
 32 70  1  0
 33 38  1  0
 33 34  1  0
 34 35  1  0
 34 37  1  0
 34 36  1  0
 38 43  2  0
 38 39  1  0
 39 40  2  0
 39 71  1  0
 40 41  1  0
 40 72  1  0
 41 73  1  0
 41 42  2  0
 42 74  1  0
 42 43  1  0
 44 46  1  6
 44 45  1  0
 44 47  1  0
 45 75  1  0
 45 76  1  0
 45 77  1  0
 46 80  1  0
 46 79  1  0
 46 78  1  0
 47 82  1  0
 47 83  1  0
 47 81  1  0
 48 49  2  0
 48 50  1  0
 50 84  1  0
M  END
>  <id>  (602) 
706

>  <scaffolds>  (602) 
['c1ccccc1', 'c1ccc2[nH]ccc2c1']

>  <name>  (602) 
Hemiasterlin

>  <formula>  (602) 
C30H46N4O4

>  <SMILES>  (602) 
C/C(=C\[C@H](C(C)C)N([CH3])C(=O)[C@@H](NC(=O)[C@@H](N[CH3])C(C)(C)c1cn([CH3])c2ccccc12)C(C)(C)C)C(=O)O

>  <ChEMBL_id>  (602) 


>  <ZINC_id>  (602) 


>  <PubChem_id>  (602) 


>  <DrugBank_id>  (602) 


>  <CAS_no>  (602) 
157207-90-4

>  <references>  (602) 
[{'journal': {'name': 'Tetrahedron Letters', 'id': 3}, 'title': 'Hemiasterlin and geodiamolide TA; two new cytotoxic peptides from the marine sponge Hemiasterella minor (Kirkpatrick)', 'year': 1994, 'start_page': 4453, 'volume': 35, 'issue': 25, 'doi': '10.1016/S0040-4039(00)73382-X', 'isbn': '', 'despositor': {'code': 'GU2', 'first_name': 'Gugu', 'last_name': 'Mahlangu', 'id': 24}, 'refauthors_set': [{'author': {'first_name': 'Ravit', 'initials': 'R', 'last_name': 'Talpir', 'id': 846}, 'first_author': True, 'id': 1392}, {'author': {'first_name': 'Yehuda', 'initials': 'Y', 'last_name': 'Benayahu', 'id': 535}, 'first_author': None, 'id': 1393}, {'author': {'first_name': 'Yoel', 'initials': 'Y', 'last_name': 'Kashman', 'id': 536}, 'first_author': None, 'id': 1394}, {'author': {'first_name': '', 'initials': 'L', 'last_name': 'Pannell', 'id': 847}, 'first_author': None, 'id': 1395}, {'author': {'first_name': 'Michael', 'initials': 'M', 'last_name': 'Schleyer', 'id': 452}, 'first_author': None, 'id': 1396}], 'id': 398}]

>  <classifications>  (602) 
[{'classification': 'Tripeptide', 'id': 853}, {'classification': 'Carboxylic acids and derivatives (Classyfire)', 'id': 950}]

>  <molecular_mass>  (602) 
526.71

$$$$
SANC00707_minRM1.pdb
     RDKit          3D

 84 85  0  0  1  0  0  0  0  0999 V2000
   -4.5160    1.9270   -1.4250 C   0  0  0  0  0  0  0  0  0  0  0  0
   -5.4960    2.1140   -0.3300 C   0  0  0  0  0  0  0  0  0  0  0  0
   -6.2950    1.1370    0.1120 C   0  0  0  0  0  0  0  0  0  0  0  0
   -6.3860   -0.2580   -0.4230 C   0  0  1  0  0  0  0  0  0  0  0  0
   -6.9370   -0.2180   -1.8460 C   0  0  0  0  0  0  0  0  0  0  0  0
   -5.0330   -0.9750   -0.3350 C   0  0  0  0  0  0  0  0  0  0  0  0
   -5.2010   -2.4570    0.0300 C   0  0  1  0  0  0  0  0  0  0  0  0
   -5.6880   -3.3200   -1.1290 C   0  0  0  0  0  0  0  0  0  0  0  0
   -4.0070   -2.9810    0.5740 O   0  0  0  0  0  0  0  0  0  0  0  0
   -2.8700   -3.0170   -0.1520 C   0  0  0  0  0  0  0  0  0  0  0  0
   -2.8350   -2.7130   -1.3280 O   0  0  0  0  0  0  0  0  0  0  0  0
   -1.6930   -3.4920    0.6940 C   0  0  1  0  0  0  0  0  0  0  0  0
   -1.3780   -4.9670    0.3680 C   0  0  1  0  0  0  0  0  0  0  0  0
   -2.5000   -5.8400    0.9200 C   0  0  0  0  0  0  0  0  0  0  0  0
   -1.2190   -5.2260   -1.1240 C   0  0  0  0  0  0  0  0  0  0  0  0
   -0.5450   -2.6230    0.4300 N   0  0  0  0  0  0  0  0  0  0  0  0
   -0.5310   -1.3330    0.9420 C   0  0  0  0  0  0  0  0  0  0  0  0
   -1.4520   -0.9230    1.6410 O   0  0  0  0  0  0  0  0  0  0  0  0
    0.7430   -0.4980    0.7340 C   0  0  1  0  0  0  0  0  0  0  0  0
    1.2970   -0.5910   -0.6980 C   0  0  0  0  0  0  0  0  0  0  0  0
    2.5330    0.2380   -0.8150 C   0  0  0  0  0  0  0  0  0  0  0  0
    2.5110    1.4610   -1.4900 C   0  0  0  0  0  0  0  0  0  0  0  0
    3.6530    2.2360   -1.5830 C   0  0  0  0  0  0  0  0  0  0  0  0
    4.8440    1.7800   -0.9880 C   0  0  0  0  0  0  0  0  0  0  0  0
    5.9020    2.6070   -1.1350 O   0  0  0  0  0  0  0  0  0  0  0  0
    4.8600    0.5620   -0.3320 C   0  0  0  0  0  0  0  0  0  0  0  0
    6.5090   -0.1650    0.5180 I   0  0  0  0  0  0  0  0  0  0  0  0
    3.7160   -0.2090   -0.2390 C   0  0  0  0  0  0  0  0  0  0  0  0
    0.4800    0.9010    1.1340 N   0  0  0  0  0  0  0  0  0  0  0  0
    0.6980    1.1360    2.5730 C   0  0  0  0  0  0  0  0  0  0  0  0
    1.7780    1.2020    2.7760 H   0  0  0  0  0  0  0  0  0  0  0  0
    0.2470    2.0780    2.9350 H   0  0  0  0  0  0  0  0  0  0  0  0
    0.2780    0.3420    3.2190 H   0  0  0  0  0  0  0  0  0  0  0  0
   -0.5390    1.6100    0.4600 C   0  0  0  0  0  0  0  0  0  0  0  0
   -1.0210    1.1820   -0.5820 O   0  0  0  0  0  0  0  0  0  0  0  0
   -0.8830    3.0160    0.9780 C   0  0  1  0  0  0  0  0  0  0  0  0
    0.2930    3.9330    0.6210 C   0  0  0  0  0  0  0  0  0  0  0  0
   -2.1000    3.5160    0.3430 N   0  0  0  0  0  0  0  0  0  0  0  0
   -3.2910    3.6800    1.0390 C   0  0  0  0  0  0  0  0  0  0  0  0
   -3.3780    3.3560    2.2210 O   0  0  0  0  0  0  0  0  0  0  0  0
   -4.4470    4.4030    0.3660 C   0  0  1  0  0  0  0  0  0  0  0  0
   -4.1210    5.1200   -0.9350 C   0  0  0  0  0  0  0  0  0  0  0  0
   -5.6660    3.4820    0.2610 C   0  0  0  0  0  0  0  0  0  0  0  0
   -3.5410    1.5850   -1.0320 H   0  0  0  0  0  0  0  0  0  0  0  0
   -4.8330    1.1740   -2.1680 H   0  0  0  0  0  0  0  0  0  0  0  0
   -4.3390    2.8420   -2.0160 H   0  0  0  0  0  0  0  0  0  0  0  0
   -6.9890    1.3350    0.9390 H   0  0  0  0  0  0  0  0  0  0  0  0
   -7.1330   -0.8110    0.2090 H   0  0  0  0  0  0  0  0  0  0  0  0
   -6.2670    0.3080   -2.5460 H   0  0  0  0  0  0  0  0  0  0  0  0
   -7.0970   -1.2200   -2.2650 H   0  0  0  0  0  0  0  0  0  0  0  0
   -7.9060    0.3010   -1.8900 H   0  0  0  0  0  0  0  0  0  0  0  0
   -4.4590   -0.8630   -1.2760 H   0  0  0  0  0  0  0  0  0  0  0  0
   -4.3950   -0.4830    0.4330 H   0  0  0  0  0  0  0  0  0  0  0  0
   -5.8730   -2.5780    0.9220 H   0  0  0  0  0  0  0  0  0  0  0  0
   -5.2440   -3.0460   -2.0950 H   0  0  0  0  0  0  0  0  0  0  0  0
   -5.4620   -4.3880   -0.9730 H   0  0  0  0  0  0  0  0  0  0  0  0
   -6.7800   -3.2470   -1.2420 H   0  0  0  0  0  0  0  0  0  0  0  0
   -1.9490   -3.4080    1.7920 H   0  0  0  0  0  0  0  0  0  0  0  0
   -0.4210   -5.2380    0.8890 H   0  0  0  0  0  0  0  0  0  0  0  0
   -3.4800   -5.5960    0.4840 H   0  0  0  0  0  0  0  0  0  0  0  0
   -2.3210   -6.9050    0.7120 H   0  0  0  0  0  0  0  0  0  0  0  0
   -2.6080   -5.7470    2.0100 H   0  0  0  0  0  0  0  0  0  0  0  0
   -0.5170   -4.5410   -1.6130 H   0  0  0  0  0  0  0  0  0  0  0  0
   -0.8310   -6.2420   -1.3090 H   0  0  0  0  0  0  0  0  0  0  0  0
   -2.1660   -5.1520   -1.6760 H   0  0  0  0  0  0  0  0  0  0  0  0
    0.1220   -2.9060   -0.2770 H   0  0  0  0  0  0  0  0  0  0  0  0
    1.5220   -0.9250    1.4310 H   0  0  0  0  0  0  0  0  0  0  0  0
    1.5430   -1.6510   -0.9380 H   0  0  0  0  0  0  0  0  0  0  0  0
    0.5430   -0.3220   -1.4660 H   0  0  0  0  0  0  0  0  0  0  0  0
    1.5800    1.8160   -1.9460 H   0  0  0  0  0  0  0  0  0  0  0  0
    3.6410    3.1950   -2.1060 H   0  0  0  0  0  0  0  0  0  0  0  0
    6.6540    2.2750   -0.6260 H   0  0  0  0  0  0  0  0  0  0  0  0
    3.7580   -1.1700    0.2850 H   0  0  0  0  0  0  0  0  0  0  0  0
   -1.0120    2.9830    2.0990 H   0  0  0  0  0  0  0  0  0  0  0  0
    0.4820    3.9810   -0.4610 H   0  0  0  0  0  0  0  0  0  0  0  0
    0.1200    4.9640    0.9600 H   0  0  0  0  0  0  0  0  0  0  0  0
    1.2290    3.5960    1.0900 H   0  0  0  0  0  0  0  0  0  0  0  0
   -2.0690    3.6090   -0.6660 H   0  0  0  0  0  0  0  0  0  0  0  0
   -4.7200    5.2180    1.0980 H   0  0  0  0  0  0  0  0  0  0  0  0
   -3.9550    4.4430   -1.7900 H   0  0  0  0  0  0  0  0  0  0  0  0
   -4.9480    5.7810   -1.2410 H   0  0  0  0  0  0  0  0  0  0  0  0
   -3.2330    5.7660   -0.8470 H   0  0  0  0  0  0  0  0  0  0  0  0
   -6.4580    4.0000   -0.3270 H   0  0  0  0  0  0  0  0  0  0  0  0
   -6.0940    3.3920    1.2880 H   0  0  0  0  0  0  0  0  0  0  0  0
  1 45  1  0
  1 46  1  0
  1 44  1  0
  1  2  1  0
  2  3  2  0
  2 43  1  0
  3  4  1  0
  3 47  1  0
  4  5  1  0
  4  6  1  0
  4 48  1  1
  5 49  1  0
  5 50  1  0
  5 51  1  0
  6 52  1  0
  6  7  1  0
  6 53  1  0
  7  8  1  0
  7  9  1  0
  7 54  1  1
  8 55  1  0
  8 57  1  0
  8 56  1  0
  9 10  1  0
 10 11  2  0
 10 12  1  0
 12 13  1  0
 12 16  1  0
 12 58  1  1
 13 15  1  0
 13 59  1  1
 13 14  1  0
 14 60  1  0
 14 61  1  0
 14 62  1  0
 15 65  1  0
 15 63  1  0
 15 64  1  0
 16 66  1  0
 16 17  1  0
 17 19  1  0
 17 18  2  0
 19 20  1  0
 19 29  1  0
 19 67  1  1
 20 69  1  0
 20 68  1  0
 20 21  1  0
 21 22  2  0
 21 28  1  0
 22 70  1  0
 22 23  1  0
 23 71  1  0
 23 24  2  0
 24 25  1  0
 24 26  1  0
 25 72  1  0
 26 28  2  0
 26 27  1  0
 28 73  1  0
 29 34  1  0
 29 30  1  0
 30 31  1  0
 30 32  1  0
 30 33  1  0
 34 35  2  0
 34 36  1  0
 36 38  1  0
 36 37  1  0
 36 74  1  1
 37 75  1  0
 37 76  1  0
 37 77  1  0
 38 78  1  0
 38 39  1  0
 39 41  1  0
 39 40  2  0
 41 42  1  0
 41 43  1  0
 41 79  1  1
 42 80  1  0
 42 81  1  0
 42 82  1  0
 43 83  1  0
 43 84  1  0
M  END
>  <id>  (603) 
707

>  <scaffolds>  (603) 
['c1ccccc1', 'O=C1CCC=CCCCOC(=O)CNC(=O)C(Cc2ccccc2)NC(=O)CN1']

>  <name>  (603) 
Geodiamolide TA

>  <formula>  (603) 
C30H44IN3O6

>  <SMILES>  (603) 
CC2=CC(C)CC(C)OC(=O)C(C(C)C)NC(=O)C(Cc1ccc(O)c(I)c1)N([CH3])C(=O)C(C)NC(=O)C(C)C2

>  <ChEMBL_id>  (603) 


>  <ZINC_id>  (603) 


>  <PubChem_id>  (603) 


>  <DrugBank_id>  (603) 


>  <CAS_no>  (603) 
157207-91-5

>  <references>  (603) 
[{'journal': {'name': 'Tetrahedron Letters', 'id': 3}, 'title': 'Hemiasterlin and geodiamolide TA; two new cytotoxic peptides from the marine sponge Hemiasterella minor (Kirkpatrick)', 'year': 1994, 'start_page': 4453, 'volume': 35, 'issue': 25, 'doi': '10.1016/S0040-4039(00)73382-X', 'isbn': '', 'despositor': {'code': 'GU2', 'first_name': 'Gugu', 'last_name': 'Mahlangu', 'id': 24}, 'refauthors_set': [{'author': {'first_name': 'Ravit', 'initials': 'R', 'last_name': 'Talpir', 'id': 846}, 'first_author': True, 'id': 1392}, {'author': {'first_name': 'Yehuda', 'initials': 'Y', 'last_name': 'Benayahu', 'id': 535}, 'first_author': None, 'id': 1393}, {'author': {'first_name': 'Yoel', 'initials': 'Y', 'last_name': 'Kashman', 'id': 536}, 'first_author': None, 'id': 1394}, {'author': {'first_name': '', 'initials': 'L', 'last_name': 'Pannell', 'id': 847}, 'first_author': None, 'id': 1395}, {'author': {'first_name': 'Michael', 'initials': 'M', 'last_name': 'Schleyer', 'id': 452}, 'first_author': None, 'id': 1396}], 'id': 398}]

>  <classifications>  (603) 
[{'classification': 'Cyclic peptide', 'id': 765}, {'classification': 'Peptidomimetics (Classyfire)', 'id': 994}]

>  <molecular_mass>  (603) 
669.59

$$$$
SANC00708_minRM1.pdb
     RDKit          3D

 44 45  0  0  0  0  0  0  0  0999 V2000
    3.2320    2.0800    1.4190 O   0  0  0  0  0  0  0  0  0  0  0  0
    2.8310    1.2650    0.4170 C   0  0  0  0  0  0  0  0  0  0  0  0
    3.5310    0.1190    0.0160 C   0  0  0  0  0  0  0  0  0  0  0  0
    4.6970   -0.1290    0.6710 O   0  0  0  0  0  0  0  0  0  0  0  0
    3.0400   -0.6520   -1.0450 C   0  0  0  0  0  0  0  0  0  0  0  0
    3.8230   -1.7190   -1.3790 O   0  0  0  0  0  0  0  0  0  0  0  0
    3.1860   -2.7720   -2.0620 C   0  0  0  0  0  0  0  0  0  0  0  0
    2.2440   -3.1020   -1.5940 H   0  0  0  0  0  0  0  0  0  0  0  0
    2.9970   -2.5300   -3.1210 H   0  0  0  0  0  0  0  0  0  0  0  0
    3.9170   -3.5940   -2.0160 H   0  0  0  0  0  0  0  0  0  0  0  0
    1.8580   -0.2990   -1.6900 C   0  0  0  0  0  0  0  0  0  0  0  0
    1.1680    0.8330   -1.2740 C   0  0  0  0  0  0  0  0  0  0  0  0
    1.6390    1.6220   -0.2290 C   0  0  0  0  0  0  0  0  0  0  0  0
    0.9100    2.8200    0.1660 C   0  0  0  0  0  0  0  0  0  0  0  0
   -0.4010    2.8230    0.4110 C   0  0  0  0  0  0  0  0  0  0  0  0
   -1.2180    1.6130    0.3880 C   0  0  0  0  0  0  0  0  0  0  0  0
   -0.7910    0.4950    1.1000 C   0  0  0  0  0  0  0  0  0  0  0  0
   -1.5780   -0.6550    1.0810 C   0  0  0  0  0  0  0  0  0  0  0  0
   -1.3140   -1.8090    1.7520 O   0  0  0  0  0  0  0  0  0  0  0  0
   -0.0370   -1.9330    2.3260 C   0  0  0  0  0  0  0  0  0  0  0  0
   -0.0210   -2.9730    2.6880 H   0  0  0  0  0  0  0  0  0  0  0  0
    0.7870   -1.7940    1.6080 H   0  0  0  0  0  0  0  0  0  0  0  0
    0.1150   -1.2580    3.1850 H   0  0  0  0  0  0  0  0  0  0  0  0
   -2.7690   -0.6870    0.3450 C   0  0  0  0  0  0  0  0  0  0  0  0
   -3.4650   -1.8550    0.2150 O   0  0  0  0  0  0  0  0  0  0  0  0
   -4.4170   -2.0190    1.2420 C   0  0  0  0  0  0  0  0  0  0  0  0
   -3.9640   -2.0640    2.2470 H   0  0  0  0  0  0  0  0  0  0  0  0
   -5.1890   -1.2320    1.2410 H   0  0  0  0  0  0  0  0  0  0  0  0
   -4.8900   -2.9860    1.0190 H   0  0  0  0  0  0  0  0  0  0  0  0
   -3.1970    0.4640   -0.3300 C   0  0  0  0  0  0  0  0  0  0  0  0
   -4.4020    0.3200   -0.9450 O   0  0  0  0  0  0  0  0  0  0  0  0
   -4.8230    1.3680   -1.7820 C   0  0  0  0  0  0  0  0  0  0  0  0
   -5.0470    2.2960   -1.2320 H   0  0  0  0  0  0  0  0  0  0  0  0
   -4.1160    1.5920   -2.5970 H   0  0  0  0  0  0  0  0  0  0  0  0
   -5.7580    0.9840   -2.2170 H   0  0  0  0  0  0  0  0  0  0  0  0
   -2.4190    1.6200   -0.3170 C   0  0  0  0  0  0  0  0  0  0  0  0
    4.0340    1.7310    1.8260 H   0  0  0  0  0  0  0  0  0  0  0  0
    4.9260   -1.0560    0.5580 H   0  0  0  0  0  0  0  0  0  0  0  0
    1.4610   -0.8850   -2.5210 H   0  0  0  0  0  0  0  0  0  0  0  0
    0.2400    1.1130   -1.7850 H   0  0  0  0  0  0  0  0  0  0  0  0
    1.5080    3.7350    0.2440 H   0  0  0  0  0  0  0  0  0  0  0  0
   -0.9290    3.7490    0.6630 H   0  0  0  0  0  0  0  0  0  0  0  0
    0.1420    0.5520    1.6650 H   0  0  0  0  0  0  0  0  0  0  0  0
   -2.7200    2.5290   -0.8400 H   0  0  0  0  0  0  0  0  0  0  0  0
  1  2  1  0
  1 37  1  0
  2 13  2  0
  2  3  1  0
  3  5  2  0
  3  4  1  0
  4 38  1  0
  5 11  1  0
  5  6  1  0
  6  7  1  0
  7  9  1  0
  7 10  1  0
  7  8  1  0
 11 39  1  0
 11 12  2  0
 12 40  1  0
 12 13  1  0
 13 14  1  0
 14 41  1  0
 14 15  2  0
 15 16  1  0
 15 42  1  0
 16 36  2  0
 16 17  1  0
 17 18  2  0
 17 43  1  0
 18 24  1  0
 18 19  1  0
 19 20  1  0
 20 22  1  0
 20 21  1  0
 20 23  1  0
 24 30  2  0
 24 25  1  0
 25 26  1  0
 26 29  1  0
 26 28  1  0
 26 27  1  0
 30 31  1  0
 30 36  1  0
 31 32  1  0
 32 34  1  0
 32 35  1  0
 32 33  1  0
 36 44  1  0
M  END
>  <id>  (604) 
708

>  <scaffolds>  (604) 
['c1ccccc1', 'C(=Cc1ccccc1)c1ccccc1']

>  <name>  (604) 
Combretastatin A-1

>  <formula>  (604) 
C18H20O6

>  <SMILES>  (604) 
Oc1c(O)c(O[CH3])ccc1/C=C\c2cc(O[CH3])c(O[CH3])c(O[CH3])c2

>  <ChEMBL_id>  (604) 


>  <ZINC_id>  (604) 


>  <PubChem_id>  (604) 


>  <DrugBank_id>  (604) 


>  <CAS_no>  (604) 
109971-63-3

>  <references>  (604) 
[{'journal': {'name': 'Tetrahedron Letters', 'id': 3}, 'title': 'Synthesis of combretastatins A-1 and B-1', 'year': 2006, 'start_page': 1101, 'volume': 47, 'issue': 7, 'doi': '10.1016/j.tetlet.2005.12.037', 'isbn': '', 'despositor': {'code': 'GU2', 'first_name': 'Gugu', 'last_name': 'Mahlangu', 'id': 24}, 'refauthors_set': [{'author': {'first_name': 'Kristin', 'initials': 'K', 'last_name': 'Odlo', 'id': 848}, 'first_author': True, 'id': 1402}, {'author': {'first_name': 'Jo', 'initials': 'J', 'last_name': 'Klaveness', 'id': 849}, 'first_author': None, 'id': 1403}, {'author': {'first_name': 'Pal', 'initials': 'P', 'last_name': 'Rongved', 'id': 850}, 'first_author': None, 'id': 1404}, {'author': {'first_name': 'Trond', 'initials': 'TV', 'last_name': 'Hansen', 'id': 851}, 'first_author': None, 'id': 1405}], 'id': 399}, {'journal': {'name': 'Journal of Natural Products', 'id': 5}, 'title': 'Antineoplastic agents. Part 123. Isolation, structure, and synthesis of combretastatins A-1 and B-1, potent new inhibitors of microtubule assembly, derived from Combretum caffrum', 'year': 1987, 'start_page': 119, 'volume': 50, 'issue': 1, 'doi': '10.1021/np50049a016', 'isbn': '', 'despositor': {'code': 'GU2', 'first_name': 'Gugu', 'last_name': 'Mahlangu', 'id': 24}, 'refauthors_set': [{'author': {'first_name': 'George', 'initials': 'GR', 'last_name': 'Pettit', 'id': 478}, 'first_author': True, 'id': 1397}, {'author': {'first_name': 'Sheo', 'initials': 'SB', 'last_name': 'Singh', 'id': 781}, 'first_author': None, 'id': 1398}, {'author': {'first_name': 'Margaret', 'initials': 'L', 'last_name': 'Niven ', 'id': 702}, 'first_author': None, 'id': 1399}, {'author': {'first_name': 'Ernest', 'initials': 'E', 'last_name': 'Hamel', 'id': 841}, 'first_author': None, 'id': 1400}, {'author': {'first_name': 'Jean', 'initials': 'JM', 'last_name': 'Schmidt', 'id': 839}, 'first_author': None, 'id': 1401}], 'id': 400}, {'journal': {'name': 'Drug Discovery in Africa: Impacts of Genomics, Natural Products, Traditional Medicines, Insights into Medicinal Chemistry, and Technology Platforms in Pursuit of New Drugs (Book)', 'id': 38}, 'title': 'The National Cancer Institute and Natural Product-Based Drug Discovery in Africa', 'year': 2012, 'start_page': 37, 'volume': None, 'issue': None, 'doi': '10.1007/978-3-642-28175-4', 'isbn': '978-3-642-28174-7', 'despositor': {'code': 'GU2', 'first_name': 'Gugu', 'last_name': 'Mahlangu', 'id': 24}, 'refauthors_set': [{'author': {'first_name': 'John', 'initials': 'JA', 'last_name': 'Beutler', 'id': 710}, 'first_author': True, 'id': 1406}, {'author': {'first_name': 'Gordon', 'initials': 'GM', 'last_name': 'Cragg', 'id': 672}, 'first_author': None, 'id': 1407}, {'author': {'first_name': 'David', 'initials': 'DJ', 'last_name': 'Newman', 'id': 855}, 'first_author': None, 'id': 1408}], 'id': 401}]

>  <classifications>  (604) 
[{'classification': 'cis-Stilbene', 'id': 855}, {'classification': 'Stilbenes (Classyfire)', 'id': 988}]

>  <molecular_mass>  (604) 
332.35

$$$$
SANC00709_minRM1.pdb
     RDKit          3D

 39 42  0  0  1  0  0  0  0  0999 V2000
   -1.2200    2.9370   -1.6800 O   0  0  0  0  0  0  0  0  0  0  0  0
   -1.3010    2.3730   -0.6010 C   0  0  0  0  0  0  0  0  0  0  0  0
   -0.3530    2.5590    0.5600 C   0  0  0  0  0  0  0  0  0  0  0  0
    1.0730    2.9000    0.1030 C   0  0  0  0  0  0  0  0  0  0  0  0
    1.9830    1.7160    0.1590 C   0  0  0  0  0  0  0  0  0  0  0  0
    3.2760    1.8430    0.6630 C   0  0  0  0  0  0  0  0  0  0  0  0
    4.1230    0.7470    0.7270 C   0  0  0  0  0  0  0  0  0  0  0  0
    3.6650   -0.5070    0.3070 C   0  0  0  0  0  0  0  0  0  0  0  0
    4.5560   -1.5220    0.3980 O   0  0  0  0  0  0  0  0  0  0  0  0
    2.3690   -0.6300   -0.2080 C   0  0  0  0  0  0  0  0  0  0  0  0
    1.5420    0.4860   -0.3140 C   0  0  0  0  0  0  0  0  0  0  0  0
    1.9870   -1.8890   -0.6190 O   0  0  0  0  0  0  0  0  0  0  0  0
    0.6240   -2.0570   -0.4610 C   0  0  0  0  0  0  0  0  0  0  0  0
   -0.1740   -2.0060   -1.6030 C   0  0  0  0  0  0  0  0  0  0  0  0
   -1.5500   -1.9400   -1.4300 C   0  0  0  0  0  0  0  0  0  0  0  0
   -2.0880   -1.9160   -0.1440 C   0  0  0  0  0  0  0  0  0  0  0  0
   -1.2850   -2.1520    0.9700 C   0  0  0  0  0  0  0  0  0  0  0  0
    0.0940   -2.2100    0.8180 C   0  0  0  0  0  0  0  0  0  0  0  0
   -3.5010   -1.5140    0.0000 C   0  0  1  0  0  0  0  0  0  0  0  0
   -3.9320   -1.1320    1.2970 O   0  0  0  0  0  0  0  0  0  0  0  0
   -3.7910   -0.0750    0.3650 C   0  0  1  0  0  0  0  0  0  0  0  0
   -2.6580    0.8880    0.6960 C   0  0  0  0  0  0  0  0  0  0  0  0
   -2.4000    1.5590   -0.5230 O   0  0  0  0  0  0  0  0  0  0  0  0
   -0.7670    3.3750    1.1900 H   0  0  0  0  0  0  0  0  0  0  0  0
   -0.3330    1.6760    1.2320 H   0  0  0  0  0  0  0  0  0  0  0  0
    1.0970    3.3210   -0.9280 H   0  0  0  0  0  0  0  0  0  0  0  0
    1.4650    3.7280    0.7330 H   0  0  0  0  0  0  0  0  0  0  0  0
    3.6410    2.8140    1.0130 H   0  0  0  0  0  0  0  0  0  0  0  0
    5.1450    0.8500    1.1090 H   0  0  0  0  0  0  0  0  0  0  0  0
    4.0910   -2.3680    0.3010 H   0  0  0  0  0  0  0  0  0  0  0  0
    0.5530    0.4010   -0.7670 H   0  0  0  0  0  0  0  0  0  0  0  0
    0.2760   -1.9710   -2.6020 H   0  0  0  0  0  0  0  0  0  0  0  0
   -2.2030   -1.8540   -2.3050 H   0  0  0  0  0  0  0  0  0  0  0  0
   -1.7310   -2.2450    1.9640 H   0  0  0  0  0  0  0  0  0  0  0  0
    0.7520   -2.3210    1.6830 H   0  0  0  0  0  0  0  0  0  0  0  0
   -4.2210   -2.1040   -0.5990 H   0  0  0  0  0  0  0  0  0  0  0  0
   -4.7130    0.4180    0.0040 H   0  0  0  0  0  0  0  0  0  0  0  0
   -2.9880    1.6100    1.4860 H   0  0  0  0  0  0  0  0  0  0  0  0
   -1.7550    0.3630    1.0990 H   0  0  0  0  0  0  0  0  0  0  0  0
  1  2  2  0
  2 23  1  0
  2  3  1  0
  3  4  1  0
  3 24  1  0
  3 25  1  0
  4 26  1  0
  4  5  1  0
  4 27  1  0
  5 11  2  0
  5  6  1  0
  6  7  2  0
  6 28  1  0
  7  8  1  0
  7 29  1  0
  8 10  2  0
  8  9  1  0
  9 30  1  0
 10 12  1  0
 10 11  1  0
 11 31  1  0
 12 13  1  0
 13 14  2  0
 13 18  1  0
 14 32  1  0
 14 15  1  0
 15 33  1  0
 15 16  2  0
 16 19  1  0
 16 17  1  0
 17 18  2  0
 17 34  1  0
 18 35  1  0
 19 36  1  6
 19 21  1  0
 19 20  1  0
 20 21  1  0
 21 37  1  6
 21 22  1  0
 22 23  1  0
 22 39  1  0
 22 38  1  0
M  END
>  <id>  (605) 
709

>  <scaffolds>  (605) 
['c1ccccc1', 'O=C1CCc2cccc(c2)Oc2ccc(cc2)C2OC2CO1']

>  <name>  (605) 
Combretastatin D-1

>  <formula>  (605) 
C18H16O5

>  <SMILES>  (605) 
O=C4CCc1ccc(O)c(c1)Oc2ccc(cc2)C3OC3CO4

>  <ChEMBL_id>  (605) 


>  <ZINC_id>  (605) 


>  <PubChem_id>  (605) 


>  <DrugBank_id>  (605) 


>  <CAS_no>  (605) 
117709-78-1

>  <references>  (605) 
[{'journal': {'name': 'Journal of the American Chemical Society', 'id': 9}, 'title': 'Antineoplastic agents. 160. Isolation and structure of combretastatin D-1: a cell growth inhibitory macrocyclic lactone from Combretum caffrum', 'year': 1988, 'start_page': 8539, 'volume': 110, 'issue': 25, 'doi': '10.1021/ja00233a037', 'isbn': '', 'despositor': {'code': 'GU2', 'first_name': 'Gugu', 'last_name': 'Mahlangu', 'id': 24}, 'refauthors_set': [{'author': {'first_name': 'George', 'initials': 'GR', 'last_name': 'Pettit', 'id': 478}, 'first_author': True, 'id': 1409}, {'author': {'first_name': 'Sheo', 'initials': 'SB', 'last_name': 'Singh', 'id': 781}, 'first_author': None, 'id': 1410}, {'author': {'first_name': 'Margaret', 'initials': 'L', 'last_name': 'Niven ', 'id': 702}, 'first_author': None, 'id': 1411}], 'id': 402}]

>  <classifications>  (605) 
[{'classification': 'Macrocyclic lactone', 'id': 856}, {'classification': 'Lignan lactones (Classyfire)', 'id': 995}]

>  <molecular_mass>  (605) 
312.32

$$$$
SANC00710_minRM1.pdb
     RDKit          3D

 38 40  0  0  0  0  0  0  0  0999 V2000
    1.3520    2.6900    1.0420 O   0  0  0  0  0  0  0  0  0  0  0  0
    1.3750    2.1590   -0.0540 C   0  0  0  0  0  0  0  0  0  0  0  0
    0.4870    2.4690   -1.2250 C   0  0  0  0  0  0  0  0  0  0  0  0
   -0.9330    2.8200   -0.7790 C   0  0  0  0  0  0  0  0  0  0  0  0
   -1.8000    1.6580   -0.4160 C   0  0  0  0  0  0  0  0  0  0  0  0
   -3.1460    1.9010   -0.1330 C   0  0  0  0  0  0  0  0  0  0  0  0
   -4.0030    0.8650    0.2070 C   0  0  0  0  0  0  0  0  0  0  0  0
   -3.5140   -0.4440    0.2720 C   0  0  0  0  0  0  0  0  0  0  0  0
   -4.4120   -1.3900    0.6430 O   0  0  0  0  0  0  0  0  0  0  0  0
   -2.1630   -0.6860    0.0030 C   0  0  0  0  0  0  0  0  0  0  0  0
   -1.3120    0.3620   -0.3510 C   0  0  0  0  0  0  0  0  0  0  0  0
   -1.7540   -2.0010    0.0730 O   0  0  0  0  0  0  0  0  0  0  0  0
   -0.3750   -2.0800    0.1120 C   0  0  0  0  0  0  0  0  0  0  0  0
    0.2850   -1.7660    1.2980 C   0  0  0  0  0  0  0  0  0  0  0  0
    1.6640   -1.6170    1.2600 C   0  0  0  0  0  0  0  0  0  0  0  0
    2.3410   -1.7600    0.0500 C   0  0  0  0  0  0  0  0  0  0  0  0
    3.7410   -1.3700   -0.0660 C   0  0  0  0  0  0  0  0  0  0  0  0
    4.1710   -0.1300    0.1640 C   0  0  0  0  0  0  0  0  0  0  0  0
    3.3180    1.0020    0.6430 C   0  0  0  0  0  0  0  0  0  0  0  0
    2.3080    1.2070   -0.3340 O   0  0  0  0  0  0  0  0  0  0  0  0
    1.6800   -2.2340   -1.0830 C   0  0  0  0  0  0  0  0  0  0  0  0
    0.3010   -2.3960   -1.0650 C   0  0  0  0  0  0  0  0  0  0  0  0
    0.9460    3.3360   -1.7500 H   0  0  0  0  0  0  0  0  0  0  0  0
    0.4880    1.6630   -1.9880 H   0  0  0  0  0  0  0  0  0  0  0  0
   -0.9050    3.5320    0.0770 H   0  0  0  0  0  0  0  0  0  0  0  0
   -1.4280    3.3870   -1.6010 H   0  0  0  0  0  0  0  0  0  0  0  0
   -3.5350    2.9230   -0.1790 H   0  0  0  0  0  0  0  0  0  0  0  0
   -5.0560    1.0610    0.4320 H   0  0  0  0  0  0  0  0  0  0  0  0
   -4.0820   -2.2630    0.3910 H   0  0  0  0  0  0  0  0  0  0  0  0
   -0.2600    0.1590   -0.5720 H   0  0  0  0  0  0  0  0  0  0  0  0
   -0.2780   -1.6050    2.2250 H   0  0  0  0  0  0  0  0  0  0  0  0
    2.2090   -1.3630    2.1740 H   0  0  0  0  0  0  0  0  0  0  0  0
    4.4290   -2.1580   -0.3930 H   0  0  0  0  0  0  0  0  0  0  0  0
    5.2290    0.1190    0.0260 H   0  0  0  0  0  0  0  0  0  0  0  0
    2.8920    0.7860    1.6510 H   0  0  0  0  0  0  0  0  0  0  0  0
    3.9140    1.9360    0.7690 H   0  0  0  0  0  0  0  0  0  0  0  0
    2.2390   -2.4340   -2.0030 H   0  0  0  0  0  0  0  0  0  0  0  0
   -0.2450   -2.7280   -1.9500 H   0  0  0  0  0  0  0  0  0  0  0  0
  1  2  2  0
  2  3  1  0
  2 20  1  0
  3 24  1  0
  3 23  1  0
  3  4  1  0
  4 26  1  0
  4  5  1  0
  4 25  1  0
  5 11  2  0
  5  6  1  0
  6 27  1  0
  6  7  2  0
  7  8  1  0
  7 28  1  0
  8 10  2  0
  8  9  1  0
  9 29  1  0
 10 11  1  0
 10 12  1  0
 11 30  1  0
 12 13  1  0
 13 22  2  0
 13 14  1  0
 14 15  2  0
 14 31  1  0
 15 16  1  0
 15 32  1  0
 16 21  2  0
 16 17  1  0
 17 33  1  0
 17 18  2  0
 18 34  1  0
 18 19  1  0
 19 20  1  0
 19 36  1  0
 19 35  1  0
 21 37  1  0
 21 22  1  0
 22 38  1  0
M  END
>  <id>  (606) 
710

>  <scaffolds>  (606) 
['c1ccccc1', 'O=C1CCc2cccc(c2)Oc2ccc(cc2)C=CCO1']

>  <name>  (606) 
Combretastatin D-2

>  <formula>  (606) 
C18H16O4

>  <SMILES>  (606) 
O=C2CCc1ccc(O)c(c1)Oc3ccc(C=CCO2)cc3

>  <ChEMBL_id>  (606) 


>  <ZINC_id>  (606) 


>  <PubChem_id>  (606) 


>  <DrugBank_id>  (606) 


>  <CAS_no>  (606) 
126191-23-9

>  <references>  (606) 
[{'journal': {'name': 'The Journal of Organic Chemistry', 'id': 21}, 'title': 'Antineoplastic agents. 206. Structure of the cytostatic macrocyclic lactone combretastatin D-2', 'year': 1990, 'start_page': 2797, 'volume': 55, 'issue': 9, 'doi': '10.1021/jo00296a043', 'isbn': '', 'despositor': {'code': 'GU2', 'first_name': 'Gugu', 'last_name': 'Mahlangu', 'id': 24}, 'refauthors_set': [{'author': {'first_name': 'George', 'initials': 'GR', 'last_name': 'Pettit', 'id': 478}, 'first_author': None, 'id': 1412}, {'author': {'first_name': 'Sheo', 'initials': 'SB', 'last_name': 'Singh', 'id': 781}, 'first_author': True, 'id': 1413}], 'id': 403}]

>  <classifications>  (606) 
[{'classification': 'Macrocyclic lactone', 'id': 856}, {'classification': 'Macrolides and analogues (Classyfire)', 'id': 945}]

>  <molecular_mass>  (606) 
296.32

$$$$
SANC00711_minRM1.pdb
     RDKit          3D

 67 70  0  0  1  0  0  0  0  0999 V2000
    1.8020   -2.1810    4.5660 C   0  0  0  0  0  0  0  0  0  0  0  0
    1.3140   -2.2390    3.1490 C   0  0  0  0  0  0  0  0  0  0  0  0
    2.0060   -1.8830    2.2170 O   0  0  0  0  0  0  0  0  0  0  0  0
   -0.0970   -2.7520    2.9760 C   0  0  0  0  0  0  0  0  0  0  0  0
   -0.4320   -2.9560    1.5350 C   0  0  0  0  0  0  0  0  0  0  0  0
   -0.1080   -4.0350    0.8140 C   0  0  0  0  0  0  0  0  0  0  0  0
   -0.5020   -4.1360   -0.5940 C   0  0  0  0  0  0  0  0  0  0  0  0
   -0.2760   -5.1570   -1.2250 O   0  0  0  0  0  0  0  0  0  0  0  0
   -1.1660   -2.9500   -1.1360 C   0  0  0  0  0  0  0  0  0  0  0  0
   -1.5060   -2.8270   -2.4940 C   0  0  0  0  0  0  0  0  0  0  0  0
   -1.1530   -3.8750   -3.4850 C   0  0  0  0  0  0  0  0  0  0  0  0
   -2.1970   -1.7110   -2.9370 C   0  0  0  0  0  0  0  0  0  0  0  0
   -2.5430   -0.6980   -2.0340 C   0  0  0  0  0  0  0  0  0  0  0  0
   -3.2480    0.3210   -2.5700 O   0  0  0  0  0  0  0  0  0  0  0  0
   -2.1420   -0.7340   -0.6960 C   0  0  0  0  0  0  0  0  0  0  0  0
   -2.4080    0.4150    0.2280 C   0  0  2  0  0  0  0  0  0  0  0  0
   -2.2400    0.1410    1.3030 H   0  0  0  0  0  0  0  0  0  0  0  0
   -3.7590    0.7780    0.0130 O   0  0  0  0  0  0  0  0  0  0  0  0
   -4.2180    1.7840    0.8860 C   0  0  2  0  0  0  0  0  0  0  0  0
   -4.1470    1.4630    1.9610 H   0  0  0  0  0  0  0  0  0  0  0  0
   -5.6950    1.9990    0.4830 C   0  0  0  0  0  0  0  0  0  0  0  0
   -6.3940    0.9160    1.0190 O   0  0  0  0  0  0  0  0  0  0  0  0
   -3.4090    3.0870    0.6580 C   0  0  1  0  0  0  0  0  0  0  0  0
   -3.6060    3.5000   -0.3670 H   0  0  0  0  0  0  0  0  0  0  0  0
   -3.7100    3.9920    1.6790 O   0  0  0  0  0  0  0  0  0  0  0  0
   -1.8960    2.7880    0.8230 C   0  0  2  0  0  0  0  0  0  0  0  0
   -1.6640    2.4900    1.8820 H   0  0  0  0  0  0  0  0  0  0  0  0
   -1.1440    3.8840    0.4120 O   0  0  0  0  0  0  0  0  0  0  0  0
   -1.5410    1.6460   -0.1600 C   0  0  1  0  0  0  0  0  0  0  0  0
   -1.7480    1.9510   -1.2220 H   0  0  0  0  0  0  0  0  0  0  0  0
   -0.2050    1.2790    0.0710 O   0  0  0  0  0  0  0  0  0  0  0  0
    0.7610    1.8640   -0.6980 C   0  0  0  0  0  0  0  0  0  0  0  0
    0.4650    2.6140   -1.6100 O   0  0  0  0  0  0  0  0  0  0  0  0
    2.1100    1.4340   -0.3080 C   0  0  0  0  0  0  0  0  0  0  0  0
    3.1570    1.9960   -0.9250 C   0  0  0  0  0  0  0  0  0  0  0  0
    4.5450    1.6410   -0.6770 C   0  0  0  0  0  0  0  0  0  0  0  0
    4.9070    0.6700    0.2570 C   0  0  0  0  0  0  0  0  0  0  0  0
    6.2410    0.3260    0.4340 C   0  0  0  0  0  0  0  0  0  0  0  0
    7.2110    0.9720   -0.3330 C   0  0  0  0  0  0  0  0  0  0  0  0
    8.5380    0.7230   -0.1660 O   0  0  0  0  0  0  0  0  0  0  0  0
    6.8730    1.9650   -1.2540 C   0  0  0  0  0  0  0  0  0  0  0  0
    5.5380    2.2920   -1.4180 C   0  0  0  0  0  0  0  0  0  0  0  0
   -1.4650   -1.8870   -0.2770 C   0  0  0  0  0  0  0  0  0  0  0  0
   -1.1330   -1.8960    1.0480 O   0  0  0  0  0  0  0  0  0  0  0  0
    1.4070   -1.2890    5.0750 H   0  0  0  0  0  0  0  0  0  0  0  0
    1.4950   -3.0540    5.1590 H   0  0  0  0  0  0  0  0  0  0  0  0
    2.8990   -2.1260    4.6310 H   0  0  0  0  0  0  0  0  0  0  0  0
   -0.2250   -3.7150    3.5170 H   0  0  0  0  0  0  0  0  0  0  0  0
   -0.7990   -2.0490    3.4770 H   0  0  0  0  0  0  0  0  0  0  0  0
    0.4700   -4.8580    1.2420 H   0  0  0  0  0  0  0  0  0  0  0  0
   -1.6810   -4.8220   -3.2760 H   0  0  0  0  0  0  0  0  0  0  0  0
   -1.4110   -3.6020   -4.5210 H   0  0  0  0  0  0  0  0  0  0  0  0
   -0.0740   -4.0990   -3.4840 H   0  0  0  0  0  0  0  0  0  0  0  0
   -2.4830   -1.6040   -3.9880 H   0  0  0  0  0  0  0  0  0  0  0  0
   -3.8390    0.7020   -1.8680 H   0  0  0  0  0  0  0  0  0  0  0  0
   -6.0790    2.9570    0.9060 H   0  0  0  0  0  0  0  0  0  0  0  0
   -5.8010    2.0880   -0.6240 H   0  0  0  0  0  0  0  0  0  0  0  0
   -7.2260    0.8470    0.5620 H   0  0  0  0  0  0  0  0  0  0  0  0
   -4.4220    4.5570    1.3670 H   0  0  0  0  0  0  0  0  0  0  0  0
   -1.2630    4.5740    1.0760 H   0  0  0  0  0  0  0  0  0  0  0  0
    2.1920    0.6640    0.4660 H   0  0  0  0  0  0  0  0  0  0  0  0
    2.9950    2.7840   -1.6780 H   0  0  0  0  0  0  0  0  0  0  0  0
    4.1420    0.1620    0.8570 H   0  0  0  0  0  0  0  0  0  0  0  0
    6.5220   -0.4340    1.1680 H   0  0  0  0  0  0  0  0  0  0  0  0
    8.6490   -0.2480   -0.2350 H   0  0  0  0  0  0  0  0  0  0  0  0
    7.6540    2.4670   -1.8310 H   0  0  0  0  0  0  0  0  0  0  0  0
    5.2690    3.0660   -2.1450 H   0  0  0  0  0  0  0  0  0  0  0  0
  1  2  1  0
  1 47  1  0
  1 45  1  0
  1 46  1  0
  2  3  2  0
  2  4  1  0
  4  5  1  0
  4 49  1  0
  4 48  1  0
  5  6  2  0
  5 44  1  0
  6  7  1  0
  6 50  1  0
  7  8  2  0
  7  9  1  0
  9 10  2  0
  9 43  1  0
 10 11  1  0
 10 12  1  0
 11 52  1  0
 11 53  1  0
 11 51  1  0
 12 54  1  0
 12 13  2  0
 13 14  1  0
 13 15  1  0
 14 55  1  0
 15 43  2  0
 15 16  1  0
 16 29  1  0
 16 18  1  0
 16 17  1  1
 18 19  1  0
 19 21  1  0
 19 23  1  0
 19 20  1  1
 21 57  1  0
 21 56  1  0
 21 22  1  0
 22 58  1  0
 23 24  1  6
 23 26  1  0
 23 25  1  0
 25 59  1  0
 26 29  1  0
 26 28  1  0
 26 27  1  1
 28 60  1  0
 29 30  1  6
 29 31  1  0
 31 32  1  0
 32 33  2  0
 32 34  1  0
 34 35  2  0
 34 61  1  0
 35 62  1  0
 35 36  1  0
 36 42  2  0
 36 37  1  0
 37 38  2  0
 37 63  1  0
 38 39  1  0
 38 64  1  0
 39 41  2  0
 39 40  1  0
 40 65  1  0
 41 66  1  0
 41 42  1  0
 42 67  1  0
 43 44  1  0
M  END
>  <id>  (607) 
711

>  <scaffolds>  (607) 
['c1ccccc1', 'C1CCOCC1', 'O=C(C=Cc1ccccc1)OC1CCCOC1c1cccc2c(=O)ccoc12', 'O=c1ccoc2ccccc12', 'O=C(C=Cc1ccccc1)OCCc1ccccc1', 'O=c1ccoc2c(C3CCCCO3)cccc12']

>  <name>  (607) 
Aloeresin A

>  <formula>  (607) 
C28H28O11

>  <SMILES>  (607) 
CC(=O)Cc4cc(=O)c3c(C)cc(O)c([C@@H]1O[C@H](CO)[C@@H](O)[C@H](O)[C@H]1OC(=O)/C=C/c2ccc(O)cc2)c3o4

>  <ChEMBL_id>  (607) 


>  <ZINC_id>  (607) 


>  <PubChem_id>  (607) 
57370126

>  <DrugBank_id>  (607) 


>  <CAS_no>  (607) 
74545-79-2

>  <references>  (607) 
[{'journal': {'name': 'Phytochemistry Letters', 'id': 39}, 'title': 'Simultaneous quantification of anthrones and chromones in Aloe ferox ("Cape aloes") using UHPLC-MS', 'year': 2015, 'start_page': 85, 'volume': 13, 'issue': None, 'doi': '10.1016/j.phytol.2015.04.025', 'isbn': '', 'despositor': {'code': 'GU2', 'first_name': 'Gugu', 'last_name': 'Mahlangu', 'id': 24}, 'refauthors_set': [{'author': {'first_name': 'Sowesa', 'initials': 'SK', 'last_name': 'Kanama', 'id': 856}, 'first_author': True, 'id': 1414}, {'author': {'first_name': 'Alvaro', 'initials': 'AM', 'last_name': 'Viljoen', 'id': 655}, 'first_author': None, 'id': 1415}, {'author': {'first_name': 'Guy', 'initials': 'GPP', 'last_name': 'Kamatou', 'id': 857}, 'first_author': None, 'id': 1416}, {'author': {'first_name': 'Weiyang', 'initials': 'W', 'last_name': 'Chen', 'id': 858}, 'first_author': None, 'id': 1417}, {'author': {'first_name': 'Maxleene', 'initials': 'M', 'last_name': 'Sandasi', 'id': 859}, 'first_author': None, 'id': 1418}, {'author': {'first_name': 'Hamid-Reza', 'initials': 'H', 'last_name': 'Adhami', 'id': 860}, 'first_author': None, 'id': 1419}, {'author': {'first_name': 'Ben-Erik', 'initials': 'B', 'last_name': 'van Wyk', 'id': 635}, 'first_author': None, 'id': 1420}], 'id': 404}, {'journal': {'name': 'Phytochemical Analysis', 'id': 41}, 'title': 'A reversed-phase high-performance liquid chromatographic method for the determination of aloesin, aloeresin A, and anthraquinone in Aloe ferox', 'year': 2008, 'start_page': 122, 'volume': 19, 'issue': 2, 'doi': '10.1002/pca.1024', 'isbn': '', 'despositor': {'code': 'GU2', 'first_name': 'Gugu', 'last_name': 'Mahlangu', 'id': 24}, 'refauthors_set': [{'author': {'first_name': 'Michael', 'initials': 'M', 'last_name': 'Zahn', 'id': 868}, 'first_author': True, 'id': 1428}, {'author': {'first_name': 'Thao', 'initials': 'T', 'last_name': 'Trinh', 'id': 869}, 'first_author': None, 'id': 1429}, {'author': {'first_name': 'Mijeong Lee', 'initials': 'ML', 'last_name': 'Jeong', 'id': 870}, 'first_author': None, 'id': 1430}, {'author': {'first_name': 'Desheng', 'initials': 'D', 'last_name': 'Wang', 'id': 871}, 'first_author': None, 'id': 1431}, {'author': {'first_name': 'Padmapriya', 'initials': 'P', 'last_name': 'Abeysinghe', 'id': 872}, 'first_author': None, 'id': 1432}, {'author': {'first_name': 'Qi', 'initials': 'Q', 'last_name': 'Jia', 'id': 873}, 'first_author': None, 'id': 1433}, {'author': {'first_name': 'Wenwen', 'initials': 'W', 'last_name': 'Ma', 'id': 874}, 'first_author': None, 'id': 1434}], 'id': 406}]

>  <classifications>  (607) 
[{'classification': 'Chromone', 'id': 858}, {'classification': 'Organooxygen compounds (Classyfire)', 'id': 954}]

>  <molecular_mass>  (607) 
540.51

$$$$
SANC00712_minRM1.pdb
     RDKit          3D

 39 41  0  0  1  0  0  0  0  0999 V2000
   -0.9970   -0.5380   -1.5800 H   0  0  0  0  0  0  0  0  0  0  0  0
   -1.0500   -0.5750   -0.4560 C   0  0  2  0  0  0  0  0  0  0  0  0
   -0.6780   -2.0030   -0.0350 C   0  0  0  0  0  0  0  0  0  0  0  0
    0.7850   -2.2790   -0.0180 C   0  0  0  0  0  0  0  0  0  0  0  0
    1.6710   -1.3260   -0.2690 C   0  0  0  0  0  0  0  0  0  0  0  0
    3.1580   -1.3700   -0.1050 C   0  0  0  0  0  0  0  0  0  0  0  0
    3.5800   -0.0220    0.0430 O   0  0  0  0  0  0  0  0  0  0  0  0
    2.5330    0.8320   -0.1970 C   0  0  0  0  0  0  0  0  0  0  0  0
    2.7480    2.0160   -0.0700 O   0  0  0  0  0  0  0  0  0  0  0  0
    1.3000    0.0730   -0.6290 C   0  0  2  0  0  0  0  0  0  0  0  0
    1.2240    0.1780   -1.7430 H   0  0  0  0  0  0  0  0  0  0  0  0
   -0.0240    0.4610    0.0530 C   0  0  2  0  0  0  0  0  0  0  0  0
    0.1880    0.4420    1.5600 C   0  0  0  0  0  0  0  0  0  0  0  0
   -0.4320    1.8630   -0.4070 C   0  0  0  0  0  0  0  0  0  0  0  0
   -1.8520    2.2010    0.0210 C   0  0  0  0  0  0  0  0  0  0  0  0
   -2.8380    1.1810   -0.5270 C   0  0  0  0  0  0  0  0  0  0  0  0
   -2.5110   -0.2520   -0.0890 C   0  0  1  0  0  0  0  0  0  0  0  0
   -3.4400   -1.2010   -0.8640 C   0  0  0  0  0  0  0  0  0  0  0  0
   -2.8210   -0.4370    1.3930 C   0  0  0  0  0  0  0  0  0  0  0  0
   -1.0860   -2.2350    0.9770 H   0  0  0  0  0  0  0  0  0  0  0  0
   -1.1680   -2.7400   -0.7080 H   0  0  0  0  0  0  0  0  0  0  0  0
    1.0910   -3.2950    0.2490 H   0  0  0  0  0  0  0  0  0  0  0  0
    3.4920   -1.9230    0.7970 H   0  0  0  0  0  0  0  0  0  0  0  0
    3.6780   -1.8130   -0.9810 H   0  0  0  0  0  0  0  0  0  0  0  0
    0.9770    1.1430    1.8750 H   0  0  0  0  0  0  0  0  0  0  0  0
   -0.7100    0.7350    2.1260 H   0  0  0  0  0  0  0  0  0  0  0  0
    0.4800   -0.5440    1.9470 H   0  0  0  0  0  0  0  0  0  0  0  0
    0.2760    2.6240   -0.0170 H   0  0  0  0  0  0  0  0  0  0  0  0
   -0.3480    1.9530   -1.5120 H   0  0  0  0  0  0  0  0  0  0  0  0
   -1.9330    2.2980    1.1220 H   0  0  0  0  0  0  0  0  0  0  0  0
   -2.1210    3.2180   -0.3450 H   0  0  0  0  0  0  0  0  0  0  0  0
   -3.8700    1.4500   -0.2160 H   0  0  0  0  0  0  0  0  0  0  0  0
   -2.8610    1.2440   -1.6360 H   0  0  0  0  0  0  0  0  0  0  0  0
   -3.2090   -1.2470   -1.9380 H   0  0  0  0  0  0  0  0  0  0  0  0
   -3.4050   -2.2330   -0.4880 H   0  0  0  0  0  0  0  0  0  0  0  0
   -4.4950   -0.8930   -0.7930 H   0  0  0  0  0  0  0  0  0  0  0  0
   -3.8980   -0.3620    1.6020 H   0  0  0  0  0  0  0  0  0  0  0  0
   -2.4950   -1.4230    1.7630 H   0  0  0  0  0  0  0  0  0  0  0  0
   -2.3350    0.3090    2.0400 H   0  0  0  0  0  0  0  0  0  0  0  0
  2  1  1  6
  2 17  1  0
  2  3  1  0
  2 12  1  0
  3 21  1  0
  3  4  1  0
  3 20  1  0
  4  5  2  0
  4 22  1  0
  5 10  1  0
  5  6  1  0
  6 24  1  0
  6  7  1  0
  6 23  1  0
  7  8  1  0
  8 10  1  0
  8  9  2  0
 10 11  1  6
 10 12  1  0
 12 14  1  0
 12 13  1  1
 13 25  1  0
 13 27  1  0
 13 26  1  0
 14 29  1  0
 14 28  1  0
 14 15  1  0
 15 16  1  0
 15 31  1  0
 15 30  1  0
 16 33  1  0
 16 32  1  0
 16 17  1  0
 17 18  1  6
 17 19  1  0
 18 34  1  0
 18 36  1  0
 18 35  1  0
 19 37  1  0
 19 38  1  0
 19 39  1  0
M  END
>  <id>  (608) 
712

>  <scaffolds>  (608) 
['C1=CCCCC1', 'C1=CCC2CCCCC2C1', 'C1CCCCC1', 'C1=C2COCC2C2CCCCC2C1', 'O=C1CCCO1']

>  <name>  (608) 
Drimenin

>  <formula>  (608) 
C15H22O2

>  <SMILES>  (608) 
[H][C@@]23CC=C1COC(=O)[C@]1([H])[C@@]2(C)CCCC3(C)C

>  <ChEMBL_id>  (608) 
CHEMBL457165

>  <ZINC_id>  (608) 


>  <PubChem_id>  (608) 
442202

>  <DrugBank_id>  (608) 


>  <CAS_no>  (608) 
2326-89-8

>  <references>  (608) 
[{'journal': {'name': 'Journal of Medicinal Plants Research', 'id': 42}, 'title': 'Furans and Furanones with antimycotoxigenic activity isolated from Warburgia salutaris (Canellaceae)', 'year': 2009, 'start_page': 231, 'volume': 3, 'issue': 4, 'doi': '', 'isbn': '', 'despositor': {'code': 'GU2', 'first_name': 'Gugu', 'last_name': 'Mahlangu', 'id': 24}, 'refauthors_set': [{'author': {'first_name': 'Viresh', 'initials': 'V', 'last_name': 'Mohanlall', 'id': 875}, 'first_author': True, 'id': 1435}, {'author': {'first_name': 'Bharti', 'initials': 'B', 'last_name': 'Odhav', 'id': 876}, 'first_author': None, 'id': 1436}], 'id': 407}]

>  <classifications>  (608) 
[{'classification': 'Furanone', 'id': 777}, {'classification': 'Drimane sesquiterpenoid dialdehyde', 'id': 859}, {'classification': 'Naphthofurans (Classyfire)', 'id': 974}]

>  <molecular_mass>  (608) 
234.33

$$$$
SANC00713_minRM1.pdb
     RDKit          3D

 32 34  0  0  0  0  0  0  0  0999 V2000
    4.4200   -0.1000   -0.6570 C   0  0  0  0  0  0  0  0  0  0  0  0
    3.0000   -0.3430   -0.2830 C   0  0  0  0  0  0  0  0  0  0  0  0
    2.6000   -1.6540   -0.0370 C   0  0  0  0  0  0  0  0  0  0  0  0
    1.2930   -1.9110    0.3180 C   0  0  0  0  0  0  0  0  0  0  0  0
    0.3610   -0.8770    0.4690 C   0  0  0  0  0  0  0  0  0  0  0  0
   -1.0040   -1.3570    0.8620 C   0  0  0  0  0  0  0  0  0  0  0  0
   -2.0590   -0.6040    0.1760 C   0  0  0  0  0  0  0  0  0  0  0  0
   -2.9650   -1.2110   -0.6500 O   0  0  0  0  0  0  0  0  0  0  0  0
   -3.8160   -0.2160   -1.0700 C   0  0  0  0  0  0  0  0  0  0  0  0
   -3.4670    0.9970   -0.5250 C   0  0  0  0  0  0  0  0  0  0  0  0
   -2.3180    0.7340    0.2890 C   0  0  0  0  0  0  0  0  0  0  0  0
   -1.4560    1.5930    1.1060 C   0  0  0  0  0  0  0  0  0  0  0  0
   -0.0780    1.6800    0.4580 C   0  0  0  0  0  0  0  0  0  0  0  0
    0.7550    0.4450    0.2750 C   0  0  0  0  0  0  0  0  0  0  0  0
    2.0820    0.6940   -0.1470 C   0  0  0  0  0  0  0  0  0  0  0  0
    2.5380    2.0810   -0.4540 C   0  0  0  0  0  0  0  0  0  0  0  0
    5.0160    0.1690    0.2280 H   0  0  0  0  0  0  0  0  0  0  0  0
    4.9030   -0.9770   -1.1130 H   0  0  0  0  0  0  0  0  0  0  0  0
    4.5350    0.7250   -1.3810 H   0  0  0  0  0  0  0  0  0  0  0  0
    3.3120   -2.4800   -0.1310 H   0  0  0  0  0  0  0  0  0  0  0  0
    0.9940   -2.9520    0.4840 H   0  0  0  0  0  0  0  0  0  0  0  0
   -1.1300   -2.4480    0.6770 H   0  0  0  0  0  0  0  0  0  0  0  0
   -1.1330   -1.2470    1.9630 H   0  0  0  0  0  0  0  0  0  0  0  0
   -4.5990   -0.5390   -1.7430 H   0  0  0  0  0  0  0  0  0  0  0  0
   -3.9470    1.9540   -0.6710 H   0  0  0  0  0  0  0  0  0  0  0  0
   -1.8910    2.6100    1.2130 H   0  0  0  0  0  0  0  0  0  0  0  0
   -1.3890    1.2050    2.1460 H   0  0  0  0  0  0  0  0  0  0  0  0
   -0.2040    2.1550   -0.5440 H   0  0  0  0  0  0  0  0  0  0  0  0
    0.5050    2.4110    1.0650 H   0  0  0  0  0  0  0  0  0  0  0  0
    2.7190    2.6610    0.4630 H   0  0  0  0  0  0  0  0  0  0  0  0
    3.4810    2.1150   -1.0270 H   0  0  0  0  0  0  0  0  0  0  0  0
    1.8210    2.6450   -1.0700 H   0  0  0  0  0  0  0  0  0  0  0  0
  1 19  1  0
  1 18  1  0
  1  2  1  0
  1 17  1  0
  2 15  2  0
  2  3  1  0
  3 20  1  0
  3  4  2  0
  4  5  1  0
  4 21  1  0
  5 14  2  0
  5  6  1  0
  6  7  1  0
  6 22  1  0
  6 23  1  0
  7  8  1  0
  7 11  2  0
  8  9  1  0
  9 24  1  0
  9 10  2  0
 10 25  1  0
 10 11  1  0
 11 12  1  0
 12 13  1  0
 12 26  1  0
 12 27  1  0
 13 28  1  0
 13 14  1  0
 13 29  1  0
 14 15  1  0
 15 16  1  0
 16 32  1  0
 16 31  1  0
 16 30  1  0
M  END
>  <id>  (609) 
713

>  <scaffolds>  (609) 
['c1ccccc1', 'c1ccoc1', 'c1ccc2c(c1)CCc1ccoc1C2']

>  <name>  (609) 
5, 10-Dihydro-6, 7-dimethyl-4H-benzo [5, 6] cyclohepta [1, 2-b]-furan

>  <formula>  (609) 
C15H16O

>  <SMILES>  (609) 
Cc3ccc2Cc1occc1CCc2c3C

>  <ChEMBL_id>  (609) 


>  <ZINC_id>  (609) 


>  <PubChem_id>  (609) 


>  <DrugBank_id>  (609) 


>  <CAS_no>  (609) 
56881-47-1

>  <references>  (609) 
[{'journal': {'name': 'Journal of Medicinal Plants Research', 'id': 42}, 'title': 'Furans and Furanones with antimycotoxigenic activity isolated from Warburgia salutaris (Canellaceae)', 'year': 2009, 'start_page': 231, 'volume': 3, 'issue': 4, 'doi': '', 'isbn': '', 'despositor': {'code': 'GU2', 'first_name': 'Gugu', 'last_name': 'Mahlangu', 'id': 24}, 'refauthors_set': [{'author': {'first_name': 'Viresh', 'initials': 'V', 'last_name': 'Mohanlall', 'id': 875}, 'first_author': True, 'id': 1435}, {'author': {'first_name': 'Bharti', 'initials': 'B', 'last_name': 'Odhav', 'id': 876}, 'first_author': None, 'id': 1436}], 'id': 407}]

>  <classifications>  (609) 
[{'classification': 'Drimane sesquiterpenoid dialdehyde', 'id': 859}, {'classification': 'Furan', 'id': 860}, {'classification': 'Cycloheptafurans (Classyfire)', 'id': 996}]

>  <molecular_mass>  (609) 
212.29

$$$$
SANC00714_minRM1.pdb
     RDKit          3D

 85 90  0  0  1  0  0  0  0  0999 V2000
    2.1730   -1.7180    0.6770 H   0  0  0  0  0  0  0  0  0  0  0  0
    1.9200   -0.9690   -0.1270 C   0  0  2  0  0  0  0  0  0  0  0  0
    1.2370   -1.7060   -1.2800 C   0  0  0  0  0  0  0  0  0  0  0  0
   -0.0260   -2.3960   -0.8010 C   0  0  0  0  0  0  0  0  0  0  0  0
   -0.9830   -1.3780   -0.1560 C   0  0  2  0  0  0  0  0  0  0  0  0
   -2.0790   -2.0660    0.3670 O   0  0  0  0  0  0  0  0  0  0  0  0
   -1.4530   -0.3640   -1.2170 C   0  0  0  0  0  0  0  0  0  0  0  0
   -2.4460    0.6590   -0.6600 C   0  0  1  0  0  0  0  0  0  0  0  0
   -2.6090    1.4630   -1.4340 H   0  0  0  0  0  0  0  0  0  0  0  0
   -3.6540    0.0170   -0.3170 O   0  0  0  0  0  0  0  0  0  0  0  0
   -4.6190   -0.0610   -1.3290 C   0  0  2  0  0  0  0  0  0  0  0  0
   -4.2160   -0.4020   -2.3220 H   0  0  0  0  0  0  0  0  0  0  0  0
   -5.0890    1.2160   -1.6060 O   0  0  0  0  0  0  0  0  0  0  0  0
   -5.7550    1.8820   -0.5560 C   0  0  1  0  0  0  0  0  0  0  0  0
   -5.0680    2.0500    0.3170 H   0  0  0  0  0  0  0  0  0  0  0  0
   -6.1890    3.2190   -1.1520 C   0  0  0  0  0  0  0  0  0  0  0  0
   -6.9850    1.0540   -0.1160 C   0  0  2  0  0  0  0  0  0  0  0  0
   -7.7100    0.9460   -0.9670 H   0  0  0  0  0  0  0  0  0  0  0  0
   -7.5140    1.7190    0.9900 O   0  0  0  0  0  0  0  0  0  0  0  0
   -6.5040   -0.3390    0.3560 C   0  0  1  0  0  0  0  0  0  0  0  0
   -5.8420   -0.2430    1.2600 H   0  0  0  0  0  0  0  0  0  0  0  0
   -7.6790   -1.0290    0.6520 O   0  0  0  0  0  0  0  0  0  0  0  0
   -5.7090   -1.0250   -0.7800 C   0  0  1  0  0  0  0  0  0  0  0  0
   -5.2200   -1.9650   -0.4010 H   0  0  0  0  0  0  0  0  0  0  0  0
   -6.6470   -1.3000   -1.7720 O   0  0  0  0  0  0  0  0  0  0  0  0
   -1.9160    1.3140    0.6190 C   0  0  0  0  0  0  0  0  0  0  0  0
   -1.3330    0.3380    1.6440 C   0  0  1  0  0  0  0  0  0  0  0  0
   -0.8550    0.9240    2.4770 H   0  0  0  0  0  0  0  0  0  0  0  0
   -2.3200   -0.3280    2.3620 O   0  0  0  0  0  0  0  0  0  0  0  0
   -0.3040   -0.6550    1.0330 C   0  0  1  0  0  0  0  0  0  0  0  0
    0.1320   -1.6290    2.1650 C   0  0  0  0  0  0  0  0  0  0  0  0
   -0.6240   -2.7890    2.2780 O   0  0  0  0  0  0  0  0  0  0  0  0
    0.9580    0.0690    0.4760 C   0  0  1  0  0  0  0  0  0  0  0  0
    0.6340    0.7800   -0.3270 H   0  0  0  0  0  0  0  0  0  0  0  0
    1.7370    0.8730    1.5390 C   0  0  2  0  0  0  0  0  0  0  0  0
    2.0180    0.2190    2.4080 H   0  0  0  0  0  0  0  0  0  0  0  0
    0.9060    1.9280    1.9430 O   0  0  0  0  0  0  0  0  0  0  0  0
    2.9960    1.5180    0.9300 C   0  0  0  0  0  0  0  0  0  0  0  0
    3.9980    0.5010    0.3830 C   0  0  2  0  0  0  0  0  0  0  0  0
    4.6430   -0.2480    1.5390 C   0  0  0  0  0  0  0  0  0  0  0  0
    5.0300    1.2830   -0.4730 C   0  0  1  0  0  0  0  0  0  0  0  0
    5.0840    2.3460   -0.1140 H   0  0  0  0  0  0  0  0  0  0  0  0
    6.4190    0.7710   -0.4290 C   0  0  0  0  0  0  0  0  0  0  0  0
    7.5180    1.4850   -0.1320 C   0  0  0  0  0  0  0  0  0  0  0  0
    8.6910    0.5990   -0.2880 C   0  0  0  0  0  0  0  0  0  0  0  0
    9.8770    0.7740   -0.1320 O   0  0  0  0  0  0  0  0  0  0  0  0
    8.2640   -0.6420   -0.6980 O   0  0  0  0  0  0  0  0  0  0  0  0
    6.8440   -0.6340   -0.7830 C   0  0  0  0  0  0  0  0  0  0  0  0
    4.4880    1.2630   -1.9160 C   0  0  0  0  0  0  0  0  0  0  0  0
    3.1870    0.4580   -1.9030 C   0  0  0  0  0  0  0  0  0  0  0  0
    3.2670   -0.4090   -0.6320 C   0  0  2  0  0  0  0  0  0  0  0  0
    4.1390   -1.4770   -0.8800 O   0  0  0  0  0  0  0  0  0  0  0  0
    1.0070   -1.0240   -2.1240 H   0  0  0  0  0  0  0  0  0  0  0  0
    1.9290   -2.4590   -1.7240 H   0  0  0  0  0  0  0  0  0  0  0  0
   -0.5210   -2.9170   -1.6480 H   0  0  0  0  0  0  0  0  0  0  0  0
    0.2080   -3.2160   -0.0890 H   0  0  0  0  0  0  0  0  0  0  0  0
   -2.6090   -2.4010   -0.3650 H   0  0  0  0  0  0  0  0  0  0  0  0
   -0.5850    0.1910   -1.6350 H   0  0  0  0  0  0  0  0  0  0  0  0
   -1.8860   -0.8890   -2.0940 H   0  0  0  0  0  0  0  0  0  0  0  0
   -6.8360    3.0980   -2.0330 H   0  0  0  0  0  0  0  0  0  0  0  0
   -6.7430    3.8140   -0.4120 H   0  0  0  0  0  0  0  0  0  0  0  0
   -5.3280    3.8190   -1.4770 H   0  0  0  0  0  0  0  0  0  0  0  0
   -8.4760    1.6460    0.9390 H   0  0  0  0  0  0  0  0  0  0  0  0
   -7.4460   -1.9430    0.8430 H   0  0  0  0  0  0  0  0  0  0  0  0
   -6.2020   -1.7890   -2.4740 H   0  0  0  0  0  0  0  0  0  0  0  0
   -1.1500    2.0710    0.3460 H   0  0  0  0  0  0  0  0  0  0  0  0
   -2.7200    1.9130    1.1010 H   0  0  0  0  0  0  0  0  0  0  0  0
   -3.0210   -0.6500    1.7750 H   0  0  0  0  0  0  0  0  0  0  0  0
    1.1600   -2.0340    1.9990 H   0  0  0  0  0  0  0  0  0  0  0  0
    0.1790   -1.0850    3.1370 H   0  0  0  0  0  0  0  0  0  0  0  0
   -1.5370   -2.5580    2.4870 H   0  0  0  0  0  0  0  0  0  0  0  0
    1.3050    2.3370    2.7170 H   0  0  0  0  0  0  0  0  0  0  0  0
    2.6870    2.2430    0.1440 H   0  0  0  0  0  0  0  0  0  0  0  0
    3.4920    2.1550    1.6960 H   0  0  0  0  0  0  0  0  0  0  0  0
    3.9070   -0.7550    2.1790 H   0  0  0  0  0  0  0  0  0  0  0  0
    5.3420   -1.0370    1.2150 H   0  0  0  0  0  0  0  0  0  0  0  0
    5.2220    0.4280    2.1870 H   0  0  0  0  0  0  0  0  0  0  0  0
    7.6160    2.5220    0.1690 H   0  0  0  0  0  0  0  0  0  0  0  0
    6.4530   -1.3910   -0.0620 H   0  0  0  0  0  0  0  0  0  0  0  0
    6.5520   -0.9490   -1.8050 H   0  0  0  0  0  0  0  0  0  0  0  0
    4.3250    2.2900   -2.3000 H   0  0  0  0  0  0  0  0  0  0  0  0
    5.2180    0.8280   -2.6290 H   0  0  0  0  0  0  0  0  0  0  0  0
    2.2980    1.1180   -1.8970 H   0  0  0  0  0  0  0  0  0  0  0  0
    3.0740   -0.1430   -2.8280 H   0  0  0  0  0  0  0  0  0  0  0  0
    3.6990   -2.0960   -1.4770 H   0  0  0  0  0  0  0  0  0  0  0  0
  2  1  1  1
  2  3  1  0
  2 51  1  0
  2 33  1  0
  3 53  1  0
  3 54  1  0
  3  4  1  0
  4 55  1  0
  4  5  1  0
  4 56  1  0
  5  7  1  0
  5  6  1  1
  5 30  1  0
  6 57  1  0
  7 59  1  0
  7 58  1  0
  7  8  1  0
  8  9  1  6
  8 10  1  0
  8 26  1  0
 10 11  1  0
 11 12  1  6
 11 13  1  0
 11 23  1  0
 13 14  1  0
 14 16  1  0
 14 17  1  0
 14 15  1  1
 16 60  1  0
 16 62  1  0
 16 61  1  0
 17 18  1  6
 17 20  1  0
 17 19  1  0
 19 63  1  0
 20 23  1  0
 20 22  1  0
 20 21  1  1
 22 64  1  0
 23 25  1  0
 23 24  1  1
 25 65  1  0
 26 66  1  0
 26 67  1  0
 26 27  1  0
 27 30  1  0
 27 29  1  0
 27 28  1  1
 29 68  1  0
 30 33  1  0
 30 31  1  1
 31 69  1  0
 31 32  1  0
 31 70  1  0
 32 71  1  0
 33 34  1  6
 33 35  1  0
 35 38  1  0
 35 37  1  0
 35 36  1  1
 37 72  1  0
 38 73  1  0
 38 39  1  0
 38 74  1  0
 39 51  1  0
 39 41  1  0
 39 40  1  1
 40 76  1  0
 40 75  1  0
 40 77  1  0
 41 49  1  0
 41 43  1  0
 41 42  1  1
 43 48  1  0
 43 44  2  0
 44 45  1  0
 44 78  1  0
 45 47  1  0
 45 46  2  0
 47 48  1  0
 48 80  1  0
 48 79  1  0
 49 82  1  0
 49 81  1  0
 49 50  1  0
 50 84  1  0
 50 83  1  0
 50 51  1  0
 51 52  1  6
 52 85  1  0
M  END
>  <id>  (610) 
714

>  <scaffolds>  (610) 
['C1CCOCC1', 'C1CCC(C2CCCC2)CC1', 'C1CCCCC1', 'C1CCC2C(C1)CCC1C3CCCC3CCC21', 'C1CCC2CCCCC2C1']

>  <name>  (610) 
Ouabain

>  <formula>  (610) 
C29H44O12

>  <SMILES>  (610) 
[H][C@@]35CC[C@]2(O)C[C@@H](O[C@@H]1O[C@@H](C)[C@H](O)[C@@H](O)[C@H]1O)C[C@@H](O)[C@]2(CO)[C@@]3([H])[C@H](O)C[C@]6(C)[C@@H](C4=CC(=O)OC4)CC[C@]56O

>  <ChEMBL_id>  (610) 
CHEMBL222863

>  <ZINC_id>  (610) 
ZINC08143614

>  <PubChem_id>  (610) 
439501

>  <DrugBank_id>  (610) 
DB01092

>  <CAS_no>  (610) 
630-60-4

>  <references>  (610) 
[{'journal': {'name': 'Medicinal Plants of South Africa (Book)', 'id': 43}, 'title': 'Medicinal Plants of South Africa', 'year': 2009, 'start_page': 26, 'volume': None, 'issue': None, 'doi': '', 'isbn': '978-1-875093-37-3', 'despositor': {'code': 'GU2', 'first_name': 'Gugu', 'last_name': 'Mahlangu', 'id': 24}, 'refauthors_set': [{'author': {'first_name': 'Ben-Erik', 'initials': 'B', 'last_name': 'van Wyk', 'id': 635}, 'first_author': True, 'id': 1437}, {'author': {'first_name': 'Bosch', 'initials': 'B', 'last_name': 'van Oudtshoorn', 'id': 877}, 'first_author': None, 'id': 1438}, {'author': {'first_name': 'Nigel', 'initials': 'N', 'last_name': 'Gericke', 'id': 878}, 'first_author': None, 'id': 1439}], 'id': 408}]

>  <classifications>  (610) 
[{'classification': 'Glycoside', 'id': 781}, {'classification': 'Steroids and steroid derivatives (Classyfire)', 'id': 942}]

>  <molecular_mass>  (610) 
584.65

$$$$
SANC00715_minRM1.pdb
     RDKit          3D

 85 90  0  0  1  0  0  0  0  0999 V2000
   -1.6010    0.6480    2.1440 H   0  0  0  0  0  0  0  0  0  0  0  0
   -0.7380    0.1250    1.6510 C   0  0  1  0  0  0  0  0  0  0  0  0
    0.2830   -0.2350    2.7320 C   0  0  0  0  0  0  0  0  0  0  0  0
    1.5440   -0.8340    2.1270 C   0  0  0  0  0  0  0  0  0  0  0  0
    2.1690    0.1390    1.1280 C   0  0  2  0  0  0  0  0  0  0  0  0
    2.4140    1.0960    1.6700 H   0  0  0  0  0  0  0  0  0  0  0  0
    1.1650    0.4620    0.0210 C   0  0  2  0  0  0  0  0  0  0  0  0
    0.8880   -0.4830   -0.5130 H   0  0  0  0  0  0  0  0  0  0  0  0
    1.8330    1.4020   -0.9800 C   0  0  0  0  0  0  0  0  0  0  0  0
    3.0310    0.7110   -1.6130 C   0  0  0  0  0  0  0  0  0  0  0  0
    4.1180    0.3940   -0.5730 C   0  0  2  0  0  0  0  0  0  0  0  0
    4.7530    1.7000   -0.1240 C   0  0  0  0  0  0  0  0  0  0  0  0
    5.1290   -0.5770   -1.2360 C   0  0  1  0  0  0  0  0  0  0  0  0
    5.0900   -0.4490   -2.3510 H   0  0  0  0  0  0  0  0  0  0  0  0
    6.5490   -0.3830   -0.8570 C   0  0  0  0  0  0  0  0  0  0  0  0
    7.5770   -0.2090   -1.7020 C   0  0  0  0  0  0  0  0  0  0  0  0
    8.8160   -0.1360   -0.9010 C   0  0  0  0  0  0  0  0  0  0  0  0
    9.9790    0.0130   -1.2000 O   0  0  0  0  0  0  0  0  0  0  0  0
    8.5010   -0.2810    0.4300 O   0  0  0  0  0  0  0  0  0  0  0  0
    7.0900   -0.4100    0.5530 C   0  0  0  0  0  0  0  0  0  0  0  0
    4.6560   -1.9980   -0.8730 C   0  0  0  0  0  0  0  0  0  0  0  0
    3.4100   -1.8540    0.0020 C   0  0  0  0  0  0  0  0  0  0  0  0
    3.4960   -0.4300    0.5850 C   0  0  2  0  0  0  0  0  0  0  0  0
    4.4420   -0.4320    1.6170 O   0  0  0  0  0  0  0  0  0  0  0  0
   -0.1130    1.0820    0.6240 C   0  0  2  0  0  0  0  0  0  0  0  0
    0.2220    2.4150    1.3040 C   0  0  0  0  0  0  0  0  0  0  0  0
   -1.1390    1.3620   -0.5050 C   0  0  2  0  0  0  0  0  0  0  0  0
   -0.6370    1.9650   -1.3200 H   0  0  0  0  0  0  0  0  0  0  0  0
   -2.1600    2.1190    0.0790 O   0  0  0  0  0  0  0  0  0  0  0  0
   -1.6910    0.0770   -1.1330 C   0  0  0  0  0  0  0  0  0  0  0  0
   -2.3040   -0.8590   -0.0910 C   0  0  2  0  0  0  0  0  0  0  0  0
   -2.6020   -1.8230   -0.5890 H   0  0  0  0  0  0  0  0  0  0  0  0
   -3.3950   -0.2590    0.5690 O   0  0  0  0  0  0  0  0  0  0  0  0
   -4.5980   -0.2090   -0.1400 C   0  0  1  0  0  0  0  0  0  0  0  0
   -4.5020    0.2520   -1.1620 H   0  0  0  0  0  0  0  0  0  0  0  0
   -5.0270   -1.5490   -0.1970 O   0  0  0  0  0  0  0  0  0  0  0  0
   -6.2840   -1.7060   -0.8120 C   0  0  1  0  0  0  0  0  0  0  0  0
   -6.2810   -1.3090   -1.8640 H   0  0  0  0  0  0  0  0  0  0  0  0
   -6.5270   -3.2140   -0.8240 C   0  0  0  0  0  0  0  0  0  0  0  0
   -7.3530   -0.9670    0.0360 C   0  0  2  0  0  0  0  0  0  0  0  0
   -7.4070   -1.4190    1.0650 H   0  0  0  0  0  0  0  0  0  0  0  0
   -8.5910   -0.9780   -0.6030 O   0  0  0  0  0  0  0  0  0  0  0  0
   -6.9820    0.5330    0.1650 C   0  0  2  0  0  0  0  0  0  0  0  0
   -7.7160    1.0530    0.8340 H   0  0  0  0  0  0  0  0  0  0  0  0
   -6.9400    1.0510   -1.1370 O   0  0  0  0  0  0  0  0  0  0  0  0
   -7.4720    2.3430   -1.2690 C   0  0  0  0  0  0  0  0  0  0  0  0
   -5.5620    0.5990    0.7770 C   0  0  2  0  0  0  0  0  0  0  0  0
   -5.5750    0.1590    1.8120 H   0  0  0  0  0  0  0  0  0  0  0  0
   -5.2000    1.9420    0.7810 O   0  0  0  0  0  0  0  0  0  0  0  0
   -1.2820   -1.1530    1.0140 C   0  0  0  0  0  0  0  0  0  0  0  0
    0.5290    0.6540    3.3510 H   0  0  0  0  0  0  0  0  0  0  0  0
   -0.1630   -0.9440    3.4640 H   0  0  0  0  0  0  0  0  0  0  0  0
    2.2730   -1.0840    2.9320 H   0  0  0  0  0  0  0  0  0  0  0  0
    1.3130   -1.8130    1.6570 H   0  0  0  0  0  0  0  0  0  0  0  0
    1.1070    1.7140   -1.7650 H   0  0  0  0  0  0  0  0  0  0  0  0
    2.1490    2.3570   -0.5090 H   0  0  0  0  0  0  0  0  0  0  0  0
    2.7020   -0.2060   -2.1480 H   0  0  0  0  0  0  0  0  0  0  0  0
    3.4520    1.3520   -2.4190 H   0  0  0  0  0  0  0  0  0  0  0  0
    4.0090    2.4110    0.2650 H   0  0  0  0  0  0  0  0  0  0  0  0
    5.4970    1.5780    0.6800 H   0  0  0  0  0  0  0  0  0  0  0  0
    5.2740    2.2030   -0.9520 H   0  0  0  0  0  0  0  0  0  0  0  0
    7.5870   -0.1320   -2.7830 H   0  0  0  0  0  0  0  0  0  0  0  0
    6.7190    0.4430    1.1670 H   0  0  0  0  0  0  0  0  0  0  0  0
    6.8710   -1.3480    1.1020 H   0  0  0  0  0  0  0  0  0  0  0  0
    4.4450   -2.5940   -1.7830 H   0  0  0  0  0  0  0  0  0  0  0  0
    5.4420   -2.5800   -0.3530 H   0  0  0  0  0  0  0  0  0  0  0  0
    2.4820   -2.0050   -0.5820 H   0  0  0  0  0  0  0  0  0  0  0  0
    3.3710   -2.6380    0.7840 H   0  0  0  0  0  0  0  0  0  0  0  0
    4.0590   -0.8880    2.3760 H   0  0  0  0  0  0  0  0  0  0  0  0
    0.3080    3.2460    0.5880 H   0  0  0  0  0  0  0  0  0  0  0  0
   -0.5500    2.7300    2.0220 H   0  0  0  0  0  0  0  0  0  0  0  0
    1.1730    2.3850    1.8590 H   0  0  0  0  0  0  0  0  0  0  0  0
   -2.8600    2.2230   -0.5740 H   0  0  0  0  0  0  0  0  0  0  0  0
   -2.4210    0.3180   -1.9350 H   0  0  0  0  0  0  0  0  0  0  0  0
   -0.8830   -0.4580   -1.6760 H   0  0  0  0  0  0  0  0  0  0  0  0
   -6.6280   -3.6360    0.1860 H   0  0  0  0  0  0  0  0  0  0  0  0
   -7.4330   -3.4740   -1.3870 H   0  0  0  0  0  0  0  0  0  0  0  0
   -5.6970   -3.7540   -1.3030 H   0  0  0  0  0  0  0  0  0  0  0  0
   -8.9220   -1.8810   -0.5740 H   0  0  0  0  0  0  0  0  0  0  0  0
   -8.5550    2.3820   -1.0610 H   0  0  0  0  0  0  0  0  0  0  0  0
   -6.9680    3.0970   -0.6430 H   0  0  0  0  0  0  0  0  0  0  0  0
   -7.3080    2.5930   -2.3280 H   0  0  0  0  0  0  0  0  0  0  0  0
   -4.4010    2.0200    1.3160 H   0  0  0  0  0  0  0  0  0  0  0  0
   -0.4760   -1.7880    0.5900 H   0  0  0  0  0  0  0  0  0  0  0  0
   -1.7510   -1.7930    1.7930 H   0  0  0  0  0  0  0  0  0  0  0  0
  2  1  1  1
  2 25  1  0
  2 50  1  0
  2  3  1  0
  3  4  1  0
  3 51  1  0
  3 52  1  0
  4  5  1  0
  4 54  1  0
  4 53  1  0
  5  7  1  0
  5 23  1  0
  5  6  1  1
  7  9  1  0
  7  8  1  6
  7 25  1  0
  9 55  1  0
  9 10  1  0
  9 56  1  0
 10 58  1  0
 10 57  1  0
 10 11  1  0
 11 13  1  0
 11 12  1  1
 11 23  1  0
 12 61  1  0
 12 59  1  0
 12 60  1  0
 13 14  1  6
 13 21  1  0
 13 15  1  0
 15 16  2  0
 15 20  1  0
 16 62  1  0
 16 17  1  0
 17 18  2  0
 17 19  1  0
 19 20  1  0
 20 64  1  0
 20 63  1  0
 21 65  1  0
 21 66  1  0
 21 22  1  0
 22 67  1  0
 22 23  1  0
 22 68  1  0
 23 24  1  1
 24 69  1  0
 25 27  1  0
 25 26  1  1
 26 70  1  0
 26 72  1  0
 26 71  1  0
 27 28  1  6
 27 30  1  0
 27 29  1  0
 29 73  1  0
 30 74  1  0
 30 75  1  0
 30 31  1  0
 31 32  1  6
 31 33  1  0
 31 50  1  0
 33 34  1  0
 34 35  1  6
 34 36  1  0
 34 47  1  0
 36 37  1  0
 37 38  1  6
 37 39  1  0
 37 40  1  0
 39 77  1  0
 39 78  1  0
 39 76  1  0
 40 42  1  0
 40 43  1  0
 40 41  1  1
 42 79  1  0
 43 45  1  0
 43 47  1  0
 43 44  1  1
 45 46  1  0
 46 82  1  0
 46 80  1  0
 46 81  1  0
 47 49  1  0
 47 48  1  1
 49 83  1  0
 50 84  1  0
 50 85  1  0
M  END
>  <id>  (611) 
715

>  <scaffolds>  (611) 
['C1CCOCC1', 'C1CCC(C2CCCC2)CC1', 'C1CCCCC1', 'C1CCC2C(C1)CCC1C3CCCC3CCC21', 'C1CCC2CCCCC2C1']

>  <name>  (611) 
Acovenoside A

>  <formula>  (611) 
C30H46O9

>  <SMILES>  (611) 
[H][C@]46CC[C@]2([H])[C@]([H])(CC[C@]3(C)[C@@]([H])(C1=CC(=O)OC1)CC[C@]23O)[C@@]4(C)[C@H](O)C[C@H](O[C@H]5O[C@@H](C)[C@H](O)[C@H](OC)[C@@H]5O)C6

>  <ChEMBL_id>  (611) 
CHEMBL2069119

>  <ZINC_id>  (611) 


>  <PubChem_id>  (611) 
70684541

>  <DrugBank_id>  (611) 


>  <CAS_no>  (611) 
 663-95-6

>  <references>  (611) 
[{'journal': {'name': 'Medicinal Plants of South Africa (Book)', 'id': 43}, 'title': 'Medicinal Plants of South Africa', 'year': 2009, 'start_page': 26, 'volume': None, 'issue': None, 'doi': '', 'isbn': '978-1-875093-37-3', 'despositor': {'code': 'GU2', 'first_name': 'Gugu', 'last_name': 'Mahlangu', 'id': 24}, 'refauthors_set': [{'author': {'first_name': 'Ben-Erik', 'initials': 'B', 'last_name': 'van Wyk', 'id': 635}, 'first_author': True, 'id': 1437}, {'author': {'first_name': 'Bosch', 'initials': 'B', 'last_name': 'van Oudtshoorn', 'id': 877}, 'first_author': None, 'id': 1438}, {'author': {'first_name': 'Nigel', 'initials': 'N', 'last_name': 'Gericke', 'id': 878}, 'first_author': None, 'id': 1439}], 'id': 408}]

>  <classifications>  (611) 
[{'classification': 'Glycoside', 'id': 781}, {'classification': 'Steroids and steroid derivatives (Classyfire)', 'id': 942}]

>  <molecular_mass>  (611) 
550.68

$$$$
SANC00716_minRM1.pdb
     RDKit          3D

 55 55  0  0  0  0  0  0  0  0999 V2000
   -1.6230    3.6470    0.2900 C   0  0  0  0  0  0  0  0  0  0  0  0
   -1.1230    2.3040    0.6820 C   0  0  0  0  0  0  0  0  0  0  0  0
   -1.9020    1.3640    1.2200 C   0  0  0  0  0  0  0  0  0  0  0  0
   -3.3480    1.5380    1.5400 C   0  0  0  0  0  0  0  0  0  0  0  0
   -4.1130    0.4390    0.8790 C   0  0  0  0  0  0  0  0  0  0  0  0
   -4.4840   -0.6680    1.5230 C   0  0  0  0  0  0  0  0  0  0  0  0
   -5.2170   -1.7460    0.8300 C   0  0  0  0  0  0  0  0  0  0  0  0
   -5.7970   -2.6200    1.4490 O   0  0  0  0  0  0  0  0  0  0  0  0
   -5.2020   -1.7120   -0.6540 C   0  0  0  0  0  0  0  0  0  0  0  0
   -5.6260   -2.9510   -1.3480 C   0  0  0  0  0  0  0  0  0  0  0  0
   -4.8330   -0.6030   -1.2980 C   0  0  0  0  0  0  0  0  0  0  0  0
   -4.4380    0.6130   -0.5580 C   0  0  0  0  0  0  0  0  0  0  0  0
   -4.3960    1.6990   -1.1090 O   0  0  0  0  0  0  0  0  0  0  0  0
    0.3290    2.0420    0.4360 C   0  0  0  0  0  0  0  0  0  0  0  0
    0.5720    1.8010   -1.0560 C   0  0  0  0  0  0  0  0  0  0  0  0
    2.0270    1.5730   -1.2800 C   0  0  0  0  0  0  0  0  0  0  0  0
    2.5940    0.3660   -1.3010 C   0  0  0  0  0  0  0  0  0  0  0  0
    1.8310   -0.8960   -1.1090 C   0  0  0  0  0  0  0  0  0  0  0  0
    4.0630    0.2050   -1.5180 C   0  0  0  0  0  0  0  0  0  0  0  0
    4.7830   -0.1380   -0.2320 C   0  0  0  0  0  0  0  0  0  0  0  0
    4.2160   -0.1780    0.8410 O   0  0  0  0  0  0  0  0  0  0  0  0
    6.2650   -0.3800   -0.3850 C   0  0  0  0  0  0  0  0  0  0  0  0
    6.9080   -0.9710    0.8710 C   0  0  0  0  0  0  0  0  0  0  0  0
    6.4190   -2.3960    1.1000 C   0  0  0  0  0  0  0  0  0  0  0  0
    8.4260   -0.9650    0.7170 C   0  0  0  0  0  0  0  0  0  0  0  0
   -2.0350    4.1970    1.1510 H   0  0  0  0  0  0  0  0  0  0  0  0
   -0.8450    4.2960   -0.1390 H   0  0  0  0  0  0  0  0  0  0  0  0
   -2.4200    3.5800   -0.4680 H   0  0  0  0  0  0  0  0  0  0  0  0
   -1.4980    0.3810    1.4880 H   0  0  0  0  0  0  0  0  0  0  0  0
   -3.4810    1.5180    2.6450 H   0  0  0  0  0  0  0  0  0  0  0  0
   -3.7630    2.5240    1.2410 H   0  0  0  0  0  0  0  0  0  0  0  0
   -4.2750   -0.8300    2.5860 H   0  0  0  0  0  0  0  0  0  0  0  0
   -6.6740   -3.1960   -1.1100 H   0  0  0  0  0  0  0  0  0  0  0  0
   -5.5500   -2.8880   -2.4430 H   0  0  0  0  0  0  0  0  0  0  0  0
   -5.0220   -3.8150   -1.0310 H   0  0  0  0  0  0  0  0  0  0  0  0
   -4.8200   -0.5320   -2.3910 H   0  0  0  0  0  0  0  0  0  0  0  0
    0.9410    2.8950    0.8010 H   0  0  0  0  0  0  0  0  0  0  0  0
    0.7020    1.1800    1.0280 H   0  0  0  0  0  0  0  0  0  0  0  0
   -0.0500    0.9580   -1.4220 H   0  0  0  0  0  0  0  0  0  0  0  0
    0.2250    2.6690   -1.6580 H   0  0  0  0  0  0  0  0  0  0  0  0
    2.6240    2.4830   -1.4070 H   0  0  0  0  0  0  0  0  0  0  0  0
    1.1750   -1.1050   -1.9680 H   0  0  0  0  0  0  0  0  0  0  0  0
    2.4750   -1.7790   -0.9840 H   0  0  0  0  0  0  0  0  0  0  0  0
    1.1930   -0.8630   -0.2140 H   0  0  0  0  0  0  0  0  0  0  0  0
    4.2520   -0.5810   -2.2810 H   0  0  0  0  0  0  0  0  0  0  0  0
    4.5240    1.1200   -1.9500 H   0  0  0  0  0  0  0  0  0  0  0  0
    6.4570   -1.0340   -1.2620 H   0  0  0  0  0  0  0  0  0  0  0  0
    6.7410    0.5900   -0.6480 H   0  0  0  0  0  0  0  0  0  0  0  0
    6.6310   -0.3410    1.7560 H   0  0  0  0  0  0  0  0  0  0  0  0
    6.8630   -2.8370    2.0040 H   0  0  0  0  0  0  0  0  0  0  0  0
    5.3300   -2.4530    1.2320 H   0  0  0  0  0  0  0  0  0  0  0  0
    6.6740   -3.0670    0.2670 H   0  0  0  0  0  0  0  0  0  0  0  0
    8.8280    0.0480    0.5740 H   0  0  0  0  0  0  0  0  0  0  0  0
    8.9270   -1.3740    1.6070 H   0  0  0  0  0  0  0  0  0  0  0  0
    8.7650   -1.5670   -0.1390 H   0  0  0  0  0  0  0  0  0  0  0  0
  1 28  1  0
  1 27  1  0
  1  2  1  0
  1 26  1  0
  2 14  1  0
  2  3  2  0
  3 29  1  0
  3  4  1  0
  4  5  1  0
  4 31  1  0
  4 30  1  0
  5 12  1  0
  5  6  2  0
  6  7  1  0
  6 32  1  0
  7  9  1  0
  7  8  2  0
  9 10  1  0
  9 11  2  0
 10 34  1  0
 10 33  1  0
 10 35  1  0
 11 36  1  0
 11 12  1  0
 12 13  2  0
 14 15  1  0
 14 37  1  0
 14 38  1  0
 15 40  1  0
 15 39  1  0
 15 16  1  0
 16 41  1  0
 16 17  2  0
 17 19  1  0
 17 18  1  0
 18 42  1  0
 18 43  1  0
 18 44  1  0
 19 45  1  0
 19 46  1  0
 19 20  1  0
 20 22  1  0
 20 21  2  0
 22 47  1  0
 22 48  1  0
 22 23  1  0
 23 25  1  0
 23 24  1  0
 23 49  1  0
 24 52  1  0
 24 51  1  0
 24 50  1  0
 25 55  1  0
 25 53  1  0
 25 54  1  0
M  END
>  <id>  (612) 
716

>  <scaffolds>  (612) 
[]

>  <name>  (612) 
2,5-Cyclohexadiene-1,4-dione, 2-methyl-5-[(2E,6E)-3,7,11-trimethyl-9-oxo-2,6-dodecadien-1-yl]-

>  <formula>  (612) 
C22H30O3

>  <SMILES>  (612) 
C/C(=C\Cc1cc(=O)c(C)cc1=O)CC/C=C(C)/CC(=O)CC(C)C

>  <ChEMBL_id>  (612) 


>  <ZINC_id>  (612) 


>  <PubChem_id>  (612) 


>  <DrugBank_id>  (612) 


>  <CAS_no>  (612) 
369368-10-5

>  <references>  (612) 
[{'journal': {'name': 'South African Journal of Science', 'id': 6}, 'title': 'Ten years of marine natural products research at Rhodes University', 'year': 2004, 'start_page': 539, 'volume': 100, 'issue': 11, 'doi': None, 'isbn': None, 'despositor': {'code': 'TMM', 'first_name': 'Thommas', 'last_name': 'Musyoka', 'id': 22}, 'refauthors_set': [{'author': {'first_name': 'Michael', 'initials': 'MT', 'last_name': 'Davies-Coleman', 'id': 449}, 'first_author': True, 'id': 1049}, {'author': {'first_name': 'Denzil', 'initials': 'DR', 'last_name': 'Beukes', 'id': 453}, 'first_author': None, 'id': 1050}], 'id': 236}, {'journal': {'name': 'Journal of Natural Products', 'id': 5}, 'title': 'Sequestered Chemistry of the Arminacean Nudibranch Leminda millecra in Algoa Bay, South Africa', 'year': 2001, 'start_page': 1183, 'volume': 64, 'issue': 9, 'doi': '10.1021/np010085x', 'isbn': '', 'despositor': {'code': 'TMM', 'first_name': 'Thommas', 'last_name': 'Musyoka', 'id': 22}, 'refauthors_set': [{'author': {'first_name': 'Kerry', 'initials': 'KL', 'last_name': 'McPhail', 'id': 483}, 'first_author': True, 'id': 639}, {'author': {'first_name': 'Michael', 'initials': 'MT', 'last_name': 'Davies-Coleman', 'id': 449}, 'first_author': False, 'id': 701}, {'author': {'first_name': '', 'initials': 'JA', 'last_name': 'Starmer', 'id': 530}, 'first_author': False, 'id': 702}], 'id': 246}]

>  <classifications>  (612) 
[{'classification': 'Hydroquinone', 'id': 784}, {'classification': 'Triprenyltoluquinone', 'id': 861}, {'classification': 'Phenol lipids (Classyfire)', 'id': 951}]

>  <molecular_mass>  (612) 
342.47

$$$$
SANC00717_minRM1.pdb
     RDKit          3D

 57 57  0  0  0  0  0  0  0  0999 V2000
   -1.6940    3.6110   -0.3050 C   0  0  0  0  0  0  0  0  0  0  0  0
   -1.0950    2.4000    0.3160 C   0  0  0  0  0  0  0  0  0  0  0  0
   -1.8000    1.5210    1.0310 C   0  0  0  0  0  0  0  0  0  0  0  0
   -3.2600    1.6230    1.3140 C   0  0  0  0  0  0  0  0  0  0  0  0
   -3.9360    0.3970    0.7900 C   0  0  0  0  0  0  0  0  0  0  0  0
   -4.3450    0.3710   -0.5370 C   0  0  0  0  0  0  0  0  0  0  0  0
   -4.9880   -0.7610   -1.0400 C   0  0  0  0  0  0  0  0  0  0  0  0
   -5.4010   -0.6550   -2.3330 O   0  0  0  0  0  0  0  0  0  0  0  0
   -5.2350   -1.8820   -0.2390 C   0  0  0  0  0  0  0  0  0  0  0  0
   -5.9370   -3.0740   -0.7810 C   0  0  0  0  0  0  0  0  0  0  0  0
   -4.7980   -1.8680    1.0780 C   0  0  0  0  0  0  0  0  0  0  0  0
   -4.1480   -0.7360    1.5800 C   0  0  0  0  0  0  0  0  0  0  0  0
   -3.8060   -0.8150    2.8940 O   0  0  0  0  0  0  0  0  0  0  0  0
    0.3700    2.1990    0.0890 C   0  0  0  0  0  0  0  0  0  0  0  0
    0.6040    1.6890   -1.3360 C   0  0  0  0  0  0  0  0  0  0  0  0
    2.0600    1.4400   -1.5320 C   0  0  0  0  0  0  0  0  0  0  0  0
    2.6360    0.2460   -1.3820 C   0  0  0  0  0  0  0  0  0  0  0  0
    1.8850   -0.9790   -0.9990 C   0  0  0  0  0  0  0  0  0  0  0  0
    4.1050    0.0640   -1.5880 C   0  0  0  0  0  0  0  0  0  0  0  0
    4.8370   -0.0960   -0.2740 C   0  0  0  0  0  0  0  0  0  0  0  0
    4.2820    0.0170    0.8010 O   0  0  0  0  0  0  0  0  0  0  0  0
    6.3160   -0.3630   -0.4060 C   0  0  0  0  0  0  0  0  0  0  0  0
    6.9740   -0.7570    0.9180 C   0  0  0  0  0  0  0  0  0  0  0  0
    6.4850   -2.1290    1.3680 C   0  0  0  0  0  0  0  0  0  0  0  0
    8.4900   -0.7820    0.7470 C   0  0  0  0  0  0  0  0  0  0  0  0
   -2.1250    4.2870    0.4500 H   0  0  0  0  0  0  0  0  0  0  0  0
   -0.9700    4.2150   -0.8720 H   0  0  0  0  0  0  0  0  0  0  0  0
   -2.4980    3.3540   -1.0130 H   0  0  0  0  0  0  0  0  0  0  0  0
   -1.3140    0.6360    1.4600 H   0  0  0  0  0  0  0  0  0  0  0  0
   -3.4240    1.7600    2.4070 H   0  0  0  0  0  0  0  0  0  0  0  0
   -3.7350    2.5290    0.8830 H   0  0  0  0  0  0  0  0  0  0  0  0
   -4.1730    1.2340   -1.1880 H   0  0  0  0  0  0  0  0  0  0  0  0
   -5.4090   -1.5330   -2.7240 H   0  0  0  0  0  0  0  0  0  0  0  0
   -5.3260   -3.6060   -1.5260 H   0  0  0  0  0  0  0  0  0  0  0  0
   -6.1840   -3.8160   -0.0070 H   0  0  0  0  0  0  0  0  0  0  0  0
   -6.8910   -2.8090   -1.2610 H   0  0  0  0  0  0  0  0  0  0  0  0
   -4.9640   -2.7290    1.7330 H   0  0  0  0  0  0  0  0  0  0  0  0
   -3.0390   -0.2540    3.0440 H   0  0  0  0  0  0  0  0  0  0  0  0
    0.9250    3.1450    0.2650 H   0  0  0  0  0  0  0  0  0  0  0  0
    0.8100    1.4920    0.8240 H   0  0  0  0  0  0  0  0  0  0  0  0
   -0.0110    0.7860   -1.5320 H   0  0  0  0  0  0  0  0  0  0  0  0
    0.2410    2.4260   -2.0840 H   0  0  0  0  0  0  0  0  0  0  0  0
    2.6490    2.3280   -1.7930 H   0  0  0  0  0  0  0  0  0  0  0  0
    1.2020   -1.3050   -1.8010 H   0  0  0  0  0  0  0  0  0  0  0  0
    2.5370   -1.8370   -0.7760 H   0  0  0  0  0  0  0  0  0  0  0  0
    1.2740   -0.8210   -0.0940 H   0  0  0  0  0  0  0  0  0  0  0  0
    4.2910   -0.8180   -2.2380 H   0  0  0  0  0  0  0  0  0  0  0  0
    4.5570    0.9140   -2.1440 H   0  0  0  0  0  0  0  0  0  0  0  0
    6.4960   -1.1440   -1.1750 H   0  0  0  0  0  0  0  0  0  0  0  0
    6.7910    0.5540   -0.8210 H   0  0  0  0  0  0  0  0  0  0  0  0
    6.7110    0.0020    1.7000 H   0  0  0  0  0  0  0  0  0  0  0  0
    5.3970   -2.1600    1.5200 H   0  0  0  0  0  0  0  0  0  0  0  0
    6.7280   -2.9210    0.6440 H   0  0  0  0  0  0  0  0  0  0  0  0
    6.9380   -2.4290    2.3250 H   0  0  0  0  0  0  0  0  0  0  0  0
    8.8930    0.1950    0.4430 H   0  0  0  0  0  0  0  0  0  0  0  0
    9.0020   -1.0540    1.6820 H   0  0  0  0  0  0  0  0  0  0  0  0
    8.8160   -1.5090   -0.0120 H   0  0  0  0  0  0  0  0  0  0  0  0
  1 28  1  0
  1 27  1  0
  1  2  1  0
  1 26  1  0
  2 14  1  0
  2  3  2  0
  3  4  1  0
  3 29  1  0
  4  5  1  0
  4 31  1  0
  4 30  1  0
  5  6  2  0
  5 12  1  0
  6 32  1  0
  6  7  1  0
  7  8  1  0
  7  9  2  0
  8 33  1  0
  9 10  1  0
  9 11  1  0
 10 34  1  0
 10 36  1  0
 10 35  1  0
 11 12  2  0
 11 37  1  0
 12 13  1  0
 13 38  1  0
 14 15  1  0
 14 39  1  0
 14 40  1  0
 15 42  1  0
 15 41  1  0
 15 16  1  0
 16 43  1  0
 16 17  2  0
 17 19  1  0
 17 18  1  0
 18 44  1  0
 18 45  1  0
 18 46  1  0
 19 47  1  0
 19 48  1  0
 19 20  1  0
 20 22  1  0
 20 21  2  0
 22 49  1  0
 22 50  1  0
 22 23  1  0
 23 25  1  0
 23 24  1  0
 23 51  1  0
 24 53  1  0
 24 52  1  0
 24 54  1  0
 25 57  1  0
 25 55  1  0
 25 56  1  0
M  END
>  <id>  (613) 
717

>  <scaffolds>  (613) 
['c1ccccc1']

>  <name>  (613) 
6,10-Dodecadien-4-one, 12-(2,5-dihydroxy-4-methylphenyl)-2,6,10-trimethyl-, (6E,10E)-

>  <formula>  (613) 
C22H32O3

>  <SMILES>  (613) 
C/C(=C\Cc1cc(O)c(C)cc1O)CC/C=C(C)/CC(=O)CC(C)C

>  <ChEMBL_id>  (613) 


>  <ZINC_id>  (613) 


>  <PubChem_id>  (613) 


>  <DrugBank_id>  (613) 


>  <CAS_no>  (613) 
369368-16-1

>  <references>  (613) 
[{'journal': {'name': 'Journal of Natural Products', 'id': 5}, 'title': 'Sequestered Chemistry of the Arminacean Nudibranch Leminda millecra in Algoa Bay, South Africa', 'year': 2001, 'start_page': 1183, 'volume': 64, 'issue': 9, 'doi': '10.1021/np010085x', 'isbn': '', 'despositor': {'code': 'TMM', 'first_name': 'Thommas', 'last_name': 'Musyoka', 'id': 22}, 'refauthors_set': [{'author': {'first_name': 'Kerry', 'initials': 'KL', 'last_name': 'McPhail', 'id': 483}, 'first_author': True, 'id': 639}, {'author': {'first_name': 'Michael', 'initials': 'MT', 'last_name': 'Davies-Coleman', 'id': 449}, 'first_author': False, 'id': 701}, {'author': {'first_name': '', 'initials': 'JA', 'last_name': 'Starmer', 'id': 530}, 'first_author': False, 'id': 702}], 'id': 246}]

>  <classifications>  (613) 
[{'classification': 'Hydroquinone', 'id': 784}, {'classification': 'Triprenyltoluquinone', 'id': 861}, {'classification': 'Phenol lipids (Classyfire)', 'id': 951}]

>  <molecular_mass>  (613) 
344.49

$$$$
SANC00718_minRM1.pdb
     RDKit          3D

 28 27  0  0  1  0  0  0  0  0999 V2000
    1.5100   -1.5320    1.3780 C   0  0  0  0  0  0  0  0  0  0  0  0
    1.9740   -0.2640    0.7480 C   0  0  0  0  0  0  0  0  0  0  0  0
    3.1450   -0.1660    0.1130 C   0  0  0  0  0  0  0  0  0  0  0  0
    4.0490   -1.3170   -0.0100 C   0  0  1  0  0  0  0  0  0  0  0  0
    5.3770   -0.9160   -1.1750 Cl  0  0  0  0  0  0  0  0  0  0  0  0
    4.8640   -1.5750    1.6080 Cl  0  0  0  0  0  0  0  0  0  0  0  0
    1.0260    0.8650    0.9160 C   0  0  1  0  0  0  0  0  0  0  0  0
    1.5920    2.5080   -0.1300 Br  0  0  0  0  0  0  0  0  0  0  0  0
   -0.3100    0.5450    0.3650 C   0  0  0  0  0  0  0  0  0  0  0  0
   -1.4270    0.7500    1.0630 C   0  0  0  0  0  0  0  0  0  0  0  0
   -2.7670    0.4690    0.4820 C   0  0  1  0  0  0  0  0  0  0  0  0
   -3.1760    1.5200   -0.5190 C   0  0  0  0  0  0  0  0  0  0  0  0
   -2.6040   -1.1280   -0.4800 Cl  0  0  0  0  0  0  0  0  0  0  0  0
   -3.7840    0.1850    1.5530 C   0  0  0  0  0  0  0  0  0  0  0  0
   -5.5760   -0.1940    0.7440 Br  0  0  0  0  0  0  0  0  0  0  0  0
    2.3020   -2.0060    1.9850 H   0  0  0  0  0  0  0  0  0  0  0  0
    0.6500   -1.4000    2.0520 H   0  0  0  0  0  0  0  0  0  0  0  0
    1.1950   -2.2650    0.6170 H   0  0  0  0  0  0  0  0  0  0  0  0
    3.5030    0.7710   -0.3400 H   0  0  0  0  0  0  0  0  0  0  0  0
    3.6040   -2.2840   -0.3180 H   0  0  0  0  0  0  0  0  0  0  0  0
    1.0380    1.2370    1.9640 H   0  0  0  0  0  0  0  0  0  0  0  0
   -0.3270    0.1320   -0.6530 H   0  0  0  0  0  0  0  0  0  0  0  0
   -1.4160    1.1560    2.0800 H   0  0  0  0  0  0  0  0  0  0  0  0
   -2.3930    1.6960   -1.2710 H   0  0  0  0  0  0  0  0  0  0  0  0
   -4.0840    1.2390   -1.0760 H   0  0  0  0  0  0  0  0  0  0  0  0
   -3.3770    2.4850   -0.0280 H   0  0  0  0  0  0  0  0  0  0  0  0
   -3.5490   -0.7100    2.1480 H   0  0  0  0  0  0  0  0  0  0  0  0
   -3.9550    1.0390    2.2270 H   0  0  0  0  0  0  0  0  0  0  0  0
  1 18  1  0
  1  2  1  0
  1 16  1  0
  1 17  1  0
  2  3  2  0
  2  7  1  0
  3 19  1  0
  3  4  1  0
  4  5  1  0
  4 20  1  6
  4  6  1  0
  7  8  1  0
  7  9  1  0
  7 21  1  1
  9 22  1  0
  9 10  2  0
 10 11  1  0
 10 23  1  0
 11 12  1  0
 11 13  1  6
 11 14  1  0
 12 24  1  0
 12 25  1  0
 12 26  1  0
 14 15  1  0
 14 27  1  0
 14 28  1  0
M  END
>  <id>  (614) 
718

>  <scaffolds>  (614) 
[]

>  <name>  (614) 
4,8-dibromo-1, 1, 7-trichloro-3, 7-dimethyl-2,5-octadiene

>  <formula>  (614) 
C10H13Br2Cl3

>  <SMILES>  (614) 
C/C(=C\C(Cl)Cl)C(Br)/C=C/C(C)(Cl)CBr

>  <ChEMBL_id>  (614) 


>  <ZINC_id>  (614) 


>  <PubChem_id>  (614) 


>  <DrugBank_id>  (614) 


>  <CAS_no>  (614) 


>  <references>  (614) 
[{'journal': {'name': 'South African Journal of Science', 'id': 6}, 'title': 'Ten years of marine natural products research at Rhodes University', 'year': 2004, 'start_page': 539, 'volume': 100, 'issue': 11, 'doi': None, 'isbn': None, 'despositor': {'code': 'TMM', 'first_name': 'Thommas', 'last_name': 'Musyoka', 'id': 22}, 'refauthors_set': [{'author': {'first_name': 'Michael', 'initials': 'MT', 'last_name': 'Davies-Coleman', 'id': 449}, 'first_author': True, 'id': 1049}, {'author': {'first_name': 'Denzil', 'initials': 'DR', 'last_name': 'Beukes', 'id': 453}, 'first_author': None, 'id': 1050}], 'id': 236}, {'journal': {'name': 'Thesis, Rhodes University', 'id': 2}, 'title': 'The Natural Product Chemistry Of South African Plocamium Species', 'year': 2003, 'start_page': None, 'volume': None, 'issue': None, 'doi': '', 'isbn': '', 'despositor': {'code': 'GU2', 'first_name': 'Gugu', 'last_name': 'Mahlangu', 'id': 24}, 'refauthors_set': [{'author': {'first_name': 'Michael', 'initials': 'MG', 'last_name': 'Knott', 'id': 504}, 'first_author': True, 'id': 1440}], 'id': 409}]

>  <classifications>  (614) 
[{'classification': 'Monoterpene', 'id': 795}, {'classification': 'Halogenated monoterpene', 'id': 866}, {'classification': 'Organochlorides (Classyfire)', 'id': 959}]

>  <molecular_mass>  (614) 
399.38

$$$$
SANC00719_minRM1.pdb
     RDKit          3D

 50 50  0  0  0  0  0  0  0  0999 V2000
   -8.8240    0.4660    0.2800 C   0  0  0  0  0  0  0  0  0  0  0  0
   -7.4360    0.3670    0.8920 C   0  0  0  0  0  0  0  0  0  0  0  0
   -6.3640    0.3820   -0.1940 C   0  0  0  0  0  0  0  0  0  0  0  0
   -4.9700    0.2820    0.4190 C   0  0  0  0  0  0  0  0  0  0  0  0
   -3.8990    0.2810   -0.6690 C   0  0  0  0  0  0  0  0  0  0  0  0
   -2.5050    0.1960   -0.0530 C   0  0  0  0  0  0  0  0  0  0  0  0
   -1.4340    0.1440   -1.1430 C   0  0  0  0  0  0  0  0  0  0  0  0
   -0.0810    0.1000   -0.5120 C   0  0  0  0  0  0  0  0  0  0  0  0
    0.6290    1.2650   -0.2630 C   0  0  0  0  0  0  0  0  0  0  0  0
    0.1940    2.4960   -0.6570 O   0  0  0  0  0  0  0  0  0  0  0  0
    1.9040    1.2450    0.3280 C   0  0  0  0  0  0  0  0  0  0  0  0
    2.4740    0.0470    0.7000 C   0  0  0  0  0  0  0  0  0  0  0  0
    3.8360    0.0350    1.3170 C   0  0  0  0  0  0  0  0  0  0  0  0
    4.8460   -0.0930    0.2280 C   0  0  0  0  0  0  0  0  0  0  0  0
    5.8000    0.8020   -0.0340 C   0  0  0  0  0  0  0  0  0  0  0  0
    5.9750    2.0630    0.7350 C   0  0  0  0  0  0  0  0  0  0  0  0
    6.7760    0.5900   -1.1380 C   0  0  0  0  0  0  0  0  0  0  0  0
    1.7560   -1.1480    0.4700 C   0  0  0  0  0  0  0  0  0  0  0  0
    2.3670   -2.2790    0.8490 O   0  0  0  0  0  0  0  0  0  0  0  0
    0.4870   -1.1230   -0.1260 C   0  0  0  0  0  0  0  0  0  0  0  0
   -0.2140   -2.3850   -0.3520 C   0  0  0  0  0  0  0  0  0  0  0  0
    0.2750   -3.4430    0.0420 O   0  0  0  0  0  0  0  0  0  0  0  0
   -8.9600    1.3910   -0.2970 H   0  0  0  0  0  0  0  0  0  0  0  0
   -9.0410   -0.3690   -0.4000 H   0  0  0  0  0  0  0  0  0  0  0  0
   -9.6100    0.4560    1.0490 H   0  0  0  0  0  0  0  0  0  0  0  0
   -7.2740    1.1980    1.6090 H   0  0  0  0  0  0  0  0  0  0  0  0
   -7.3550   -0.5550    1.5070 H   0  0  0  0  0  0  0  0  0  0  0  0
   -6.5320   -0.4490   -0.9100 H   0  0  0  0  0  0  0  0  0  0  0  0
   -6.4520    1.3030   -0.8080 H   0  0  0  0  0  0  0  0  0  0  0  0
   -4.7990    1.1200    1.1280 H   0  0  0  0  0  0  0  0  0  0  0  0
   -4.8870   -0.6340    1.0420 H   0  0  0  0  0  0  0  0  0  0  0  0
   -4.0640   -0.5620   -1.3720 H   0  0  0  0  0  0  0  0  0  0  0  0
   -3.9870    1.1920   -1.2990 H   0  0  0  0  0  0  0  0  0  0  0  0
   -2.3280    1.0540    0.6290 H   0  0  0  0  0  0  0  0  0  0  0  0
   -2.4210   -0.6970    0.6040 H   0  0  0  0  0  0  0  0  0  0  0  0
   -1.5910   -0.7390   -1.8030 H   0  0  0  0  0  0  0  0  0  0  0  0
   -1.5300    0.9990   -1.8460 H   0  0  0  0  0  0  0  0  0  0  0  0
   -0.7000    2.6010   -0.3150 H   0  0  0  0  0  0  0  0  0  0  0  0
    2.4400    2.1900    0.4790 H   0  0  0  0  0  0  0  0  0  0  0  0
    3.9760    0.9340    1.9540 H   0  0  0  0  0  0  0  0  0  0  0  0
    3.9570   -0.8070    2.0360 H   0  0  0  0  0  0  0  0  0  0  0  0
    4.7520   -1.0110   -0.3640 H   0  0  0  0  0  0  0  0  0  0  0  0
    6.1860    1.8710    1.7990 H   0  0  0  0  0  0  0  0  0  0  0  0
    6.8060    2.6840    0.3660 H   0  0  0  0  0  0  0  0  0  0  0  0
    5.0760    2.6980    0.6890 H   0  0  0  0  0  0  0  0  0  0  0  0
    6.6310   -0.3550   -1.6820 H   0  0  0  0  0  0  0  0  0  0  0  0
    6.7130    1.3950   -1.8860 H   0  0  0  0  0  0  0  0  0  0  0  0
    7.8100    0.5740   -0.7620 H   0  0  0  0  0  0  0  0  0  0  0  0
    1.7810   -3.0660    0.7250 H   0  0  0  0  0  0  0  0  0  0  0  0
   -1.1850   -2.3660   -0.8830 H   0  0  0  0  0  0  0  0  0  0  0  0
  1 24  1  0
  1 23  1  0
  1  2  1  0
  1 25  1  0
  2  3  1  0
  2 27  1  0
  2 26  1  0
  3 28  1  0
  3 29  1  0
  3  4  1  0
  4  5  1  0
  4 31  1  0
  4 30  1  0
  5 32  1  0
  5 33  1  0
  5  6  1  0
  6  7  1  0
  6 35  1  0
  6 34  1  0
  7 37  1  0
  7 36  1  0
  7  8  1  0
  8  9  2  0
  8 20  1  0
  9 10  1  0
  9 11  1  0
 10 38  1  0
 11 39  1  0
 11 12  2  0
 12 18  1  0
 12 13  1  0
 13 14  1  0
 13 40  1  0
 13 41  1  0
 14 42  1  0
 14 15  2  0
 15 17  1  0
 15 16  1  0
 16 44  1  0
 16 45  1  0
 16 43  1  0
 17 47  1  0
 17 46  1  0
 17 48  1  0
 18 20  2  0
 18 19  1  0
 19 49  1  0
 20 21  1  0
 21 50  1  0
 21 22  2  0
M  END
>  <id>  (615) 
719

>  <scaffolds>  (615) 
['c1ccccc1']

>  <name>  (615) 
Flavoglaucin

>  <formula>  (615) 
C19H28O3

>  <SMILES>  (615) 
CCCCCCCc1c(O)cc(C/C=C(C)/C)c(O)c1C=O

>  <ChEMBL_id>  (615) 
CHEMBL1813664

>  <ZINC_id>  (615) 


>  <PubChem_id>  (615) 
119037

>  <DrugBank_id>  (615) 


>  <CAS_no>  (615) 
523-73-9

>  <references>  (615) 
[{'journal': {'name': 'Thesis, Rhodes University', 'id': 2}, 'title': 'Marine biotechnology: Evaluation and development of methods for the discovery of natural products from fungi', 'year': 2004, 'start_page': None, 'volume': None, 'issue': None, 'doi': '', 'isbn': '', 'despositor': {'code': 'GU2', 'first_name': 'Gugu', 'last_name': 'Mahlangu', 'id': 24}, 'refauthors_set': [{'author': {'first_name': 'Simisha', 'initials': 'S', 'last_name': 'Pather', 'id': 879}, 'first_author': True, 'id': 1441}], 'id': 410}]

>  <classifications>  (615) 
[{'classification': 'Prenylated hydroquinone', 'id': 862}, {'classification': 'Phenol lipids (Classyfire)', 'id': 951}]

>  <molecular_mass>  (615) 
304.42

$$$$
SANC00720_minRM1.pdb
     RDKit          3D

 45 47  0  0  1  0  0  0  0  0999 V2000
    2.2100    2.9570   -2.1560 C   0  0  0  0  0  0  0  0  0  0  0  0
    1.8740    2.4820   -0.9640 C   0  0  0  0  0  0  0  0  0  0  0  0
    2.7940    1.7590   -0.0190 C   0  0  1  0  0  0  0  0  0  0  0  0
    4.2530    1.8220   -0.4690 C   0  0  0  0  0  0  0  0  0  0  0  0
    2.7010    2.4210    1.3630 C   0  0  0  0  0  0  0  0  0  0  0  0
    2.2890    0.3540    0.0930 C   0  0  0  0  0  0  0  0  0  0  0  0
    3.0630   -0.7700   -0.2060 N   0  0  0  0  0  0  0  0  0  0  0  0
    4.0170   -0.7780   -0.5270 H   0  0  0  0  0  0  0  0  0  0  0  0
    2.2900   -1.9130    0.0100 C   0  0  0  0  0  0  0  0  0  0  0  0
    2.6290   -3.2630   -0.1400 C   0  0  0  0  0  0  0  0  0  0  0  0
    1.6580   -4.1860    0.1760 C   0  0  0  0  0  0  0  0  0  0  0  0
    0.3870   -3.7920    0.6400 C   0  0  0  0  0  0  0  0  0  0  0  0
    0.0540   -2.4620    0.7830 C   0  0  0  0  0  0  0  0  0  0  0  0
    1.0080   -1.4980    0.4490 C   0  0  0  0  0  0  0  0  0  0  0  0
    1.0230   -0.0640    0.4840 C   0  0  0  0  0  0  0  0  0  0  0  0
   -0.0680    0.7750    0.9000 C   0  0  0  0  0  0  0  0  0  0  0  0
   -1.3110    0.6790    0.3880 C   0  0  0  0  0  0  0  0  0  0  0  0
   -1.6420   -0.2060   -0.6550 N   0  0  0  0  0  0  0  0  0  0  0  0
   -2.9540   -0.5370   -0.9600 C   0  0  0  0  0  0  0  0  0  0  0  0
   -3.1750   -1.3010   -1.8930 O   0  0  0  0  0  0  0  0  0  0  0  0
   -4.0740    0.0120   -0.0800 C   0  0  2  0  0  0  0  0  0  0  0  0
   -4.2940   -0.7870    0.6880 H   0  0  0  0  0  0  0  0  0  0  0  0
   -5.3210    0.2480   -0.9380 C   0  0  0  0  0  0  0  0  0  0  0  0
   -3.6930    1.2480    0.5970 N   0  0  0  0  0  0  0  0  0  0  0  0
   -2.3810    1.5840    0.8780 C   0  0  0  0  0  0  0  0  0  0  0  0
   -2.1430    2.6160    1.5040 O   0  0  0  0  0  0  0  0  0  0  0  0
    3.1880    2.8940   -2.6210 H   0  0  0  0  0  0  0  0  0  0  0  0
    1.4990    3.4730   -2.7950 H   0  0  0  0  0  0  0  0  0  0  0  0
    0.8470    2.6070   -0.5970 H   0  0  0  0  0  0  0  0  0  0  0  0
    4.5950    2.8630   -0.5700 H   0  0  0  0  0  0  0  0  0  0  0  0
    4.9350    1.3490    0.2530 H   0  0  0  0  0  0  0  0  0  0  0  0
    4.4290    1.3440   -1.4440 H   0  0  0  0  0  0  0  0  0  0  0  0
    1.6760    2.4200    1.7700 H   0  0  0  0  0  0  0  0  0  0  0  0
    3.3310    1.9120    2.1060 H   0  0  0  0  0  0  0  0  0  0  0  0
    3.0220    3.4720    1.3300 H   0  0  0  0  0  0  0  0  0  0  0  0
    3.6170   -3.5620   -0.4920 H   0  0  0  0  0  0  0  0  0  0  0  0
    1.8720   -5.2550    0.0730 H   0  0  0  0  0  0  0  0  0  0  0  0
   -0.3450   -4.5660    0.8890 H   0  0  0  0  0  0  0  0  0  0  0  0
   -0.9260   -2.1570    1.1590 H   0  0  0  0  0  0  0  0  0  0  0  0
    0.1690    1.5320    1.6640 H   0  0  0  0  0  0  0  0  0  0  0  0
   -0.8790   -0.6250   -1.1870 H   0  0  0  0  0  0  0  0  0  0  0  0
   -5.6390   -0.6760   -1.4450 H   0  0  0  0  0  0  0  0  0  0  0  0
   -6.1800    0.5840   -0.3380 H   0  0  0  0  0  0  0  0  0  0  0  0
   -5.1550    1.0000   -1.7220 H   0  0  0  0  0  0  0  0  0  0  0  0
   -4.4400    1.8710    0.8950 H   0  0  0  0  0  0  0  0  0  0  0  0
  1 28  1  0
  1 27  1  0
  1  2  2  0
  2 29  1  0
  3  2  1  6
  3  4  1  0
  3  6  1  0
  3  5  1  0
  4 32  1  0
  4 30  1  0
  4 31  1  0
  5 35  1  0
  5 33  1  0
  5 34  1  0
  6  7  1  0
  6 15  2  0
  7  8  1  0
  7  9  1  0
  9 10  2  0
  9 14  1  0
 10 36  1  0
 10 11  1  0
 11 37  1  0
 11 12  2  0
 12 13  1  0
 12 38  1  0
 13 14  2  0
 13 39  1  0
 14 15  1  0
 15 16  1  0
 16 17  2  0
 16 40  1  0
 17 18  1  0
 17 25  1  0
 18 41  1  0
 18 19  1  0
 19 20  2  0
 19 21  1  0
 21 23  1  0
 21 24  1  0
 21 22  1  1
 23 44  1  0
 23 42  1  0
 23 43  1  0
 24 25  1  0
 24 45  1  0
 25 26  2  0
M  END
>  <id>  (616) 
720

>  <scaffolds>  (616) 
['c1ccccc1', 'c1ccc2[nH]ccc2c1']

>  <name>  (616) 
Neoechinuline A

>  <formula>  (616) 
C19H21N3O2

>  <SMILES>  (616) 
C=CC(C)(C)c2[nH]c1ccccc1c2/C=C/3NC(=O)[C@H](C)NC3=O

>  <ChEMBL_id>  (616) 


>  <ZINC_id>  (616) 


>  <PubChem_id>  (616) 


>  <DrugBank_id>  (616) 


>  <CAS_no>  (616) 
51551-29-2

>  <references>  (616) 
[{'journal': {'name': 'Thesis, Rhodes University', 'id': 2}, 'title': 'Marine biotechnology: Evaluation and development of methods for the discovery of natural products from fungi', 'year': 2004, 'start_page': None, 'volume': None, 'issue': None, 'doi': '', 'isbn': '', 'despositor': {'code': 'GU2', 'first_name': 'Gugu', 'last_name': 'Mahlangu', 'id': 24}, 'refauthors_set': [{'author': {'first_name': 'Simisha', 'initials': 'S', 'last_name': 'Pather', 'id': 879}, 'first_author': True, 'id': 1441}], 'id': 410}]

>  <classifications>  (616) 
[{'classification': 'Diketopiperazine indole alkaloid', 'id': 863}, {'classification': 'Carboxylic acids and derivatives (Classyfire)', 'id': 950}]

>  <molecular_mass>  (616) 
323.39

$$$$
SANC00721_minRM1.pdb
     RDKit          3D

 33 35  0  0  0  0  0  0  0  0999 V2000
   -4.9680    2.1410   -0.0070 C   0  0  0  0  0  0  0  0  0  0  0  0
   -4.7380    0.7500   -0.0070 O   0  0  0  0  0  0  0  0  0  0  0  0
   -3.4470    0.3240   -0.0000 C   0  0  0  0  0  0  0  0  0  0  0  0
   -3.3190   -1.0660   -0.0020 C   0  0  0  0  0  0  0  0  0  0  0  0
   -2.0320   -1.6070   -0.0000 C   0  0  0  0  0  0  0  0  0  0  0  0
   -1.8210   -2.9350   -0.0040 O   0  0  0  0  0  0  0  0  0  0  0  0
   -0.8850   -0.7930    0.0060 C   0  0  0  0  0  0  0  0  0  0  0  0
    0.4520   -1.4090    0.0090 C   0  0  0  0  0  0  0  0  0  0  0  0
    0.5930   -2.6220    0.0180 O   0  0  0  0  0  0  0  0  0  0  0  0
    1.6150   -0.5040   -0.0020 C   0  0  0  0  0  0  0  0  0  0  0  0
    2.9140   -1.0280   -0.0010 C   0  0  0  0  0  0  0  0  0  0  0  0
    3.0210   -2.3710   -0.0060 O   0  0  0  0  0  0  0  0  0  0  0  0
    4.0420   -0.1940   -0.0010 C   0  0  0  0  0  0  0  0  0  0  0  0
    3.8640    1.1790   -0.0010 C   0  0  0  0  0  0  0  0  0  0  0  0
    5.0270    2.1030    0.0020 C   0  0  0  0  0  0  0  0  0  0  0  0
    2.5730    1.7180   -0.0000 C   0  0  0  0  0  0  0  0  0  0  0  0
    1.4670    0.8810    0.0010 C   0  0  0  0  0  0  0  0  0  0  0  0
    0.1180    1.4870    0.0040 C   0  0  0  0  0  0  0  0  0  0  0  0
   -0.0230    2.7010    0.0090 O   0  0  0  0  0  0  0  0  0  0  0  0
   -1.0600    0.5860   -0.0040 C   0  0  0  0  0  0  0  0  0  0  0  0
   -2.3260    1.1590    0.0020 C   0  0  0  0  0  0  0  0  0  0  0  0
   -4.5830    2.6420    0.8960 H   0  0  0  0  0  0  0  0  0  0  0  0
   -4.5820    2.6430   -0.9060 H   0  0  0  0  0  0  0  0  0  0  0  0
   -6.0740    2.2010   -0.0020 H   0  0  0  0  0  0  0  0  0  0  0  0
   -4.2120   -1.6990   -0.0070 H   0  0  0  0  0  0  0  0  0  0  0  0
   -2.6690   -3.3960   -0.0020 H   0  0  0  0  0  0  0  0  0  0  0  0
    3.9530   -2.6160   -0.0040 H   0  0  0  0  0  0  0  0  0  0  0  0
    5.0500   -0.6200   -0.0070 H   0  0  0  0  0  0  0  0  0  0  0  0
    6.0000    1.5870   -0.0060 H   0  0  0  0  0  0  0  0  0  0  0  0
    5.0200    2.7560   -0.8860 H   0  0  0  0  0  0  0  0  0  0  0  0
    5.0180    2.7600    0.8840 H   0  0  0  0  0  0  0  0  0  0  0  0
    2.4500    2.8070   -0.0010 H   0  0  0  0  0  0  0  0  0  0  0  0
   -2.4220    2.2500   -0.0040 H   0  0  0  0  0  0  0  0  0  0  0  0
  1 23  1  0
  1  2  1  0
  1 24  1  0
  1 22  1  0
  2  3  1  0
  3  4  2  0
  3 21  1  0
  4 25  1  0
  4  5  1  0
  5  6  1  0
  5  7  2  0
  6 26  1  0
  7 20  1  0
  7  8  1  0
  8 10  1  0
  8  9  2  0
 10 11  2  0
 10 17  1  0
 11 12  1  0
 11 13  1  0
 12 27  1  0
 13 28  1  0
 13 14  2  0
 14 16  1  0
 14 15  1  0
 15 30  1  0
 15 29  1  0
 15 31  1  0
 16 32  1  0
 16 17  2  0
 17 18  1  0
 18 20  1  0
 18 19  2  0
 20 21  2  0
 21 33  1  0
M  END
>  <id>  (617) 
721

>  <scaffolds>  (617) 
['c1ccccc1', 'O=C1c2ccccc2C(=O)c2ccccc21', 'O=C(c1ccccc1)c1ccccc1', 'c1ccc(Cc2ccccc2)cc1']

>  <name>  (617) 
Physcion

>  <formula>  (617) 
C16H12O5

>  <SMILES>  (617) 
COc3cc(O)c2c(=O)c1c(O)cc(C)cc1c(=O)c2c3

>  <ChEMBL_id>  (617) 
CHEMBL42624

>  <ZINC_id>  (617) 
ZINC03978794

>  <PubChem_id>  (617) 
10639

>  <DrugBank_id>  (617) 


>  <CAS_no>  (617) 
521-61-9

>  <references>  (617) 
[{'journal': {'name': 'Thesis, Rhodes University', 'id': 2}, 'title': 'Marine biotechnology: Evaluation and development of methods for the discovery of natural products from fungi', 'year': 2004, 'start_page': None, 'volume': None, 'issue': None, 'doi': '', 'isbn': '', 'despositor': {'code': 'GU2', 'first_name': 'Gugu', 'last_name': 'Mahlangu', 'id': 24}, 'refauthors_set': [{'author': {'first_name': 'Simisha', 'initials': 'S', 'last_name': 'Pather', 'id': 879}, 'first_author': True, 'id': 1441}], 'id': 410}]

>  <classifications>  (617) 
[{'classification': 'Aromatic Polyketide', 'id': 864}, {'classification': 'Anthracenes (Classyfire)', 'id': 980}]

>  <molecular_mass>  (617) 
284.26

$$$$
SANC00722_minRM1.pdb
     RDKit          3D

 51 51  0  0  1  0  0  0  0  0999 V2000
    9.1010   -3.1690    0.3280 C   0  0  0  0  0  0  0  0  0  0  0  0
    7.8920   -2.5170   -0.3210 C   0  0  0  0  0  0  0  0  0  0  0  0
    7.7390   -1.0700    0.1490 C   0  0  0  0  0  0  0  0  0  0  0  0
    6.5530   -0.4420   -0.4990 C   0  0  0  0  0  0  0  0  0  0  0  0
    5.5710    0.1360    0.1960 C   0  0  0  0  0  0  0  0  0  0  0  0
    4.4290    0.7550   -0.4600 C   0  0  0  0  0  0  0  0  0  0  0  0
    3.4590    1.3560    0.2350 C   0  0  0  0  0  0  0  0  0  0  0  0
    2.2940    2.0140   -0.4220 C   0  0  0  0  0  0  0  0  0  0  0  0
    0.9910    1.5830    0.2550 C   0  0  0  0  0  0  0  0  0  0  0  0
   -0.1980    2.2270   -0.4500 C   0  0  0  0  0  0  0  0  0  0  0  0
   -1.5490    1.8660    0.2030 C   0  0  1  0  0  0  0  0  0  0  0  0
   -1.4870    2.2950    1.5270 O   0  0  0  0  0  0  0  0  0  0  0  0
   -2.6230    2.0540    2.3160 C   0  0  0  0  0  0  0  0  0  0  0  0
   -3.5740    2.3510    1.8440 H   0  0  0  0  0  0  0  0  0  0  0  0
   -2.7010    1.0000    2.6310 H   0  0  0  0  0  0  0  0  0  0  0  0
   -2.4630    2.6750    3.2110 H   0  0  0  0  0  0  0  0  0  0  0  0
   -2.6860    2.4960   -0.5620 C   0  0  0  0  0  0  0  0  0  0  0  0
   -3.6280    1.7400   -1.1160 C   0  0  0  0  0  0  0  0  0  0  0  0
   -3.5760    0.2530   -0.9150 C   0  0  2  0  0  0  0  0  0  0  0  0
   -3.0980   -0.2390   -1.8050 H   0  0  0  0  0  0  0  0  0  0  0  0
   -4.9670   -0.3190   -0.6320 C   0  0  0  0  0  0  0  0  0  0  0  0
   -4.9070   -1.8190   -0.5950 C   0  0  0  0  0  0  0  0  0  0  0  0
   -4.1900   -2.5490   -1.2530 O   0  0  0  0  0  0  0  0  0  0  0  0
   -5.8150   -2.3400    0.2700 O   0  0  0  0  0  0  0  0  0  0  0  0
   -5.8520   -3.7430    0.3990 C   0  0  0  0  0  0  0  0  0  0  0  0
   -6.1010   -4.2500   -0.5490 H   0  0  0  0  0  0  0  0  0  0  0  0
   -4.9040   -4.1560    0.7800 H   0  0  0  0  0  0  0  0  0  0  0  0
   -6.6530   -3.9210    1.1320 H   0  0  0  0  0  0  0  0  0  0  0  0
   -2.8370   -0.0090    0.2810 O   0  0  0  0  0  0  0  0  0  0  0  0
   -1.6210    0.4450    0.1970 O   0  0  0  0  0  0  0  0  0  0  0  0
   10.0370   -2.6440    0.0860 H   0  0  0  0  0  0  0  0  0  0  0  0
    9.0250   -3.1910    1.4250 H   0  0  0  0  0  0  0  0  0  0  0  0
    9.2290   -4.2100   -0.0010 H   0  0  0  0  0  0  0  0  0  0  0  0
    7.9800   -2.5600   -1.4270 H   0  0  0  0  0  0  0  0  0  0  0  0
    6.9710   -3.0940   -0.0900 H   0  0  0  0  0  0  0  0  0  0  0  0
    7.6800   -1.0320    1.2580 H   0  0  0  0  0  0  0  0  0  0  0  0
    8.6470   -0.4790   -0.1000 H   0  0  0  0  0  0  0  0  0  0  0  0
    6.5420   -0.4780   -1.5940 H   0  0  0  0  0  0  0  0  0  0  0  0
    5.5880    0.1650    1.2920 H   0  0  0  0  0  0  0  0  0  0  0  0
    4.4010    0.7060   -1.5540 H   0  0  0  0  0  0  0  0  0  0  0  0
    3.4780    1.4080    1.3290 H   0  0  0  0  0  0  0  0  0  0  0  0
    2.4250    3.1160   -0.3630 H   0  0  0  0  0  0  0  0  0  0  0  0
    2.2540    1.7970   -1.5110 H   0  0  0  0  0  0  0  0  0  0  0  0
    0.9080    0.4770    0.2470 H   0  0  0  0  0  0  0  0  0  0  0  0
    1.0050    1.8580    1.3310 H   0  0  0  0  0  0  0  0  0  0  0  0
   -0.0950    3.3330   -0.4560 H   0  0  0  0  0  0  0  0  0  0  0  0
   -0.2330    1.9260   -1.5180 H   0  0  0  0  0  0  0  0  0  0  0  0
   -2.6660    3.5850   -0.6390 H   0  0  0  0  0  0  0  0  0  0  0  0
   -4.4410    2.1430   -1.7230 H   0  0  0  0  0  0  0  0  0  0  0  0
   -5.3870    0.1000    0.3090 H   0  0  0  0  0  0  0  0  0  0  0  0
   -5.6810   -0.0170   -1.4270 H   0  0  0  0  0  0  0  0  0  0  0  0
  1  2  1  0
  1 33  1  0
  1 31  1  0
  1 32  1  0
  2 34  1  0
  2 35  1  0
  2  3  1  0
  3  4  1  0
  3 37  1  0
  3 36  1  0
  4 38  1  0
  4  5  2  0
  5  6  1  0
  5 39  1  0
  6 40  1  0
  6  7  2  0
  7  8  1  0
  7 41  1  0
  8 43  1  0
  8 42  1  0
  8  9  1  0
  9 10  1  0
  9 44  1  0
  9 45  1  0
 10 47  1  0
 10 46  1  0
 10 11  1  0
 11 17  1  0
 11 30  1  0
 11 12  1  1
 12 13  1  0
 13 14  1  0
 13 15  1  0
 13 16  1  0
 17 18  2  0
 17 48  1  0
 18 49  1  0
 18 19  1  0
 19 20  1  6
 19 21  1  0
 19 29  1  0
 21 51  1  0
 21 22  1  0
 21 50  1  0
 22 23  2  0
 22 24  1  0
 24 25  1  0
 25 26  1  0
 25 27  1  0
 25 28  1  0
 29 30  1  0
M  END
>  <id>  (618) 
722

>  <scaffolds>  (618) 
['C1=CCOOC1']

>  <name>  (618) 
1,2-Dioxin-3-acetic acid, 6-(4,6-decadienyl)-3,6-dihydro-6-methoxy-, methyl ester, [3[alpha],6[alpha],6(4E,6E)]-(+)- (9CI)

>  <formula>  (618) 
C18H28O5

>  <SMILES>  (618) 
CCC/C=C/C=C/CCC[C@@]1(O[CH3])C=C[C@H](CC(=O)O[CH3])OO1

>  <ChEMBL_id>  (618) 


>  <ZINC_id>  (618) 


>  <PubChem_id>  (618) 


>  <DrugBank_id>  (618) 


>  <CAS_no>  (618) 
154702-56-4

>  <references>  (618) 
[{'journal': {'name': 'Journal of Natural Products', 'id': 5}, 'title': 'Four new C16 1,2-dioxene-polyketides from the sponge Plakortis aff. simplex', 'year': 1993, 'start_page': 2178, 'volume': 56, 'issue': 12, 'doi': '10.1021/np50102a023', 'isbn': '', 'despositor': {'code': 'GU2', 'first_name': 'Gugu', 'last_name': 'Mahlangu', 'id': 24}, 'refauthors_set': [{'author': {'first_name': 'Amira', 'initials': 'A', 'last_name': 'Rudi', 'id': 534}, 'first_author': True, 'id': 1442}, {'author': {'first_name': 'Ravit', 'initials': 'R', 'last_name': 'Talpir', 'id': 846}, 'first_author': None, 'id': 1443}, {'author': {'first_name': 'Yoel', 'initials': 'Y', 'last_name': 'Kashman', 'id': 536}, 'first_author': None, 'id': 1444}, {'author': {'first_name': 'Yehuda', 'initials': 'Y', 'last_name': 'Benayahu', 'id': 535}, 'first_author': None, 'id': 1445}, {'author': {'first_name': 'Michael', 'initials': 'M', 'last_name': 'Schleyer', 'id': 452}, 'first_author': None, 'id': 1446}], 'id': 411}, {'journal': {'name': 'Studies in Natural Products Chemistry', 'id': 44}, 'title': 'Bioactive Natural Products from Southern African Marine Invertebrates', 'year': 2005, 'start_page': 61, 'volume': 32, 'issue': None, 'doi': '', 'isbn': '', 'despositor': {'code': 'GU2', 'first_name': 'Gugu', 'last_name': 'Mahlangu', 'id': 24}, 'refauthors_set': [{'author': {'first_name': 'Michael', 'initials': 'MT', 'last_name': 'Davies-Coleman', 'id': 449}, 'first_author': True, 'id': 1447}], 'id': 412}]

>  <classifications>  (618) 
[{'classification': 'Polyketide', 'id': 810}, {'classification': 'Cyclic peroxide', 'id': 865}, {'classification': 'Carboxylic acids and derivatives (Classyfire)', 'id': 950}]

>  <molecular_mass>  (618) 
324.41

$$$$
SANC00723_minRM1.pdb
     RDKit          3D

 53 54  0  0  1  0  0  0  0  0999 V2000
    4.6480   -4.2590    0.1810 C   0  0  0  0  0  0  0  0  0  0  0  0
    4.8710   -2.8570    0.7230 C   0  0  0  0  0  0  0  0  0  0  0  0
    4.9050   -1.8420   -0.4150 C   0  0  0  0  0  0  0  0  0  0  0  0
    5.1900   -0.4330    0.1150 C   0  0  1  0  0  0  0  0  0  0  0  0
    5.3000    0.5370   -1.0230 C   0  0  0  0  0  0  0  0  0  0  0  0
    4.3500    1.4480   -1.2160 C   0  0  0  0  0  0  0  0  0  0  0  0
    3.1690    1.5060   -0.2910 C   0  0  1  0  0  0  0  0  0  0  0  0
    1.8510    1.6140   -1.0690 C   0  0  0  0  0  0  0  0  0  0  0  0
    0.6760    1.8430   -0.1210 C   0  0  0  0  0  0  0  0  0  0  0  0
   -0.6080    2.0330   -0.9240 C   0  0  0  0  0  0  0  0  0  0  0  0
   -1.8350    2.2330   -0.0170 C   0  0  1  0  0  0  0  0  0  0  0  0
   -1.5720    3.3280    0.8040 O   0  0  0  0  0  0  0  0  0  0  0  0
   -2.6430    3.7770    1.5960 C   0  0  0  0  0  0  0  0  0  0  0  0
   -3.0720    3.0070    2.2560 H   0  0  0  0  0  0  0  0  0  0  0  0
   -2.1940    4.5640    2.2200 H   0  0  0  0  0  0  0  0  0  0  0  0
   -3.4580    4.2200    1.0000 H   0  0  0  0  0  0  0  0  0  0  0  0
   -3.0890    2.3980   -0.8410 C   0  0  0  0  0  0  0  0  0  0  0  0
   -4.0130    1.4430   -0.8500 C   0  0  0  0  0  0  0  0  0  0  0  0
   -3.8170    0.2120   -0.0150 C   0  0  1  0  0  0  0  0  0  0  0  0
   -4.1250   -1.0550   -0.8200 C   0  0  0  0  0  0  0  0  0  0  0  0
   -4.1090   -2.2540    0.0840 C   0  0  0  0  0  0  0  0  0  0  0  0
   -4.4610   -2.3100    1.2480 O   0  0  0  0  0  0  0  0  0  0  0  0
   -3.6750   -3.3680   -0.5620 O   0  0  0  0  0  0  0  0  0  0  0  0
   -3.5950   -4.5590    0.1860 C   0  0  0  0  0  0  0  0  0  0  0  0
   -3.2500   -5.3070   -0.5440 H   0  0  0  0  0  0  0  0  0  0  0  0
   -2.8700   -4.4870    1.0160 H   0  0  0  0  0  0  0  0  0  0  0  0
   -4.5700   -4.8700    0.5970 H   0  0  0  0  0  0  0  0  0  0  0  0
   -2.4330    0.0830    0.3230 O   0  0  0  0  0  0  0  0  0  0  0  0
   -1.9830    1.1500    0.9100 O   0  0  0  0  0  0  0  0  0  0  0  0
    3.0660    0.2790    0.4350 O   0  0  0  0  0  0  0  0  0  0  0  0
    4.1880   -0.0100    1.0300 O   0  0  0  0  0  0  0  0  0  0  0  0
    4.5880   -5.0040    0.9880 H   0  0  0  0  0  0  0  0  0  0  0  0
    3.7140   -4.3410   -0.3930 H   0  0  0  0  0  0  0  0  0  0  0  0
    5.4610   -4.5820   -0.4860 H   0  0  0  0  0  0  0  0  0  0  0  0
    4.0740   -2.5950    1.4510 H   0  0  0  0  0  0  0  0  0  0  0  0
    5.8120   -2.8200    1.3100 H   0  0  0  0  0  0  0  0  0  0  0  0
    5.6780   -2.1170   -1.1620 H   0  0  0  0  0  0  0  0  0  0  0  0
    3.9470   -1.8530   -0.9740 H   0  0  0  0  0  0  0  0  0  0  0  0
    6.1060   -0.4060    0.7580 H   0  0  0  0  0  0  0  0  0  0  0  0
    6.1800    0.4430   -1.6620 H   0  0  0  0  0  0  0  0  0  0  0  0
    4.3900    2.1870   -2.0180 H   0  0  0  0  0  0  0  0  0  0  0  0
    3.3000    2.3690    0.4160 H   0  0  0  0  0  0  0  0  0  0  0  0
    1.9320    2.4470   -1.7990 H   0  0  0  0  0  0  0  0  0  0  0  0
    1.6900    0.7050   -1.6850 H   0  0  0  0  0  0  0  0  0  0  0  0
    0.5720    0.9930    0.5860 H   0  0  0  0  0  0  0  0  0  0  0  0
    0.8650    2.7270    0.5260 H   0  0  0  0  0  0  0  0  0  0  0  0
   -0.5210    2.9020   -1.6090 H   0  0  0  0  0  0  0  0  0  0  0  0
   -0.7940    1.1550   -1.5780 H   0  0  0  0  0  0  0  0  0  0  0  0
   -3.1680    3.3210   -1.4190 H   0  0  0  0  0  0  0  0  0  0  0  0
   -4.9390    1.5160   -1.4250 H   0  0  0  0  0  0  0  0  0  0  0  0
   -4.4500    0.2780    0.9120 H   0  0  0  0  0  0  0  0  0  0  0  0
   -5.1300   -0.9850   -1.2870 H   0  0  0  0  0  0  0  0  0  0  0  0
   -3.4160   -1.1690   -1.6690 H   0  0  0  0  0  0  0  0  0  0  0  0
  1 34  1  0
  1 33  1  0
  1  2  1  0
  1 32  1  0
  2  3  1  0
  2 36  1  0
  2 35  1  0
  3 37  1  0
  3 38  1  0
  3  4  1  0
  4  5  1  0
  4 39  1  1
  4 31  1  0
  5 40  1  0
  5  6  2  0
  6 41  1  0
  6  7  1  0
  7  8  1  0
  7 42  1  1
  7 30  1  0
  8 43  1  0
  8 44  1  0
  8  9  1  0
  9 10  1  0
  9 46  1  0
  9 45  1  0
 10 47  1  0
 10 48  1  0
 10 11  1  0
 11 17  1  0
 11 12  1  1
 11 29  1  0
 12 13  1  0
 13 16  1  0
 13 15  1  0
 13 14  1  0
 17 49  1  0
 17 18  2  0
 18 50  1  0
 18 19  1  0
 19 20  1  0
 19 28  1  0
 19 51  1  1
 20 53  1  0
 20 52  1  0
 20 21  1  0
 21 23  1  0
 21 22  2  0
 23 24  1  0
 24 25  1  0
 24 27  1  0
 24 26  1  0
 28 29  1  0
 30 31  1  0
M  END
>  <id>  (619) 
723

>  <scaffolds>  (619) 
['C1=CCOOC1', 'C1=CC(CCCC2C=CCOO2)OOC1']

>  <name>  (619) 
1,2-Dioxin-3-acetic acid, 6-[3-(3,6-dihydro-6-propyl-1,2-dioxin-3-yl)propyl]-3,6-dihydro-6-methoxy-, methyl ester

>  <formula>  (619) 
C18H28O7

>  <SMILES>  (619) 
CCCC2C=CC(CCCC1(O[CH3])C=CC(CC(=O)O[CH3])OO1)OO2

>  <ChEMBL_id>  (619) 


>  <ZINC_id>  (619) 


>  <PubChem_id>  (619) 


>  <DrugBank_id>  (619) 


>  <CAS_no>  (619) 
154702-58-6

>  <references>  (619) 
[{'journal': {'name': 'Journal of Natural Products', 'id': 5}, 'title': 'Four new C16 1,2-dioxene-polyketides from the sponge Plakortis aff. simplex', 'year': 1993, 'start_page': 2178, 'volume': 56, 'issue': 12, 'doi': '10.1021/np50102a023', 'isbn': '', 'despositor': {'code': 'GU2', 'first_name': 'Gugu', 'last_name': 'Mahlangu', 'id': 24}, 'refauthors_set': [{'author': {'first_name': 'Amira', 'initials': 'A', 'last_name': 'Rudi', 'id': 534}, 'first_author': True, 'id': 1442}, {'author': {'first_name': 'Ravit', 'initials': 'R', 'last_name': 'Talpir', 'id': 846}, 'first_author': None, 'id': 1443}, {'author': {'first_name': 'Yoel', 'initials': 'Y', 'last_name': 'Kashman', 'id': 536}, 'first_author': None, 'id': 1444}, {'author': {'first_name': 'Yehuda', 'initials': 'Y', 'last_name': 'Benayahu', 'id': 535}, 'first_author': None, 'id': 1445}, {'author': {'first_name': 'Michael', 'initials': 'M', 'last_name': 'Schleyer', 'id': 452}, 'first_author': None, 'id': 1446}], 'id': 411}, {'journal': {'name': 'Studies in Natural Products Chemistry', 'id': 44}, 'title': 'Bioactive Natural Products from Southern African Marine Invertebrates', 'year': 2005, 'start_page': 61, 'volume': 32, 'issue': None, 'doi': '', 'isbn': '', 'despositor': {'code': 'GU2', 'first_name': 'Gugu', 'last_name': 'Mahlangu', 'id': 24}, 'refauthors_set': [{'author': {'first_name': 'Michael', 'initials': 'MT', 'last_name': 'Davies-Coleman', 'id': 449}, 'first_author': True, 'id': 1447}], 'id': 412}]

>  <classifications>  (619) 
[{'classification': 'Polyketide', 'id': 810}, {'classification': 'Cyclic peroxide', 'id': 865}, {'classification': 'Carboxylic acids and derivatives (Classyfire)', 'id': 950}]

>  <molecular_mass>  (619) 
356.41

$$$$
SANC00724_minRM1.pdb
     RDKit          3D

 55 55  0  0  0  0  0  0  0  0999 V2000
    0.1140    2.4480    0.8840 C   0  0  0  0  0  0  0  0  0  0  0  0
   -0.4860    1.3150    1.6360 C   0  0  0  0  0  0  0  0  0  0  0  0
   -1.8020    1.1140    1.7300 C   0  0  0  0  0  0  0  0  0  0  0  0
   -2.8420    2.0010    1.1340 C   0  0  0  0  0  0  0  0  0  0  0  0
   -3.7130    1.1710    0.2480 C   0  0  0  0  0  0  0  0  0  0  0  0
   -4.8280    0.5870    0.6900 C   0  0  0  0  0  0  0  0  0  0  0  0
   -5.6570   -0.2520   -0.1970 C   0  0  0  0  0  0  0  0  0  0  0  0
   -6.7950   -0.5650    0.1040 O   0  0  0  0  0  0  0  0  0  0  0  0
   -5.0320   -0.6960   -1.4680 C   0  0  0  0  0  0  0  0  0  0  0  0
   -5.7190   -1.7890   -2.1960 C   0  0  0  0  0  0  0  0  0  0  0  0
   -3.9170   -0.1130   -1.9100 C   0  0  0  0  0  0  0  0  0  0  0  0
   -3.2820    0.9910   -1.1600 C   0  0  0  0  0  0  0  0  0  0  0  0
   -2.4570    1.7150   -1.6870 O   0  0  0  0  0  0  0  0  0  0  0  0
    0.4770    0.3840    2.3040 C   0  0  0  0  0  0  0  0  0  0  0  0
    1.1330   -0.5210    1.2620 C   0  0  0  0  0  0  0  0  0  0  0  0
    2.0980   -1.4960    1.9380 C   0  0  0  0  0  0  0  0  0  0  0  0
    2.7610   -2.3460    0.9050 C   0  0  0  0  0  0  0  0  0  0  0  0
    2.1830   -3.7130    0.7640 C   0  0  0  0  0  0  0  0  0  0  0  0
    3.7770   -1.9610    0.1240 C   0  0  0  0  0  0  0  0  0  0  0  0
    4.4350   -0.6460    0.1480 C   0  0  0  0  0  0  0  0  0  0  0  0
    4.2050    0.2080    0.9870 O   0  0  0  0  0  0  0  0  0  0  0  0
    5.4630   -0.4370   -0.9380 C   0  0  0  0  0  0  0  0  0  0  0  0
    5.8890    1.0250   -1.0900 C   0  0  0  0  0  0  0  0  0  0  0  0
    7.0880    1.1120   -2.0300 C   0  0  0  0  0  0  0  0  0  0  0  0
    4.7360    1.8530   -1.6440 C   0  0  0  0  0  0  0  0  0  0  0  0
   -0.1650    3.4180    1.3230 H   0  0  0  0  0  0  0  0  0  0  0  0
    1.2140    2.4300    0.8690 H   0  0  0  0  0  0  0  0  0  0  0  0
   -0.2080    2.4590   -0.1690 H   0  0  0  0  0  0  0  0  0  0  0  0
   -2.2050    0.2610    2.2880 H   0  0  0  0  0  0  0  0  0  0  0  0
   -3.4330    2.4710    1.9520 H   0  0  0  0  0  0  0  0  0  0  0  0
   -2.4310    2.8680    0.5760 H   0  0  0  0  0  0  0  0  0  0  0  0
   -5.1870    0.7070    1.7180 H   0  0  0  0  0  0  0  0  0  0  0  0
   -6.7190   -1.4680   -2.5350 H   0  0  0  0  0  0  0  0  0  0  0  0
   -5.1700   -2.1380   -3.0820 H   0  0  0  0  0  0  0  0  0  0  0  0
   -5.8760   -2.6660   -1.5490 H   0  0  0  0  0  0  0  0  0  0  0  0
   -3.4290   -0.4060   -2.8470 H   0  0  0  0  0  0  0  0  0  0  0  0
    1.2440    0.9650    2.8620 H   0  0  0  0  0  0  0  0  0  0  0  0
   -0.0200   -0.2250    3.0890 H   0  0  0  0  0  0  0  0  0  0  0  0
    0.3570   -1.0800    0.6950 H   0  0  0  0  0  0  0  0  0  0  0  0
    1.6630    0.0830    0.4960 H   0  0  0  0  0  0  0  0  0  0  0  0
    2.8480   -0.9600    2.5600 H   0  0  0  0  0  0  0  0  0  0  0  0
    1.5520   -2.1230    2.6780 H   0  0  0  0  0  0  0  0  0  0  0  0
    1.1150   -3.6620    0.4990 H   0  0  0  0  0  0  0  0  0  0  0  0
    2.6670   -4.3320   -0.0090 H   0  0  0  0  0  0  0  0  0  0  0  0
    2.2550   -4.2800    1.7060 H   0  0  0  0  0  0  0  0  0  0  0  0
    4.1890   -2.6660   -0.6080 H   0  0  0  0  0  0  0  0  0  0  0  0
    6.3390   -1.0800   -0.7020 H   0  0  0  0  0  0  0  0  0  0  0  0
    5.0790   -0.8250   -1.9070 H   0  0  0  0  0  0  0  0  0  0  0  0
    6.1860    1.4300   -0.0880 H   0  0  0  0  0  0  0  0  0  0  0  0
    6.8690    0.7090   -3.0300 H   0  0  0  0  0  0  0  0  0  0  0  0
    7.4190    2.1510   -2.1750 H   0  0  0  0  0  0  0  0  0  0  0  0
    7.9580    0.5590   -1.6470 H   0  0  0  0  0  0  0  0  0  0  0  0
    3.8530    1.8340   -0.9880 H   0  0  0  0  0  0  0  0  0  0  0  0
    5.0130    2.9110   -1.7580 H   0  0  0  0  0  0  0  0  0  0  0  0
    4.4050    1.5060   -2.6340 H   0  0  0  0  0  0  0  0  0  0  0  0
  1 28  1  0
  1 27  1  0
  1 26  1  0
  1  2  1  0
  2  3  2  0
  2 14  1  0
  3  4  1  0
  3 29  1  0
  4  5  1  0
  4 31  1  0
  4 30  1  0
  5 12  1  0
  5  6  2  0
  6  7  1  0
  6 32  1  0
  7  9  1  0
  7  8  2  0
  9 10  1  0
  9 11  2  0
 10 34  1  0
 10 33  1  0
 10 35  1  0
 11 36  1  0
 11 12  1  0
 12 13  2  0
 14 15  1  0
 14 37  1  0
 14 38  1  0
 15 40  1  0
 15 39  1  0
 15 16  1  0
 16 17  1  0
 16 41  1  0
 16 42  1  0
 17 19  2  0
 17 18  1  0
 18 44  1  0
 18 43  1  0
 18 45  1  0
 19 46  1  0
 19 20  1  0
 20 22  1  0
 20 21  2  0
 22 48  1  0
 22 23  1  0
 22 47  1  0
 23 24  1  0
 23 25  1  0
 23 49  1  0
 24 50  1  0
 24 51  1  0
 24 52  1  0
 25 55  1  0
 25 54  1  0
 25 53  1  0
M  END
>  <id>  (620) 
724

>  <scaffolds>  (620) 
[]

>  <name>  (620) 
2,5-Cyclohexadiene-1,4-dione, 2-methyl-5-[(2E,7Z)-3,7,11-trimethyl-9-oxo-2,7-dodecadien-1-yl]-

>  <formula>  (620) 
C22H30O3

>  <SMILES>  (620) 
C/C(=C\Cc1cc(=O)c(C)cc1=O)CCC/C(C)=C\C(=O)CC(C)C

>  <ChEMBL_id>  (620) 


>  <ZINC_id>  (620) 


>  <PubChem_id>  (620) 


>  <DrugBank_id>  (620) 


>  <CAS_no>  (620) 
369368-13-8

>  <references>  (620) 
[{'journal': {'name': 'Journal of Natural Products', 'id': 5}, 'title': 'Sequestered Chemistry of the Arminacean Nudibranch Leminda millecra in Algoa Bay, South Africa', 'year': 2001, 'start_page': 1183, 'volume': 64, 'issue': 9, 'doi': '10.1021/np010085x', 'isbn': '', 'despositor': {'code': 'TMM', 'first_name': 'Thommas', 'last_name': 'Musyoka', 'id': 22}, 'refauthors_set': [{'author': {'first_name': 'Kerry', 'initials': 'KL', 'last_name': 'McPhail', 'id': 483}, 'first_author': True, 'id': 639}, {'author': {'first_name': 'Michael', 'initials': 'MT', 'last_name': 'Davies-Coleman', 'id': 449}, 'first_author': False, 'id': 701}, {'author': {'first_name': '', 'initials': 'JA', 'last_name': 'Starmer', 'id': 530}, 'first_author': False, 'id': 702}], 'id': 246}]

>  <classifications>  (620) 
[{'classification': 'Hydroquinone', 'id': 784}, {'classification': 'Triprenyltoluquinone', 'id': 861}, {'classification': 'Phenol lipids (Classyfire)', 'id': 951}]

>  <molecular_mass>  (620) 
342.47

$$$$
SANC00725_minRM1.pdb
     RDKit          3D

 57 57  0  0  0  0  0  0  0  0999 V2000
   -0.0390    1.9520    1.7340 C   0  0  0  0  0  0  0  0  0  0  0  0
    0.4740    2.1080    0.3470 C   0  0  0  0  0  0  0  0  0  0  0  0
    1.7720    2.0870    0.0360 C   0  0  0  0  0  0  0  0  0  0  0  0
    2.8830    1.9150    1.0150 C   0  0  0  0  0  0  0  0  0  0  0  0
    3.6470    0.6810    0.6570 C   0  0  0  0  0  0  0  0  0  0  0  0
    3.2370   -0.5390    1.1800 C   0  0  0  0  0  0  0  0  0  0  0  0
    3.9480   -1.6990    0.8670 C   0  0  0  0  0  0  0  0  0  0  0  0
    3.5150   -2.8270    1.4920 O   0  0  0  0  0  0  0  0  0  0  0  0
    5.0660   -1.6700    0.0260 C   0  0  0  0  0  0  0  0  0  0  0  0
    5.8170   -2.9120   -0.2890 C   0  0  0  0  0  0  0  0  0  0  0  0
    5.4570   -0.4560   -0.5200 C   0  0  0  0  0  0  0  0  0  0  0  0
    4.7470    0.7060   -0.2050 C   0  0  0  0  0  0  0  0  0  0  0  0
    5.2520    1.8440   -0.7510 O   0  0  0  0  0  0  0  0  0  0  0  0
   -0.5610    2.2860   -0.7200 C   0  0  0  0  0  0  0  0  0  0  0  0
   -1.1910    0.9300   -1.0420 C   0  0  0  0  0  0  0  0  0  0  0  0
   -2.1950    1.0660   -2.1880 C   0  0  0  0  0  0  0  0  0  0  0  0
   -2.8490   -0.2530   -2.4370 C   0  0  0  0  0  0  0  0  0  0  0  0
   -2.2810   -1.0230   -3.5810 C   0  0  0  0  0  0  0  0  0  0  0  0
   -3.8520   -0.7650   -1.7140 C   0  0  0  0  0  0  0  0  0  0  0  0
   -4.4950   -0.1270   -0.5560 C   0  0  0  0  0  0  0  0  0  0  0  0
   -4.2500    1.0100   -0.1900 O   0  0  0  0  0  0  0  0  0  0  0  0
   -5.5270   -0.9830    0.1420 C   0  0  0  0  0  0  0  0  0  0  0  0
   -5.9380   -0.4300    1.5100 C   0  0  0  0  0  0  0  0  0  0  0  0
   -7.1420   -1.2050    2.0360 C   0  0  0  0  0  0  0  0  0  0  0  0
   -4.7770   -0.5480    2.4910 C   0  0  0  0  0  0  0  0  0  0  0  0
    0.2970    2.7720    2.3880 H   0  0  0  0  0  0  0  0  0  0  0  0
   -1.1390    1.9460    1.7960 H   0  0  0  0  0  0  0  0  0  0  0  0
    0.2970    1.0080    2.1910 H   0  0  0  0  0  0  0  0  0  0  0  0
    2.0950    2.1970   -1.0060 H   0  0  0  0  0  0  0  0  0  0  0  0
    3.5290    2.8220    1.0230 H   0  0  0  0  0  0  0  0  0  0  0  0
    2.5420    1.8590    2.0700 H   0  0  0  0  0  0  0  0  0  0  0  0
    2.3650   -0.5970    1.8410 H   0  0  0  0  0  0  0  0  0  0  0  0
    3.6590   -3.5750    0.9010 H   0  0  0  0  0  0  0  0  0  0  0  0
    5.2260   -3.6010   -0.9100 H   0  0  0  0  0  0  0  0  0  0  0  0
    6.7470   -2.7230   -0.8470 H   0  0  0  0  0  0  0  0  0  0  0  0
    6.1180   -3.4550    0.6210 H   0  0  0  0  0  0  0  0  0  0  0  0
    6.3230   -0.3940   -1.1880 H   0  0  0  0  0  0  0  0  0  0  0  0
    4.5280    2.4700   -0.8840 H   0  0  0  0  0  0  0  0  0  0  0  0
   -1.3360    3.0140   -0.3960 H   0  0  0  0  0  0  0  0  0  0  0  0
   -0.1300    2.7440   -1.6370 H   0  0  0  0  0  0  0  0  0  0  0  0
   -0.4020    0.1930   -1.3080 H   0  0  0  0  0  0  0  0  0  0  0  0
   -1.6850    0.5060   -0.1420 H   0  0  0  0  0  0  0  0  0  0  0  0
   -2.9470    1.8580   -1.9790 H   0  0  0  0  0  0  0  0  0  0  0  0
   -1.6790    1.4330   -3.1050 H   0  0  0  0  0  0  0  0  0  0  0  0
   -1.2000   -1.1950   -3.4400 H   0  0  0  0  0  0  0  0  0  0  0  0
   -2.7390   -2.0130   -3.7340 H   0  0  0  0  0  0  0  0  0  0  0  0
   -2.3980   -0.4760   -4.5300 H   0  0  0  0  0  0  0  0  0  0  0  0
   -4.2620   -1.7460   -1.9810 H   0  0  0  0  0  0  0  0  0  0  0  0
   -6.4070   -1.0650   -0.5300 H   0  0  0  0  0  0  0  0  0  0  0  0
   -5.1510   -2.0240    0.2490 H   0  0  0  0  0  0  0  0  0  0  0  0
   -6.2220    0.6500    1.4030 H   0  0  0  0  0  0  0  0  0  0  0  0
   -6.9320   -2.2780    2.1640 H   0  0  0  0  0  0  0  0  0  0  0  0
   -7.4730   -0.8330    3.0190 H   0  0  0  0  0  0  0  0  0  0  0  0
   -8.0110   -1.1300    1.3660 H   0  0  0  0  0  0  0  0  0  0  0  0
   -4.4640   -1.5910    2.6500 H   0  0  0  0  0  0  0  0  0  0  0  0
   -3.8880    0.0040    2.1550 H   0  0  0  0  0  0  0  0  0  0  0  0
   -5.0390   -0.1470    3.4820 H   0  0  0  0  0  0  0  0  0  0  0  0
  1  2  1  0
  1 27  1  0
  1 28  1  0
  1 26  1  0
  2 14  1  0
  2  3  2  0
  3 29  1  0
  3  4  1  0
  4  5  1  0
  4 30  1  0
  4 31  1  0
  5 12  2  0
  5  6  1  0
  6  7  2  0
  6 32  1  0
  7  9  1  0
  7  8  1  0
  8 33  1  0
  9 11  2  0
  9 10  1  0
 10 34  1  0
 10 35  1  0
 10 36  1  0
 11 37  1  0
 11 12  1  0
 12 13  1  0
 13 38  1  0
 14 40  1  0
 14 15  1  0
 14 39  1  0
 15 16  1  0
 15 41  1  0
 15 42  1  0
 16 44  1  0
 16 17  1  0
 16 43  1  0
 17 18  1  0
 17 19  2  0
 18 47  1  0
 18 46  1  0
 18 45  1  0
 19 48  1  0
 19 20  1  0
 20 21  2  0
 20 22  1  0
 22 49  1  0
 22 50  1  0
 22 23  1  0
 23 51  1  0
 23 24  1  0
 23 25  1  0
 24 54  1  0
 24 52  1  0
 24 53  1  0
 25 56  1  0
 25 55  1  0
 25 57  1  0
M  END
>  <id>  (621) 
725

>  <scaffolds>  (621) 
['c1ccccc1']

>  <name>  (621) 
5,10-Dodecadien-4-one, 12-(2,5-dihydroxy-4-methylphenyl)-2,6,10-trimethyl-, (5Z,10E)-

>  <formula>  (621) 
C22H32O3

>  <SMILES>  (621) 
C/C(=C\Cc1cc(O)c(C)cc1O)CCC/C(C)=C\C(=O)CC(C)C

>  <ChEMBL_id>  (621) 


>  <ZINC_id>  (621) 


>  <PubChem_id>  (621) 


>  <DrugBank_id>  (621) 


>  <CAS_no>  (621) 
369368-17-2

>  <references>  (621) 
[{'journal': {'name': 'Journal of Natural Products', 'id': 5}, 'title': 'Sequestered Chemistry of the Arminacean Nudibranch Leminda millecra in Algoa Bay, South Africa', 'year': 2001, 'start_page': 1183, 'volume': 64, 'issue': 9, 'doi': '10.1021/np010085x', 'isbn': '', 'despositor': {'code': 'TMM', 'first_name': 'Thommas', 'last_name': 'Musyoka', 'id': 22}, 'refauthors_set': [{'author': {'first_name': 'Kerry', 'initials': 'KL', 'last_name': 'McPhail', 'id': 483}, 'first_author': True, 'id': 639}, {'author': {'first_name': 'Michael', 'initials': 'MT', 'last_name': 'Davies-Coleman', 'id': 449}, 'first_author': False, 'id': 701}, {'author': {'first_name': '', 'initials': 'JA', 'last_name': 'Starmer', 'id': 530}, 'first_author': False, 'id': 702}], 'id': 246}]

>  <classifications>  (621) 
[{'classification': 'Hydroquinone', 'id': 784}, {'classification': 'Phenol lipids (Classyfire)', 'id': 951}]

>  <molecular_mass>  (621) 
344.49

$$$$
SANC00726_minRM1.pdb
     RDKit          3D

 55 56  0  0  1  0  0  0  0  0999 V2000
    2.9160    1.7280    2.0480 C   0  0  0  0  0  0  0  0  0  0  0  0
    2.5550    0.3670    1.5670 C   0  0  0  0  0  0  0  0  0  0  0  0
    1.3180    0.0130    1.2080 C   0  0  0  0  0  0  0  0  0  0  0  0
    0.1300    0.9120    1.2300 C   0  0  0  0  0  0  0  0  0  0  0  0
   -0.3810    1.0930   -0.1970 C   0  0  0  0  0  0  0  0  0  0  0  0
   -1.6290    1.9920   -0.2760 C   0  0  1  0  0  0  0  0  0  0  0  0
   -1.3670    3.4140    0.2280 C   0  0  0  0  0  0  0  0  0  0  0  0
   -2.0780    2.0280   -1.7110 C   0  0  0  0  0  0  0  0  0  0  0  0
   -3.0120    1.1850   -2.1530 C   0  0  0  0  0  0  0  0  0  0  0  0
   -3.6120    0.2540   -1.2160 C   0  0  0  0  0  0  0  0  0  0  0  0
   -4.4210   -0.8020   -1.6170 C   0  0  0  0  0  0  0  0  0  0  0  0
   -4.9750   -1.6330   -0.6440 C   0  0  0  0  0  0  0  0  0  0  0  0
   -5.8090   -2.6050   -1.1070 O   0  0  0  0  0  0  0  0  0  0  0  0
   -4.7470   -1.4260    0.7240 C   0  0  0  0  0  0  0  0  0  0  0  0
   -5.3750   -2.3110    1.7390 C   0  0  0  0  0  0  0  0  0  0  0  0
   -3.9200   -0.3840    1.1200 C   0  0  0  0  0  0  0  0  0  0  0  0
   -3.3600    0.4430    0.1460 C   0  0  0  0  0  0  0  0  0  0  0  0
   -2.6220    1.4940    0.6040 O   0  0  0  0  0  0  0  0  0  0  0  0
    3.6720   -0.6240    1.4740 C   0  0  0  0  0  0  0  0  0  0  0  0
    4.3170   -0.6070    0.1060 C   0  0  0  0  0  0  0  0  0  0  0  0
    3.8950    0.0740   -0.8080 O   0  0  0  0  0  0  0  0  0  0  0  0
    5.4960   -1.5360   -0.0590 C   0  0  0  0  0  0  0  0  0  0  0  0
    6.3980   -1.1310   -1.2290 C   0  0  1  0  0  0  0  0  0  0  0  0
    7.0400    0.2250   -0.9540 C   0  0  0  0  0  0  0  0  0  0  0  0
    7.4800   -2.1870   -1.4300 C   0  0  0  0  0  0  0  0  0  0  0  0
    2.4360    1.9580    3.0140 H   0  0  0  0  0  0  0  0  0  0  0  0
    3.9990    1.8720    2.1990 H   0  0  0  0  0  0  0  0  0  0  0  0
    2.6120    2.5090    1.3320 H   0  0  0  0  0  0  0  0  0  0  0  0
    1.1100   -1.0050    0.8540 H   0  0  0  0  0  0  0  0  0  0  0  0
   -0.6540    0.4620    1.8800 H   0  0  0  0  0  0  0  0  0  0  0  0
    0.3380    1.8930    1.7040 H   0  0  0  0  0  0  0  0  0  0  0  0
    0.4210    1.5200   -0.8370 H   0  0  0  0  0  0  0  0  0  0  0  0
   -0.6100    0.1050   -0.6510 H   0  0  0  0  0  0  0  0  0  0  0  0
   -0.4450    3.8270   -0.2050 H   0  0  0  0  0  0  0  0  0  0  0  0
   -2.1890    4.0950   -0.0370 H   0  0  0  0  0  0  0  0  0  0  0  0
   -1.2660    3.4710    1.3220 H   0  0  0  0  0  0  0  0  0  0  0  0
   -1.5810    2.7530   -2.3580 H   0  0  0  0  0  0  0  0  0  0  0  0
   -3.3540    1.1700   -3.1920 H   0  0  0  0  0  0  0  0  0  0  0  0
   -4.6320   -0.9750   -2.6770 H   0  0  0  0  0  0  0  0  0  0  0  0
   -5.6430   -3.4000   -0.5910 H   0  0  0  0  0  0  0  0  0  0  0  0
   -4.9300   -3.3170    1.7340 H   0  0  0  0  0  0  0  0  0  0  0  0
   -5.2640   -1.9320    2.7630 H   0  0  0  0  0  0  0  0  0  0  0  0
   -6.4600   -2.4230    1.5760 H   0  0  0  0  0  0  0  0  0  0  0  0
   -3.7120   -0.1970    2.1780 H   0  0  0  0  0  0  0  0  0  0  0  0
    4.4380   -0.4390    2.2580 H   0  0  0  0  0  0  0  0  0  0  0  0
    3.3180   -1.6580    1.6870 H   0  0  0  0  0  0  0  0  0  0  0  0
    6.0870   -1.5920    0.8810 H   0  0  0  0  0  0  0  0  0  0  0  0
    5.0990   -2.5650   -0.2020 H   0  0  0  0  0  0  0  0  0  0  0  0
    5.7790   -1.0630   -2.1630 H   0  0  0  0  0  0  0  0  0  0  0  0
    6.2940    1.0240   -0.8320 H   0  0  0  0  0  0  0  0  0  0  0  0
    7.6590    0.2220   -0.0440 H   0  0  0  0  0  0  0  0  0  0  0  0
    7.6970    0.5410   -1.7790 H   0  0  0  0  0  0  0  0  0  0  0  0
    7.0560   -3.1820   -1.6370 H   0  0  0  0  0  0  0  0  0  0  0  0
    8.1350   -1.9410   -2.2800 H   0  0  0  0  0  0  0  0  0  0  0  0
    8.1330   -2.2960   -0.5500 H   0  0  0  0  0  0  0  0  0  0  0  0
  1 28  1  0
  1  2  1  0
  1 27  1  0
  1 26  1  0
  2  3  2  0
  2 19  1  0
  3 29  1  0
  3  4  1  0
  4  5  1  0
  4 31  1  0
  4 30  1  0
  5 32  1  0
  5 33  1  0
  6  5  1  6
  6  8  1  0
  6  7  1  0
  6 18  1  0
  7 34  1  0
  7 35  1  0
  7 36  1  0
  8 37  1  0
  8  9  2  0
  9 38  1  0
  9 10  1  0
 10 11  2  0
 10 17  1  0
 11 39  1  0
 11 12  1  0
 12 13  1  0
 12 14  2  0
 13 40  1  0
 14 16  1  0
 14 15  1  0
 15 43  1  0
 15 41  1  0
 15 42  1  0
 16 17  2  0
 16 44  1  0
 17 18  1  0
 19 20  1  0
 19 46  1  0
 19 45  1  0
 20 21  2  0
 20 22  1  0
 22 23  1  0
 22 48  1  0
 22 47  1  0
 23 49  1  6
 23 25  1  0
 23 24  1  0
 24 52  1  0
 24 50  1  0
 24 51  1  0
 25 54  1  0
 25 53  1  0
 25 55  1  0
M  END
>  <id>  (622) 
726

>  <scaffolds>  (622) 
['c1ccccc1', 'C1=Cc2ccccc2OC1']

>  <name>  (622) 
6-Nonen-4-one, 9-(6-hydroxy-2,7-dimethyl-2H-1-benzopyran-2-yl)-2,6-dimethyl-, (6E)-

>  <formula>  (622) 
C22H30O3

>  <SMILES>  (622) 
C/C(=C\CCC2(C)C=Cc1cc(O)c(C)cc1O2)CC(=O)CC(C)C

>  <ChEMBL_id>  (622) 


>  <ZINC_id>  (622) 


>  <PubChem_id>  (622) 


>  <DrugBank_id>  (622) 


>  <CAS_no>  (622) 
369380-52-9

>  <references>  (622) 
[{'journal': {'name': 'Journal of Natural Products', 'id': 5}, 'title': 'Sequestered Chemistry of the Arminacean Nudibranch Leminda millecra in Algoa Bay, South Africa', 'year': 2001, 'start_page': 1183, 'volume': 64, 'issue': 9, 'doi': '10.1021/np010085x', 'isbn': '', 'despositor': {'code': 'TMM', 'first_name': 'Thommas', 'last_name': 'Musyoka', 'id': 22}, 'refauthors_set': [{'author': {'first_name': 'Kerry', 'initials': 'KL', 'last_name': 'McPhail', 'id': 483}, 'first_author': True, 'id': 639}, {'author': {'first_name': 'Michael', 'initials': 'MT', 'last_name': 'Davies-Coleman', 'id': 449}, 'first_author': False, 'id': 701}, {'author': {'first_name': '', 'initials': 'JA', 'last_name': 'Starmer', 'id': 530}, 'first_author': False, 'id': 702}], 'id': 246}]

>  <classifications>  (622) 
[{'classification': 'Hydroquinone', 'id': 784}, {'classification': 'Benzopyrans (Classyfire)', 'id': 966}]

>  <molecular_mass>  (622) 
342.47

$$$$
SANC00727_minRM1.pdb
     RDKit          3D

 62 62  0  0  0  0  0  0  0  0999 V2000
   -5.7210    3.2800    0.2130 C   0  0  0  0  0  0  0  0  0  0  0  0
   -5.5020    1.8560   -0.1810 C   0  0  0  0  0  0  0  0  0  0  0  0
   -6.1580    1.1850   -0.9540 O   0  0  0  0  0  0  0  0  0  0  0  0
   -4.4180    1.3260    0.4600 O   0  0  0  0  0  0  0  0  0  0  0  0
   -4.1120    0.0130    0.1710 C   0  0  0  0  0  0  0  0  0  0  0  0
   -4.7940   -0.9880    0.8540 C   0  0  0  0  0  0  0  0  0  0  0  0
   -4.4180   -2.3130    0.6680 C   0  0  0  0  0  0  0  0  0  0  0  0
   -5.1140   -3.3990    1.4060 C   0  0  0  0  0  0  0  0  0  0  0  0
   -3.3770   -2.5930   -0.2260 C   0  0  0  0  0  0  0  0  0  0  0  0
   -2.8990   -3.8440   -0.4520 O   0  0  0  0  0  0  0  0  0  0  0  0
   -2.7070   -1.5810   -0.9200 C   0  0  0  0  0  0  0  0  0  0  0  0
   -3.0810   -0.2580   -0.7280 C   0  0  0  0  0  0  0  0  0  0  0  0
   -2.3800    0.8390   -1.4600 C   0  0  0  0  0  0  0  0  0  0  0  0
   -1.3310    1.4150   -0.5700 C   0  0  0  0  0  0  0  0  0  0  0  0
   -0.0430    1.5160   -0.9040 C   0  0  0  0  0  0  0  0  0  0  0  0
    0.5000    1.0540   -2.2100 C   0  0  0  0  0  0  0  0  0  0  0  0
    0.9520    2.1260    0.0310 C   0  0  0  0  0  0  0  0  0  0  0  0
    1.6750    1.0220    0.8020 C   0  0  0  0  0  0  0  0  0  0  0  0
    2.8210    1.6070    1.6280 C   0  0  0  0  0  0  0  0  0  0  0  0
    3.6000    0.5020    2.2610 C   0  0  0  0  0  0  0  0  0  0  0  0
    3.2550    0.2390    3.6870 C   0  0  0  0  0  0  0  0  0  0  0  0
    4.5340   -0.2340    1.6470 C   0  0  0  0  0  0  0  0  0  0  0  0
    4.9650   -0.0900    0.2490 C   0  0  0  0  0  0  0  0  0  0  0  0
    4.4540    0.6910   -0.5380 O   0  0  0  0  0  0  0  0  0  0  0  0
    6.0870   -1.0150   -0.1620 C   0  0  0  0  0  0  0  0  0  0  0  0
    6.5560   -0.7980   -1.6030 C   0  0  0  0  0  0  0  0  0  0  0  0
    7.3300    0.5090   -1.7220 C   0  0  0  0  0  0  0  0  0  0  0  0
    7.4450   -1.9630   -2.0300 C   0  0  0  0  0  0  0  0  0  0  0  0
   -6.4960    3.7490   -0.4130 H   0  0  0  0  0  0  0  0  0  0  0  0
   -6.0490    3.3530    1.2620 H   0  0  0  0  0  0  0  0  0  0  0  0
   -4.8030    3.8800    0.1170 H   0  0  0  0  0  0  0  0  0  0  0  0
   -5.6120   -0.7260    1.5330 H   0  0  0  0  0  0  0  0  0  0  0  0
   -5.6890   -4.0530    0.7330 H   0  0  0  0  0  0  0  0  0  0  0  0
   -4.4100   -4.0330    1.9680 H   0  0  0  0  0  0  0  0  0  0  0  0
   -5.8340   -3.0200    2.1460 H   0  0  0  0  0  0  0  0  0  0  0  0
   -3.6060   -4.4810   -0.3000 H   0  0  0  0  0  0  0  0  0  0  0  0
   -1.8920   -1.8380   -1.6040 H   0  0  0  0  0  0  0  0  0  0  0  0
   -1.9780    0.4710   -2.4290 H   0  0  0  0  0  0  0  0  0  0  0  0
   -3.0930    1.6390   -1.7590 H   0  0  0  0  0  0  0  0  0  0  0  0
   -1.6990    1.7640    0.4010 H   0  0  0  0  0  0  0  0  0  0  0  0
    0.3620    1.8240   -2.9860 H   0  0  0  0  0  0  0  0  0  0  0  0
    1.5780    0.8320   -2.1760 H   0  0  0  0  0  0  0  0  0  0  0  0
    0.0090    0.1380   -2.5740 H   0  0  0  0  0  0  0  0  0  0  0  0
    1.6720    2.7530   -0.5380 H   0  0  0  0  0  0  0  0  0  0  0  0
    0.4700    2.8390    0.7350 H   0  0  0  0  0  0  0  0  0  0  0  0
    0.9610    0.4840    1.4610 H   0  0  0  0  0  0  0  0  0  0  0  0
    2.0520    0.2430    0.1070 H   0  0  0  0  0  0  0  0  0  0  0  0
    3.4800    2.2560    1.0130 H   0  0  0  0  0  0  0  0  0  0  0  0
    2.4190    2.3030    2.3960 H   0  0  0  0  0  0  0  0  0  0  0  0
    2.1800    0.0250    3.8000 H   0  0  0  0  0  0  0  0  0  0  0  0
    3.7920   -0.6130    4.1310 H   0  0  0  0  0  0  0  0  0  0  0  0
    3.4780    1.1130    4.3200 H   0  0  0  0  0  0  0  0  0  0  0  0
    5.0470   -1.0280    2.2050 H   0  0  0  0  0  0  0  0  0  0  0  0
    6.9380   -0.9020    0.5450 H   0  0  0  0  0  0  0  0  0  0  0  0
    5.7360   -2.0610   -0.0200 H   0  0  0  0  0  0  0  0  0  0  0  0
    5.6620   -0.7600   -2.2800 H   0  0  0  0  0  0  0  0  0  0  0  0
    8.2380    0.5190   -1.1000 H   0  0  0  0  0  0  0  0  0  0  0  0
    7.6550    0.6970   -2.7570 H   0  0  0  0  0  0  0  0  0  0  0  0
    6.7310    1.3810   -1.4250 H   0  0  0  0  0  0  0  0  0  0  0  0
    6.9100   -2.9230   -2.0190 H   0  0  0  0  0  0  0  0  0  0  0  0
    7.8240   -1.8310   -3.0530 H   0  0  0  0  0  0  0  0  0  0  0  0
    8.3230   -2.0800   -1.3800 H   0  0  0  0  0  0  0  0  0  0  0  0
  1 29  1  0
  1  2  1  0
  1 31  1  0
  1 30  1  0
  2  3  2  0
  2  4  1  0
  4  5  1  0
  5 12  2  0
  5  6  1  0
  6  7  2  0
  6 32  1  0
  7  9  1  0
  7  8  1  0
  8 33  1  0
  8 34  1  0
  8 35  1  0
  9 11  2  0
  9 10  1  0
 10 36  1  0
 11 37  1  0
 11 12  1  0
 12 13  1  0
 13 38  1  0
 13 39  1  0
 13 14  1  0
 14 15  2  0
 14 40  1  0
 15 16  1  0
 15 17  1  0
 16 41  1  0
 16 43  1  0
 16 42  1  0
 17 44  1  0
 17 45  1  0
 17 18  1  0
 18 47  1  0
 18 46  1  0
 18 19  1  0
 19 48  1  0
 19 20  1  0
 19 49  1  0
 20 22  2  0
 20 21  1  0
 21 50  1  0
 21 51  1  0
 21 52  1  0
 22 23  1  0
 22 53  1  0
 23 24  2  0
 23 25  1  0
 25 26  1  0
 25 55  1  0
 25 54  1  0
 26 56  1  0
 26 28  1  0
 26 27  1  0
 27 58  1  0
 27 59  1  0
 27 57  1  0
 28 61  1  0
 28 60  1  0
 28 62  1  0
M  END
>  <id>  (623) 
727

>  <scaffolds>  (623) 
['c1ccccc1']

>  <name>  (623) 
5,10-Dodecadien-4-one, 12-[2-(acetyloxy)-5-hydroxy-4-methylphenyl]-2,6,10-trimethyl-, (5Z,10E)-

>  <formula>  (623) 
C24H34O4

>  <SMILES>  (623) 
CC(=O)Oc1cc(C)c(O)cc1C/C=C(C)/CCC/C(C)=C\C(=O)CC(C)C

>  <ChEMBL_id>  (623) 


>  <ZINC_id>  (623) 


>  <PubChem_id>  (623) 


>  <DrugBank_id>  (623) 


>  <CAS_no>  (623) 
369368-20-7

>  <references>  (623) 
[{'journal': {'name': 'Journal of Natural Products', 'id': 5}, 'title': 'Sequestered Chemistry of the Arminacean Nudibranch Leminda millecra in Algoa Bay, South Africa', 'year': 2001, 'start_page': 1183, 'volume': 64, 'issue': 9, 'doi': '10.1021/np010085x', 'isbn': '', 'despositor': {'code': 'TMM', 'first_name': 'Thommas', 'last_name': 'Musyoka', 'id': 22}, 'refauthors_set': [{'author': {'first_name': 'Kerry', 'initials': 'KL', 'last_name': 'McPhail', 'id': 483}, 'first_author': True, 'id': 639}, {'author': {'first_name': 'Michael', 'initials': 'MT', 'last_name': 'Davies-Coleman', 'id': 449}, 'first_author': False, 'id': 701}, {'author': {'first_name': '', 'initials': 'JA', 'last_name': 'Starmer', 'id': 530}, 'first_author': False, 'id': 702}], 'id': 246}]

>  <classifications>  (623) 
[{'classification': 'Hydroquinone', 'id': 784}, {'classification': 'Triprenyltoluquinone', 'id': 861}, {'classification': 'Phenol lipids (Classyfire)', 'id': 951}]

>  <molecular_mass>  (623) 
386.52

$$$$
SANC00728_minRM1.pdb
     RDKit          3D

 59 59  0  0  1  0  0  0  0  0999 V2000
   -1.4910    3.3410   -1.0410 C   0  0  0  0  0  0  0  0  0  0  0  0
   -1.0090    2.2610   -0.1400 C   0  0  0  0  0  0  0  0  0  0  0  0
   -1.8010    1.6210    0.7230 C   0  0  0  0  0  0  0  0  0  0  0  0
   -3.2530    1.9040    0.9170 C   0  0  0  0  0  0  0  0  0  0  0  0
   -4.0250    0.6460    0.6780 C   0  0  0  0  0  0  0  0  0  0  0  0
   -4.4290    0.3380   -0.6150 C   0  0  0  0  0  0  0  0  0  0  0  0
   -5.1650   -0.8250   -0.8490 C   0  0  0  0  0  0  0  0  0  0  0  0
   -5.5730   -1.0020   -2.1360 O   0  0  0  0  0  0  0  0  0  0  0  0
   -5.5130   -1.6970    0.1900 C   0  0  0  0  0  0  0  0  0  0  0  0
   -6.3210   -2.9150   -0.0730 C   0  0  0  0  0  0  0  0  0  0  0  0
   -5.0800   -1.4060    1.4760 C   0  0  0  0  0  0  0  0  0  0  0  0
   -4.3370   -0.2450    1.7090 C   0  0  0  0  0  0  0  0  0  0  0  0
   -4.0050   -0.0370    3.0110 O   0  0  0  0  0  0  0  0  0  0  0  0
    0.4410    1.9070   -0.2540 C   0  0  0  0  0  0  0  0  0  0  0  0
    0.6660    1.0630   -1.5130 C   0  0  0  0  0  0  0  0  0  0  0  0
    2.1130    0.7290   -1.6300 C   0  0  0  0  0  0  0  0  0  0  0  0
    2.6350   -0.4800   -1.4080 C   0  0  0  0  0  0  0  0  0  0  0  0
    1.8170   -1.6520   -0.9980 C   0  0  0  0  0  0  0  0  0  0  0  0
    4.1070   -0.7030   -1.5490 C   0  0  0  0  0  0  0  0  0  0  0  0
    4.7990   -0.4630   -0.1910 C   0  0  1  0  0  0  0  0  0  0  0  0
    4.3090   -1.3290    0.7810 O   0  0  0  0  0  0  0  0  0  0  0  0
    6.3240   -0.5960   -0.3520 C   0  0  0  0  0  0  0  0  0  0  0  0
    7.0700   -0.3810    0.9670 C   0  0  1  0  0  0  0  0  0  0  0  0
    8.5460   -0.7200    0.7730 C   0  0  0  0  0  0  0  0  0  0  0  0
    6.9400    1.0600    1.4450 C   0  0  0  0  0  0  0  0  0  0  0  0
   -1.8960    4.1960   -0.4780 H   0  0  0  0  0  0  0  0  0  0  0  0
   -0.7050    3.7540   -1.6900 H   0  0  0  0  0  0  0  0  0  0  0  0
   -2.2880    2.9850   -1.7140 H   0  0  0  0  0  0  0  0  0  0  0  0
   -1.4030    0.8170    1.3550 H   0  0  0  0  0  0  0  0  0  0  0  0
   -3.4250    2.3130    1.9380 H   0  0  0  0  0  0  0  0  0  0  0  0
   -3.6410    2.7130    0.2640 H   0  0  0  0  0  0  0  0  0  0  0  0
   -4.1850    1.0050   -1.4490 H   0  0  0  0  0  0  0  0  0  0  0  0
   -5.5770   -1.9460   -2.3190 H   0  0  0  0  0  0  0  0  0  0  0  0
   -5.7530   -3.6690   -0.6420 H   0  0  0  0  0  0  0  0  0  0  0  0
   -6.6560   -3.4160    0.8470 H   0  0  0  0  0  0  0  0  0  0  0  0
   -7.2360   -2.6880   -0.6440 H   0  0  0  0  0  0  0  0  0  0  0  0
   -5.3220   -2.0690    2.3120 H   0  0  0  0  0  0  0  0  0  0  0  0
   -3.2010    0.4910    3.0420 H   0  0  0  0  0  0  0  0  0  0  0  0
    1.0650    2.8280   -0.2740 H   0  0  0  0  0  0  0  0  0  0  0  0
    0.8050    1.3570    0.6410 H   0  0  0  0  0  0  0  0  0  0  0  0
    0.0110    0.1680   -1.4950 H   0  0  0  0  0  0  0  0  0  0  0  0
    0.3410    1.6140   -2.4230 H   0  0  0  0  0  0  0  0  0  0  0  0
    2.7530    1.5720   -1.9150 H   0  0  0  0  0  0  0  0  0  0  0  0
    1.0910   -1.9350   -1.7770 H   0  0  0  0  0  0  0  0  0  0  0  0
    2.4120   -2.5580   -0.7980 H   0  0  0  0  0  0  0  0  0  0  0  0
    1.2510   -1.4480   -0.0750 H   0  0  0  0  0  0  0  0  0  0  0  0
    4.3240   -1.7200   -1.9380 H   0  0  0  0  0  0  0  0  0  0  0  0
    4.5420   -0.0290   -2.3170 H   0  0  0  0  0  0  0  0  0  0  0  0
    4.5180    0.5490    0.2030 H   0  0  0  0  0  0  0  0  0  0  0  0
    4.5250   -2.2310    0.5230 H   0  0  0  0  0  0  0  0  0  0  0  0
    6.5730   -1.5950   -0.7720 H   0  0  0  0  0  0  0  0  0  0  0  0
    6.6820    0.1240   -1.1170 H   0  0  0  0  0  0  0  0  0  0  0  0
    6.6460   -1.0620    1.7500 H   0  0  0  0  0  0  0  0  0  0  0  0
    9.0260   -0.0840    0.0160 H   0  0  0  0  0  0  0  0  0  0  0  0
    9.1220   -0.5950    1.7020 H   0  0  0  0  0  0  0  0  0  0  0  0
    8.6970   -1.7620    0.4550 H   0  0  0  0  0  0  0  0  0  0  0  0
    5.9110    1.3180    1.7340 H   0  0  0  0  0  0  0  0  0  0  0  0
    7.5590    1.2540    2.3330 H   0  0  0  0  0  0  0  0  0  0  0  0
    7.2500    1.7880    0.6810 H   0  0  0  0  0  0  0  0  0  0  0  0
  1 28  1  0
  1 27  1  0
  1 26  1  0
  1  2  1  0
  2 14  1  0
  2  3  2  0
  3  4  1  0
  3 29  1  0
  4 31  1  0
  4  5  1  0
  4 30  1  0
  5  6  2  0
  5 12  1  0
  6 32  1  0
  6  7  1  0
  7  8  1  0
  7  9  2  0
  8 33  1  0
  9 10  1  0
  9 11  1  0
 10 36  1  0
 10 34  1  0
 10 35  1  0
 11 12  2  0
 11 37  1  0
 12 13  1  0
 13 38  1  0
 14 15  1  0
 14 39  1  0
 14 40  1  0
 15 42  1  0
 15 16  1  0
 15 41  1  0
 16 43  1  0
 16 17  2  0
 17 19  1  0
 17 18  1  0
 18 44  1  0
 18 45  1  0
 18 46  1  0
 19 48  1  0
 19 47  1  0
 19 20  1  0
 20 22  1  0
 20 49  1  1
 20 21  1  0
 21 50  1  0
 22 52  1  0
 22 51  1  0
 22 23  1  0
 23 24  1  0
 23 25  1  0
 23 53  1  1
 24 54  1  0
 24 56  1  0
 24 55  1  0
 25 59  1  0
 25 57  1  0
 25 58  1  0
M  END
>  <id>  (624) 
728

>  <scaffolds>  (624) 
['c1ccccc1']

>  <name>  (624) 
1,4-Benzenediol, 2-[(2E,6E)-9-hydroxy-3,7,11-trimethyl-2,6-dodecadien-1-yl]-5-methyl-

>  <formula>  (624) 
C22H34O3

>  <SMILES>  (624) 
C/C(=C\Cc1cc(O)c(C)cc1O)CC/C=C(C)/CC(O)CC(C)C

>  <ChEMBL_id>  (624) 


>  <ZINC_id>  (624) 


>  <PubChem_id>  (624) 


>  <DrugBank_id>  (624) 


>  <CAS_no>  (624) 
369380-53-0

>  <references>  (624) 
[{'journal': {'name': 'Journal of Natural Products', 'id': 5}, 'title': 'Sequestered Chemistry of the Arminacean Nudibranch Leminda millecra in Algoa Bay, South Africa', 'year': 2001, 'start_page': 1183, 'volume': 64, 'issue': 9, 'doi': '10.1021/np010085x', 'isbn': '', 'despositor': {'code': 'TMM', 'first_name': 'Thommas', 'last_name': 'Musyoka', 'id': 22}, 'refauthors_set': [{'author': {'first_name': 'Kerry', 'initials': 'KL', 'last_name': 'McPhail', 'id': 483}, 'first_author': True, 'id': 639}, {'author': {'first_name': 'Michael', 'initials': 'MT', 'last_name': 'Davies-Coleman', 'id': 449}, 'first_author': False, 'id': 701}, {'author': {'first_name': '', 'initials': 'JA', 'last_name': 'Starmer', 'id': 530}, 'first_author': False, 'id': 702}], 'id': 246}]

>  <classifications>  (624) 
[{'classification': 'Hydroquinone', 'id': 784}, {'classification': 'Triprenyltoluquinone', 'id': 861}, {'classification': 'Phenol lipids (Classyfire)', 'id': 951}]

>  <molecular_mass>  (624) 
346.5

$$$$
SANC00729_minRM1.pdb
     RDKit          3D

 28 27  0  0  1  0  0  0  0  0999 V2000
    2.6940    2.1740   -0.4280 C   0  0  0  0  0  0  0  0  0  0  0  0
    1.7080    1.3760    0.3510 C   0  0  0  0  0  0  0  0  0  0  0  0
    0.4890    1.8520    0.6210 C   0  0  0  0  0  0  0  0  0  0  0  0
   -0.5420    1.1010    1.3930 C   0  0  0  0  0  0  0  0  0  0  0  0
   -1.6090    0.5910    0.4460 C   0  0  2  0  0  0  0  0  0  0  0  0
   -2.7420    2.1730   -0.1470 Br  0  0  0  0  0  0  0  0  0  0  0  0
   -2.5300   -0.3630    1.1090 C   0  0  0  0  0  0  0  0  0  0  0  0
   -3.3210    0.1470    2.2620 C   0  0  0  0  0  0  0  0  0  0  0  0
   -2.6330   -1.6520    0.7570 C   0  0  0  0  0  0  0  0  0  0  0  0
   -1.8550   -2.3120   -0.2880 C   0  0  2  0  0  0  0  0  0  0  0  0
   -0.0650   -1.9860    0.0050 Cl  0  0  0  0  0  0  0  0  0  0  0  0
   -2.2260   -1.5930   -1.9120 Cl  0  0  0  0  0  0  0  0  0  0  0  0
    2.1670    0.0510    0.8040 C   0  0  0  0  0  0  0  0  0  0  0  0
    3.7680    0.3280    2.0160 Br  0  0  0  0  0  0  0  0  0  0  0  0
    2.2210    2.9220   -1.0820 H   0  0  0  0  0  0  0  0  0  0  0  0
    3.3230    1.5470   -1.0780 H   0  0  0  0  0  0  0  0  0  0  0  0
    3.3740    2.7190    0.2440 H   0  0  0  0  0  0  0  0  0  0  0  0
    0.1710    2.8370    0.2590 H   0  0  0  0  0  0  0  0  0  0  0  0
   -0.9710    1.7490    2.1880 H   0  0  0  0  0  0  0  0  0  0  0  0
   -0.1010    0.2370    1.9470 H   0  0  0  0  0  0  0  0  0  0  0  0
   -1.1970    0.2490   -0.5300 H   0  0  0  0  0  0  0  0  0  0  0  0
   -2.8510   -0.1500    3.2130 H   0  0  0  0  0  0  0  0  0  0  0  0
   -4.3490   -0.2480    2.2750 H   0  0  0  0  0  0  0  0  0  0  0  0
   -3.4190    1.2440    2.2830 H   0  0  0  0  0  0  0  0  0  0  0  0
   -3.3400   -2.3100    1.2810 H   0  0  0  0  0  0  0  0  0  0  0  0
   -1.9650   -3.4110   -0.3720 H   0  0  0  0  0  0  0  0  0  0  0  0
    1.4580   -0.5100    1.4350 H   0  0  0  0  0  0  0  0  0  0  0  0
    2.5350   -0.6010   -0.0010 H   0  0  0  0  0  0  0  0  0  0  0  0
  1 15  1  0
  1 16  1  0
  1 17  1  0
  1  2  1  0
  2  3  2  0
  2 13  1  0
  3 18  1  0
  3  4  1  0
  4  5  1  0
  4 20  1  0
  4 19  1  0
  5 21  1  6
  5  6  1  0
  5  7  1  0
  7  9  2  0
  7  8  1  0
  8 23  1  0
  8 24  1  0
  8 22  1  0
  9 10  1  0
  9 25  1  0
 10 12  1  0
 10 26  1  6
 10 11  1  0
 13 28  1  0
 13 27  1  0
 13 14  1  0
M  END
>  <id>  (625) 
729

>  <scaffolds>  (625) 
[]

>  <name>  (625) 
4,8-dibromo-1, 1-dichloro-3,7-dimethyl-2,6-octadiene

>  <formula>  (625) 
C10H14Br2Cl2

>  <SMILES>  (625) 
CC(=CCC(Br)C(C)=CC(Cl)Cl)CBr

>  <ChEMBL_id>  (625) 


>  <ZINC_id>  (625) 


>  <PubChem_id>  (625) 


>  <DrugBank_id>  (625) 


>  <CAS_no>  (625) 


>  <references>  (625) 
[{'journal': {'name': 'Thesis, Rhodes University', 'id': 2}, 'title': 'The Natural Product Chemistry Of South African Plocamium Species', 'year': 2003, 'start_page': None, 'volume': None, 'issue': None, 'doi': '', 'isbn': '', 'despositor': {'code': 'GU2', 'first_name': 'Gugu', 'last_name': 'Mahlangu', 'id': 24}, 'refauthors_set': [{'author': {'first_name': 'Michael', 'initials': 'MG', 'last_name': 'Knott', 'id': 504}, 'first_author': True, 'id': 1440}], 'id': 409}]

>  <classifications>  (625) 
[{'classification': 'Halogenated monoterpene', 'id': 866}, {'classification': 'Phenol lipids (Classyfire)', 'id': 951}]

>  <molecular_mass>  (625) 
364.93

$$$$
SANC00730_minRM1.pdb
     RDKit          3D

 28 27  0  0  1  0  0  0  0  0999 V2000
   -3.3830   -2.0210    1.4020 C   0  0  0  0  0  0  0  0  0  0  0  0
   -2.8300   -2.2840    0.2210 C   0  0  0  0  0  0  0  0  0  0  0  0
   -3.0590   -3.5640   -0.5020 C   0  0  0  0  0  0  0  0  0  0  0  0
   -1.9450   -1.3140   -0.4690 C   0  0  1  0  0  0  0  0  0  0  0  0
   -2.9890    0.4060   -0.7030 Br  0  0  0  0  0  0  0  0  0  0  0  0
   -0.6950   -1.0050    0.3290 C   0  0  0  0  0  0  0  0  0  0  0  0
    0.1720    0.0430   -0.3390 C   0  0  1  0  0  0  0  0  0  0  0  0
   -0.3120    1.8650    0.4020 Br  0  0  0  0  0  0  0  0  0  0  0  0
    1.6190   -0.1110   -0.0300 C   0  0  0  0  0  0  0  0  0  0  0  0
    1.9810   -0.3490    1.3880 C   0  0  0  0  0  0  0  0  0  0  0  0
    2.5150   -0.0440   -1.0250 C   0  0  0  0  0  0  0  0  0  0  0  0
    3.9590   -0.1990   -0.8630 C   0  0  2  0  0  0  0  0  0  0  0  0
    4.3300   -1.7110    0.0960 Cl  0  0  0  0  0  0  0  0  0  0  0  0
    4.6360    1.1910    0.1030 Cl  0  0  0  0  0  0  0  0  0  0  0  0
   -4.0300   -2.7180    1.9280 H   0  0  0  0  0  0  0  0  0  0  0  0
   -3.2610   -1.0810    1.9340 H   0  0  0  0  0  0  0  0  0  0  0  0
   -3.6670   -4.2810    0.0690 H   0  0  0  0  0  0  0  0  0  0  0  0
   -3.5860   -3.3950   -1.4550 H   0  0  0  0  0  0  0  0  0  0  0  0
   -2.1130   -4.0740   -0.7400 H   0  0  0  0  0  0  0  0  0  0  0  0
   -1.7240   -1.5960   -1.5190 H   0  0  0  0  0  0  0  0  0  0  0  0
   -0.1250   -1.9550    0.4560 H   0  0  0  0  0  0  0  0  0  0  0  0
   -0.9510   -0.6980    1.3680 H   0  0  0  0  0  0  0  0  0  0  0  0
   -0.0460    0.1620   -1.4220 H   0  0  0  0  0  0  0  0  0  0  0  0
    2.0580   -1.4280    1.5990 H   0  0  0  0  0  0  0  0  0  0  0  0
    1.2510    0.0750    2.0950 H   0  0  0  0  0  0  0  0  0  0  0  0
    2.9540    0.0930    1.6630 H   0  0  0  0  0  0  0  0  0  0  0  0
    2.2000    0.1490   -2.0590 H   0  0  0  0  0  0  0  0  0  0  0  0
    4.5520   -0.2630   -1.7970 H   0  0  0  0  0  0  0  0  0  0  0  0
  1  2  2  0
  1 15  1  0
  1 16  1  0
  2  3  1  0
  2  4  1  0
  3 18  1  0
  3 19  1  0
  3 17  1  0
  4 20  1  6
  4  5  1  0
  4  6  1  0
  6  7  1  0
  6 21  1  0
  6 22  1  0
  7 23  1  6
  7  9  1  0
  7  8  1  0
  9 11  2  0
  9 10  1  0
 10 24  1  0
 10 26  1  0
 10 25  1  0
 11 27  1  0
 11 12  1  0
 12 28  1  6
 12 13  1  0
 12 14  1  0
M  END
>  <id>  (626) 
730

>  <scaffolds>  (626) 
[]

>  <name>  (626) 
4,6-dibromo-1, 1-dichloro-3,7-dimethyl-2,7-octadiene

>  <formula>  (626) 
C10H14Br2Cl2

>  <SMILES>  (626) 
C=C(C)C(Br)CC(Br)C(C)=CC(Cl)Cl

>  <ChEMBL_id>  (626) 


>  <ZINC_id>  (626) 


>  <PubChem_id>  (626) 


>  <DrugBank_id>  (626) 


>  <CAS_no>  (626) 


>  <references>  (626) 
[{'journal': {'name': 'Thesis, Rhodes University', 'id': 2}, 'title': 'The Natural Product Chemistry Of South African Plocamium Species', 'year': 2003, 'start_page': None, 'volume': None, 'issue': None, 'doi': '', 'isbn': '', 'despositor': {'code': 'GU2', 'first_name': 'Gugu', 'last_name': 'Mahlangu', 'id': 24}, 'refauthors_set': [{'author': {'first_name': 'Michael', 'initials': 'MG', 'last_name': 'Knott', 'id': 504}, 'first_author': True, 'id': 1440}], 'id': 409}]

>  <classifications>  (626) 
[{'classification': 'Halogenated monoterpene', 'id': 866}, {'classification': 'Organochlorides (Classyfire)', 'id': 959}]

>  <molecular_mass>  (626) 
364.93

$$$$
SANC00731_minRM1.pdb
     RDKit          3D

 30 29  0  0  1  0  0  0  0  0999 V2000
   -3.2850   -1.0940   -1.9600 C   0  0  0  0  0  0  0  0  0  0  0  0
   -2.7040   -0.0650   -1.3590 C   0  0  0  0  0  0  0  0  0  0  0  0
   -2.4430   -0.0110    0.0980 C   0  0  1  0  0  0  0  0  0  0  0  0
   -3.6010    0.5780    0.8640 C   0  0  0  0  0  0  0  0  0  0  0  0
   -2.2550   -1.7620    0.7450 Cl  0  0  0  0  0  0  0  0  0  0  0  0
   -1.1090    0.6010    0.4640 C   0  0  2  0  0  0  0  0  0  0  0  0
   -1.2510    2.3850   -0.1170 Cl  0  0  0  0  0  0  0  0  0  0  0  0
    0.0700    0.0140   -0.2740 C   0  0  0  0  0  0  0  0  0  0  0  0
    1.3460    0.7230    0.1250 C   0  0  1  0  0  0  0  0  0  0  0  0
    1.6030    0.2740    1.9130 Cl  0  0  0  0  0  0  0  0  0  0  0  0
    2.5740    0.3040   -0.6540 C   0  0  1  0  0  0  0  0  0  0  0  0
    2.5390    0.8180   -2.0750 C   0  0  0  0  0  0  0  0  0  0  0  0
    3.8700    0.6290    0.0480 C   0  0  0  0  0  0  0  0  0  0  0  0
    2.5420   -1.5520   -0.8050 Cl  0  0  0  0  0  0  0  0  0  0  0  0
   -3.4940   -1.1090   -3.0260 H   0  0  0  0  0  0  0  0  0  0  0  0
   -3.5920   -2.0070   -1.4540 H   0  0  0  0  0  0  0  0  0  0  0  0
   -2.4180    0.8440   -1.9060 H   0  0  0  0  0  0  0  0  0  0  0  0
   -3.4550    0.5220    1.9530 H   0  0  0  0  0  0  0  0  0  0  0  0
   -3.7500    1.6390    0.6070 H   0  0  0  0  0  0  0  0  0  0  0  0
   -4.5410    0.0520    0.6420 H   0  0  0  0  0  0  0  0  0  0  0  0
   -0.9460    0.6690    1.5650 H   0  0  0  0  0  0  0  0  0  0  0  0
   -0.0790    0.0640   -1.3740 H   0  0  0  0  0  0  0  0  0  0  0  0
    0.1400   -1.0810   -0.0490 H   0  0  0  0  0  0  0  0  0  0  0  0
    1.2420    1.8350    0.1320 H   0  0  0  0  0  0  0  0  0  0  0  0
    1.6430    0.4970   -2.6270 H   0  0  0  0  0  0  0  0  0  0  0  0
    2.5680    1.9180   -2.1110 H   0  0  0  0  0  0  0  0  0  0  0  0
    3.3980    0.4550   -2.6600 H   0  0  0  0  0  0  0  0  0  0  0  0
    3.9430    1.7010    0.2880 H   0  0  0  0  0  0  0  0  0  0  0  0
    3.9820    0.0750    0.9940 H   0  0  0  0  0  0  0  0  0  0  0  0
    4.7460    0.3710   -0.5660 H   0  0  0  0  0  0  0  0  0  0  0  0
  1 15  1  0
  1 16  1  0
  1  2  2  0
  2 17  1  0
  2  3  1  0
  3  6  1  0
  3  5  1  1
  3  4  1  0
  4 19  1  0
  4 20  1  0
  4 18  1  0
  6  8  1  0
  6  7  1  0
  6 21  1  1
  8 22  1  0
  8 23  1  0
  8  9  1  0
  9 11  1  0
  9 24  1  1
  9 10  1  0
 11 12  1  0
 11 14  1  6
 11 13  1  0
 12 27  1  0
 12 25  1  0
 12 26  1  0
 13 30  1  0
 13 28  1  0
 13 29  1  0
M  END
>  <id>  (627) 
731

>  <scaffolds>  (627) 
[]

>  <name>  (627) 
3,4,6,7-tetrachloro-3,7-dimethyl-1-octene

>  <formula>  (627) 
C10H16Cl4

>  <SMILES>  (627) 
C=CC(C)(Cl)C(Cl)CC(Cl)C(C)(C)Cl

>  <ChEMBL_id>  (627) 


>  <ZINC_id>  (627) 


>  <PubChem_id>  (627) 


>  <DrugBank_id>  (627) 


>  <CAS_no>  (627) 


>  <references>  (627) 
[{'journal': {'name': 'Thesis, Rhodes University', 'id': 2}, 'title': 'The Natural Product Chemistry Of South African Plocamium Species', 'year': 2003, 'start_page': None, 'volume': None, 'issue': None, 'doi': '', 'isbn': '', 'despositor': {'code': 'GU2', 'first_name': 'Gugu', 'last_name': 'Mahlangu', 'id': 24}, 'refauthors_set': [{'author': {'first_name': 'Michael', 'initials': 'MG', 'last_name': 'Knott', 'id': 504}, 'first_author': True, 'id': 1440}], 'id': 409}]

>  <classifications>  (627) 
[{'classification': 'Halogenated monoterpene', 'id': 866}, {'classification': 'Organochlorides (Classyfire)', 'id': 959}]

>  <molecular_mass>  (627) 
278.05

$$$$
SANC00732_minRM1.pdb
     RDKit          3D

 28 28  0  0  1  0  0  0  0  0999 V2000
    2.2930   -0.1220   -2.3000 C   0  0  0  0  0  0  0  0  0  0  0  0
    1.5670   -0.3300   -0.9670 C   0  0  1  0  0  0  0  0  0  0  0  0
    2.5020    0.0390    0.1400 C   0  0  0  0  0  0  0  0  0  0  0  0
    3.0640    1.2230    0.3340 C   0  0  0  0  0  0  0  0  0  0  0  0
    2.7560    2.6210   -0.6650 Cl  0  0  0  0  0  0  0  0  0  0  0  0
    0.2830    0.5120   -0.9350 C   0  0  0  0  0  0  0  0  0  0  0  0
   -0.6540    0.1670    0.2050 C   0  0  1  0  0  0  0  0  0  0  0  0
    0.2350    0.7120    1.9490 Br  0  0  0  0  0  0  0  0  0  0  0  0
   -1.9050    0.9990    0.2210 C   0  0  0  0  0  0  0  0  0  0  0  0
   -2.9570    0.6320   -1.4650 Br  0  0  0  0  0  0  0  0  0  0  0  0
   -0.9360   -1.3140    0.2630 C   0  0  2  0  0  0  0  0  0  0  0  0
   -1.8910   -1.6650    1.7980 Cl  0  0  0  0  0  0  0  0  0  0  0  0
    0.3310   -2.1370    0.3380 C   0  0  0  0  0  0  0  0  0  0  0  0
    1.1630   -1.8020   -0.8790 C   0  0  2  0  0  0  0  0  0  0  0  0
    2.7180   -2.8070   -0.7220 Cl  0  0  0  0  0  0  0  0  0  0  0  0
    2.5550    0.9310   -2.4800 H   0  0  0  0  0  0  0  0  0  0  0  0
    3.2310   -0.6970   -2.3380 H   0  0  0  0  0  0  0  0  0  0  0  0
    1.6910   -0.4400   -3.1650 H   0  0  0  0  0  0  0  0  0  0  0  0
    2.7900   -0.7680    0.8310 H   0  0  0  0  0  0  0  0  0  0  0  0
    3.7640    1.4610    1.1360 H   0  0  0  0  0  0  0  0  0  0  0  0
    0.5360    1.5950   -0.9070 H   0  0  0  0  0  0  0  0  0  0  0  0
   -0.2660    0.3900   -1.8980 H   0  0  0  0  0  0  0  0  0  0  0  0
   -1.7280    2.0840    0.2060 H   0  0  0  0  0  0  0  0  0  0  0  0
   -2.5990    0.7490    1.0400 H   0  0  0  0  0  0  0  0  0  0  0  0
   -1.6070   -1.6310   -0.5720 H   0  0  0  0  0  0  0  0  0  0  0  0
    0.0960   -3.2230    0.3750 H   0  0  0  0  0  0  0  0  0  0  0  0
    0.8770   -1.9560    1.2900 H   0  0  0  0  0  0  0  0  0  0  0  0
    0.6910   -2.1660   -1.8200 H   0  0  0  0  0  0  0  0  0  0  0  0
  1 18  1  0
  1 16  1  0
  1 17  1  0
  1  2  1  0
  2  6  1  0
  2 14  1  0
  2  3  1  1
  3  4  2  0
  3 19  1  0
  4  5  1  0
  4 20  1  0
  6 22  1  0
  6 21  1  0
  6  7  1  0
  7  9  1  0
  7 11  1  0
  7  8  1  1
  9 10  1  0
  9 23  1  0
  9 24  1  0
 11 25  1  6
 11 13  1  0
 11 12  1  0
 13 14  1  0
 13 26  1  0
 13 27  1  0
 14 28  1  6
 14 15  1  0
M  END
>  <id>  (628) 
732

>  <scaffolds>  (628) 
['C1CCCCC1']

>  <name>  (628) 
5-bromo-5-bromomethyl-1-chlorovinyl-2,4-dichloro-methylcyclohexane

>  <formula>  (628) 
C10H13Br2Cl3

>  <SMILES>  (628) 
C[C@@]1(C=CCl)C[C@@](Br)(CBr)[C@H](Cl)C[C@@H]1Cl

>  <ChEMBL_id>  (628) 


>  <ZINC_id>  (628) 


>  <PubChem_id>  (628) 


>  <DrugBank_id>  (628) 


>  <CAS_no>  (628) 


>  <references>  (628) 
[{'journal': {'name': 'Thesis, Rhodes University', 'id': 2}, 'title': 'The Natural Product Chemistry Of South African Plocamium Species', 'year': 2003, 'start_page': None, 'volume': None, 'issue': None, 'doi': '', 'isbn': '', 'despositor': {'code': 'GU2', 'first_name': 'Gugu', 'last_name': 'Mahlangu', 'id': 24}, 'refauthors_set': [{'author': {'first_name': 'Michael', 'initials': 'MG', 'last_name': 'Knott', 'id': 504}, 'first_author': True, 'id': 1440}], 'id': 409}]

>  <classifications>  (628) 
[{'classification': 'Cyclic monoterpene', 'id': 867}, {'classification': 'Alkyl halides (Classyfire)', 'id': 962}]

>  <molecular_mass>  (628) 
399.38

$$$$
SANC00733_minRM1.pdb
     RDKit          3D

 64 66  0  0  1  0  0  0  0  0999 V2000
   -4.7610   -3.2800   -0.4390 C   0  0  0  0  0  0  0  0  0  0  0  0
   -4.4630   -1.9660    0.1870 C   0  0  0  0  0  0  0  0  0  0  0  0
   -5.4470   -0.8770   -0.0540 C   0  0  0  0  0  0  0  0  0  0  0  0
   -3.3710   -1.7740    0.9300 C   0  0  0  0  0  0  0  0  0  0  0  0
   -3.1200   -0.4880    1.5980 C   0  0  0  0  0  0  0  0  0  0  0  0
   -3.5410   -0.1670    2.6930 O   0  0  0  0  0  0  0  0  0  0  0  0
   -2.3710    0.4840    0.9960 O   0  0  0  0  0  0  0  0  0  0  0  0
   -1.7300    0.2100   -0.2280 C   0  0  2  0  0  0  0  0  0  0  0  0
   -0.4460   -0.6370    0.0590 C   0  0  0  0  0  0  0  0  0  0  0  0
    0.8120   -0.4620   -0.8520 C   0  0  2  0  0  0  0  0  0  0  0  0
    1.0250   -1.7930   -1.5100 C   0  0  0  0  0  0  0  0  0  0  0  0
    0.1310   -2.0960   -2.6600 C   0  0  0  0  0  0  0  0  0  0  0  0
    1.9370   -2.6680   -1.0900 C   0  0  0  0  0  0  0  0  0  0  0  0
    2.8400   -2.2710    0.0030 C   0  0  0  0  0  0  0  0  0  0  0  0
    3.1790   -3.0500    0.8710 O   0  0  0  0  0  0  0  0  0  0  0  0
    3.2840   -0.8370   -0.1360 C   0  0  2  0  0  0  0  0  0  0  0  0
    4.3450   -0.4230    0.8980 C   0  0  2  0  0  0  0  0  0  0  0  0
    5.6330   -1.2140    0.6970 C   0  0  0  0  0  0  0  0  0  0  0  0
    3.8530   -0.5710    2.3320 C   0  0  0  0  0  0  0  0  0  0  0  0
    2.0410    0.0790   -0.0510 C   0  0  1  0  0  0  0  0  0  0  0  0
    2.4730    1.4830   -0.4300 C   0  0  0  0  0  0  0  0  0  0  0  0
    1.7880    2.6220   -0.2450 C   0  0  0  0  0  0  0  0  0  0  0  0
    2.3040    3.9830   -0.5090 C   0  0  0  0  0  0  0  0  0  0  0  0
    0.3410    2.5150    0.1460 C   0  0  1  0  0  0  0  0  0  0  0  0
    0.3480    1.8070    1.3430 O   0  0  0  0  0  0  0  0  0  0  0  0
   -0.7850    3.5400    0.2690 C   0  0  0  0  0  0  0  0  0  0  0  0
   -1.8990    2.9140   -0.1450 C   0  0  0  0  0  0  0  0  0  0  0  0
   -1.5150    1.6200   -0.8670 C   0  0  2  0  0  0  0  0  0  0  0  0
   -2.0930    1.6620   -2.2810 C   0  0  0  0  0  0  0  0  0  0  0  0
   -0.1250    1.7450   -0.9510 O   0  0  0  0  0  0  0  0  0  0  0  0
   -4.8560   -3.1910   -1.5320 H   0  0  0  0  0  0  0  0  0  0  0  0
   -5.7140   -3.6880   -0.0650 H   0  0  0  0  0  0  0  0  0  0  0  0
   -3.9950   -4.0460   -0.2490 H   0  0  0  0  0  0  0  0  0  0  0  0
   -5.8810   -0.5120    0.8900 H   0  0  0  0  0  0  0  0  0  0  0  0
   -6.2910   -1.1850   -0.6880 H   0  0  0  0  0  0  0  0  0  0  0  0
   -4.9830   -0.0090   -0.5480 H   0  0  0  0  0  0  0  0  0  0  0  0
   -2.6480   -2.5640    1.1520 H   0  0  0  0  0  0  0  0  0  0  0  0
   -2.3960   -0.3900   -0.9090 H   0  0  0  0  0  0  0  0  0  0  0  0
   -0.7690   -1.7020    0.0340 H   0  0  0  0  0  0  0  0  0  0  0  0
   -0.1370   -0.5160    1.1200 H   0  0  0  0  0  0  0  0  0  0  0  0
    0.6110    0.2630   -1.6860 H   0  0  0  0  0  0  0  0  0  0  0  0
    0.0380   -3.1720   -2.8650 H   0  0  0  0  0  0  0  0  0  0  0  0
   -0.8920   -1.7140   -2.5170 H   0  0  0  0  0  0  0  0  0  0  0  0
    0.5180   -1.6290   -3.5790 H   0  0  0  0  0  0  0  0  0  0  0  0
    2.0700   -3.6650   -1.5150 H   0  0  0  0  0  0  0  0  0  0  0  0
    3.7380   -0.7560   -1.1600 H   0  0  0  0  0  0  0  0  0  0  0  0
    4.5880    0.6610    0.7310 H   0  0  0  0  0  0  0  0  0  0  0  0
    6.0260   -1.1190   -0.3250 H   0  0  0  0  0  0  0  0  0  0  0  0
    6.4280   -0.8580    1.3710 H   0  0  0  0  0  0  0  0  0  0  0  0
    5.5260   -2.2880    0.8970 H   0  0  0  0  0  0  0  0  0  0  0  0
    3.8620   -1.6060    2.6990 H   0  0  0  0  0  0  0  0  0  0  0  0
    2.8220   -0.1980    2.4540 H   0  0  0  0  0  0  0  0  0  0  0  0
    4.4790    0.0020    3.0320 H   0  0  0  0  0  0  0  0  0  0  0  0
    1.7660    0.0910    1.0430 H   0  0  0  0  0  0  0  0  0  0  0  0
    3.4800    1.5690   -0.8590 H   0  0  0  0  0  0  0  0  0  0  0  0
    3.3690    4.0010   -0.7840 H   0  0  0  0  0  0  0  0  0  0  0  0
    1.7530    4.4690   -1.3280 H   0  0  0  0  0  0  0  0  0  0  0  0
    2.1950    4.6240    0.3790 H   0  0  0  0  0  0  0  0  0  0  0  0
   -0.5160    1.8190    1.7700 H   0  0  0  0  0  0  0  0  0  0  0  0
   -0.6570    4.5180    0.7110 H   0  0  0  0  0  0  0  0  0  0  0  0
   -2.9290    3.2460   -0.0870 H   0  0  0  0  0  0  0  0  0  0  0  0
   -1.8590    2.6090   -2.7880 H   0  0  0  0  0  0  0  0  0  0  0  0
   -1.6920    0.8620   -2.9200 H   0  0  0  0  0  0  0  0  0  0  0  0
   -3.1880    1.5630   -2.2660 H   0  0  0  0  0  0  0  0  0  0  0  0
  1 31  1  0
  1 33  1  0
  1 32  1  0
  1  2  1  0
  2  3  1  0
  2  4  2  0
  3 35  1  0
  3 36  1  0
  3 34  1  0
  4 37  1  0
  4  5  1  0
  5  7  1  0
  5  6  2  0
  7  8  1  0
  8 38  1  6
  8 28  1  0
  8  9  1  0
  9 10  1  0
  9 39  1  0
  9 40  1  0
 10 41  1  6
 10 11  1  0
 10 20  1  0
 11 12  1  0
 11 13  2  0
 12 44  1  0
 12 42  1  0
 12 43  1  0
 13 45  1  0
 13 14  1  0
 14 16  1  0
 14 15  2  0
 16 46  1  6
 16 20  1  0
 16 17  1  0
 17 18  1  0
 17 47  1  6
 17 19  1  0
 18 48  1  0
 18 50  1  0
 18 49  1  0
 19 52  1  0
 19 51  1  0
 19 53  1  0
 20 21  1  0
 20 54  1  1
 21 55  1  0
 21 22  2  0
 22 23  1  0
 22 24  1  0
 23 57  1  0
 23 56  1  0
 23 58  1  0
 24 30  1  0
 24 26  1  0
 24 25  1  1
 25 59  1  0
 26 27  2  0
 26 60  1  0
 27 28  1  0
 27 61  1  0
 28 29  1  6
 28 30  1  0
 29 63  1  0
 29 62  1  0
 29 64  1  0
M  END
>  <id>  (629) 
733

>  <scaffolds>  (629) 
['C1=CCCCC1', 'O=C1C=CCCC1']

>  <name>  (629) 
Valdivone A

>  <formula>  (629) 
C25H34O5

>  <SMILES>  (629) 
CC(C)=CC(=O)OC2CC1C(C)=CC(=O)C(C(C)C)C1C=C(C)C3(O)C=CC2(C)O3

>  <ChEMBL_id>  (629) 


>  <ZINC_id>  (629) 


>  <PubChem_id>  (629) 


>  <DrugBank_id>  (629) 


>  <CAS_no>  (629) 
152130-61-5

>  <references>  (629) 
[{'journal': {'name': 'Tetrahedron', 'id': 4}, 'title': 'The valdivones, antiinflammatory diterpene esters from the South African soft coral Alcyonium valdivae', 'year': 1993, 'start_page': 7977, 'volume': 49, 'issue': 36, 'doi': '10.1016/S0040-4020(01)88021-2', 'isbn': '', 'despositor': {'code': 'GU2', 'first_name': 'Gugu', 'last_name': 'Mahlangu', 'id': 24}, 'refauthors_set': [{'author': {'first_name': 'Yongcheng', 'initials': 'Y', 'last_name': 'Lin', 'id': 880}, 'first_author': True, 'id': 1448}, {'author': {'first_name': 'Carole', 'initials': 'CA', 'last_name': 'Bewley', 'id': 881}, 'first_author': None, 'id': 1449}, {'author': {'first_name': 'John', 'initials': 'DJ', 'last_name': 'Faulkner', 'id': 529}, 'first_author': None, 'id': 1450}], 'id': 413}]

>  <classifications>  (629) 
[{'classification': 'Diterpene ester', 'id': 868}, {'classification': 'Phenol lipids (Classyfire)', 'id': 951}]

>  <molecular_mass>  (629) 
414.534

$$$$
SANC00734_minRM1.pdb
     RDKit          3D

 67 70  0  0  1  0  0  0  0  0999 V2000
   -2.1290    1.5960    3.1230 C   0  0  0  0  0  0  0  0  0  0  0  0
   -2.6180    1.3390    1.7420 C   0  0  0  0  0  0  0  0  0  0  0  0
   -3.9000    1.5750    1.4390 C   0  0  0  0  0  0  0  0  0  0  0  0
   -4.4560    1.3470    0.0980 C   0  0  0  0  0  0  0  0  0  0  0  0
   -5.6390    1.5390   -0.1310 O   0  0  0  0  0  0  0  0  0  0  0  0
   -3.5240    0.8470   -0.9810 C   0  0  1  0  0  0  0  0  0  0  0  0
   -2.9700    2.0380   -1.7830 C   0  0  1  0  0  0  0  0  0  0  0  0
   -2.1880    1.5230   -2.9880 C   0  0  0  0  0  0  0  0  0  0  0  0
   -4.0950    2.9480   -2.2610 C   0  0  0  0  0  0  0  0  0  0  0  0
   -2.3850    0.0300   -0.3510 C   0  0  2  0  0  0  0  0  0  0  0  0
   -2.9480   -1.1890    0.3020 C   0  0  0  0  0  0  0  0  0  0  0  0
   -2.4220   -2.4140    0.3330 C   0  0  0  0  0  0  0  0  0  0  0  0
   -3.1260   -3.5110    1.0610 C   0  0  0  0  0  0  0  0  0  0  0  0
   -1.1100   -2.8520   -0.2570 C   0  0  2  0  0  0  0  0  0  0  0  0
   -1.3810   -3.8270   -1.2060 O   0  0  0  0  0  0  0  0  0  0  0  0
   -0.1420   -3.3110    0.8270 C   0  0  0  0  0  0  0  0  0  0  0  0
    0.9350   -2.5280    0.8040 C   0  0  0  0  0  0  0  0  0  0  0  0
    0.7930   -1.5200   -0.3120 C   0  0  1  0  0  0  0  0  0  0  0  0
    1.9070   -1.6670   -1.3440 C   0  0  0  0  0  0  0  0  0  0  0  0
   -0.4280   -1.8260   -0.9570 O   0  0  0  0  0  0  0  0  0  0  0  0
    0.6750   -0.0600    0.2050 C   0  0  2  0  0  0  0  0  0  0  0  0
    1.9340    0.1640    0.8200 O   0  0  0  0  0  0  0  0  0  0  0  0
    2.3220    1.4460    1.0380 C   0  0  0  0  0  0  0  0  0  0  0  0
    1.6030    2.3800    0.7370 O   0  0  0  0  0  0  0  0  0  0  0  0
    3.6880    1.5150    1.6680 C   0  0  0  0  0  0  0  0  0  0  0  0
    4.6970    1.0850    0.6570 C   0  0  0  0  0  0  0  0  0  0  0  0
    5.3520    2.0330   -0.1240 C   0  0  0  0  0  0  0  0  0  0  0  0
    6.2890    1.6230   -1.0650 C   0  0  0  0  0  0  0  0  0  0  0  0
    6.5700    0.2710   -1.2270 C   0  0  0  0  0  0  0  0  0  0  0  0
    5.9110   -0.6730   -0.4480 C   0  0  0  0  0  0  0  0  0  0  0  0
    4.9740   -0.2690    0.4940 C   0  0  0  0  0  0  0  0  0  0  0  0
   -0.4340    0.1400    1.2570 C   0  0  0  0  0  0  0  0  0  0  0  0
   -1.6460    0.8880    0.6930 C   0  0  2  0  0  0  0  0  0  0  0  0
   -1.8300    0.6640    3.6270 H   0  0  0  0  0  0  0  0  0  0  0  0
   -2.8840    2.0620    3.7750 H   0  0  0  0  0  0  0  0  0  0  0  0
   -1.2640    2.2780    3.1320 H   0  0  0  0  0  0  0  0  0  0  0  0
   -4.6130    1.9470    2.1830 H   0  0  0  0  0  0  0  0  0  0  0  0
   -4.1010    0.1810   -1.6760 H   0  0  0  0  0  0  0  0  0  0  0  0
   -2.2760    2.6280   -1.1250 H   0  0  0  0  0  0  0  0  0  0  0  0
   -1.6710    2.3350   -3.5190 H   0  0  0  0  0  0  0  0  0  0  0  0
   -1.4150    0.7920   -2.6990 H   0  0  0  0  0  0  0  0  0  0  0  0
   -2.8340    1.0240   -3.7240 H   0  0  0  0  0  0  0  0  0  0  0  0
   -4.9070    2.3910   -2.7490 H   0  0  0  0  0  0  0  0  0  0  0  0
   -4.5520    3.5220   -1.4410 H   0  0  0  0  0  0  0  0  0  0  0  0
   -3.7370    3.6910   -2.9880 H   0  0  0  0  0  0  0  0  0  0  0  0
   -1.6830   -0.2440   -1.1840 H   0  0  0  0  0  0  0  0  0  0  0  0
   -3.9050   -1.0300    0.8200 H   0  0  0  0  0  0  0  0  0  0  0  0
   -2.7850   -3.5700    2.1060 H   0  0  0  0  0  0  0  0  0  0  0  0
   -2.9660   -4.5040    0.6140 H   0  0  0  0  0  0  0  0  0  0  0  0
   -4.2180   -3.3730    1.0920 H   0  0  0  0  0  0  0  0  0  0  0  0
   -0.5580   -4.0820   -1.6390 H   0  0  0  0  0  0  0  0  0  0  0  0
   -0.3730   -4.1460    1.4770 H   0  0  0  0  0  0  0  0  0  0  0  0
    1.8150   -2.5440    1.4370 H   0  0  0  0  0  0  0  0  0  0  0  0
    1.7710   -0.9860   -2.1960 H   0  0  0  0  0  0  0  0  0  0  0  0
    1.9440   -2.6850   -1.7570 H   0  0  0  0  0  0  0  0  0  0  0  0
    2.8950   -1.4560   -0.9110 H   0  0  0  0  0  0  0  0  0  0  0  0
    0.5310    0.6210   -0.6780 H   0  0  0  0  0  0  0  0  0  0  0  0
    3.8750    2.5470    2.0350 H   0  0  0  0  0  0  0  0  0  0  0  0
    3.7250    0.8810    2.5800 H   0  0  0  0  0  0  0  0  0  0  0  0
    5.1320    3.0980   -0.0050 H   0  0  0  0  0  0  0  0  0  0  0  0
    6.8050    2.3660   -1.6790 H   0  0  0  0  0  0  0  0  0  0  0  0
    7.3080   -0.0490   -1.9680 H   0  0  0  0  0  0  0  0  0  0  0  0
    6.1320   -1.7370   -0.5760 H   0  0  0  0  0  0  0  0  0  0  0  0
    4.4540   -1.0150    1.1030 H   0  0  0  0  0  0  0  0  0  0  0  0
   -0.0100    0.6980    2.1200 H   0  0  0  0  0  0  0  0  0  0  0  0
   -0.7510   -0.8250    1.7040 H   0  0  0  0  0  0  0  0  0  0  0  0
   -1.2840    1.8340    0.1970 H   0  0  0  0  0  0  0  0  0  0  0  0
  1  2  1  0
  1 36  1  0
  1 34  1  0
  1 35  1  0
  2 33  1  0
  2  3  2  0
  3  4  1  0
  3 37  1  0
  4  6  1  0
  4  5  2  0
  6  7  1  0
  6 38  1  6
  6 10  1  0
  7  8  1  0
  7  9  1  0
  7 39  1  1
  8 42  1  0
  8 40  1  0
  8 41  1  0
  9 45  1  0
  9 43  1  0
  9 44  1  0
 10 46  1  6
 10 11  1  0
 10 33  1  0
 11 12  2  0
 11 47  1  0
 12 14  1  0
 12 13  1  0
 13 49  1  0
 13 50  1  0
 13 48  1  0
 14 15  1  6
 14 20  1  0
 14 16  1  0
 15 51  1  0
 16 17  2  0
 16 52  1  0
 17 18  1  0
 17 53  1  0
 18 19  1  6
 18 20  1  0
 18 21  1  0
 19 54  1  0
 19 55  1  0
 19 56  1  0
 21 57  1  6
 21 22  1  0
 21 32  1  0
 22 23  1  0
 23 24  2  0
 23 25  1  0
 25 26  1  0
 25 58  1  0
 25 59  1  0
 26 27  2  0
 26 31  1  0
 27 28  1  0
 27 60  1  0
 28 61  1  0
 28 29  2  0
 29 62  1  0
 29 30  1  0
 30 63  1  0
 30 31  2  0
 31 64  1  0
 32 33  1  0
 32 66  1  0
 32 65  1  0
 33 67  1  6
M  END
>  <id>  (630) 
734

>  <scaffolds>  (630) 
['c1ccccc1', 'C1=CCCCC1', 'O=C1C=CCCC1', 'O=C1C=CC2CC(OC(=O)Cc3ccccc3)C3C=CC(C=CC2C1)O3']

>  <name>  (630) 
Valdivone B

>  <formula>  (630) 
C28H34O5

>  <SMILES>  (630) 
CC3=CC(=O)C(C(C)C)C4C=C(C)C1(O)C=CC(C)(O1)C(OC(=O)Cc2ccccc2)CC34

>  <ChEMBL_id>  (630) 


>  <ZINC_id>  (630) 


>  <PubChem_id>  (630) 


>  <DrugBank_id>  (630) 


>  <CAS_no>  (630) 
152110-08-2

>  <references>  (630) 
[{'journal': {'name': 'Tetrahedron', 'id': 4}, 'title': 'The valdivones, antiinflammatory diterpene esters from the South African soft coral Alcyonium valdivae', 'year': 1993, 'start_page': 7977, 'volume': 49, 'issue': 36, 'doi': '10.1016/S0040-4020(01)88021-2', 'isbn': '', 'despositor': {'code': 'GU2', 'first_name': 'Gugu', 'last_name': 'Mahlangu', 'id': 24}, 'refauthors_set': [{'author': {'first_name': 'Yongcheng', 'initials': 'Y', 'last_name': 'Lin', 'id': 880}, 'first_author': True, 'id': 1448}, {'author': {'first_name': 'Carole', 'initials': 'CA', 'last_name': 'Bewley', 'id': 881}, 'first_author': None, 'id': 1449}, {'author': {'first_name': 'John', 'initials': 'DJ', 'last_name': 'Faulkner', 'id': 529}, 'first_author': None, 'id': 1450}], 'id': 413}]

>  <classifications>  (630) 
[{'classification': 'Diterpene ester', 'id': 868}, {'classification': 'Phenol lipids (Classyfire)', 'id': 951}]

>  <molecular_mass>  (630) 
450.567

$$$$
SANC00735_minRM1.pdb
     RDKit          3D

 36 38  0  0  1  0  0  0  0  0999 V2000
    2.0180   -2.5050    0.8560 C   0  0  0  0  0  0  0  0  0  0  0  0
    1.4020   -1.3840    0.0920 C   0  0  0  0  0  0  0  0  0  0  0  0
    1.7990   -0.1160    0.2540 C   0  0  0  0  0  0  0  0  0  0  0  0
    2.8530    0.2230    1.2510 C   0  0  0  0  0  0  0  0  0  0  0  0
    1.2450    1.0280   -0.5420 C   0  0  2  0  0  0  0  0  0  0  0  0
    2.4140    1.8130   -1.1650 C   0  0  0  0  0  0  0  0  0  0  0  0
    0.4500    1.9810    0.3660 C   0  0  0  0  0  0  0  0  0  0  0  0
   -0.4210    1.2760    1.4000 C   0  0  0  0  0  0  0  0  0  0  0  0
   -1.5260    0.5260    0.7850 C   0  0  0  0  0  0  0  0  0  0  0  0
   -2.8610    0.4550    1.3220 C   0  0  0  0  0  0  0  0  0  0  0  0
   -3.5670   -0.3650    0.4820 C   0  0  0  0  0  0  0  0  0  0  0  0
   -2.7680   -0.8080   -0.5380 O   0  0  0  0  0  0  0  0  0  0  0  0
   -1.5220   -0.2550   -0.3410 C   0  0  0  0  0  0  0  0  0  0  0  0
   -0.5160   -0.6320   -1.3570 C   0  0  2  0  0  0  0  0  0  0  0  0
    0.3370   -1.8000   -0.8600 C   0  0  0  0  0  0  0  0  0  0  0  0
    0.3820    0.5420   -1.7150 C   0  0  0  0  0  0  0  0  0  0  0  0
    1.6780   -2.5120    1.9030 H   0  0  0  0  0  0  0  0  0  0  0  0
    3.1170   -2.4520    0.8700 H   0  0  0  0  0  0  0  0  0  0  0  0
    1.7730   -3.4970    0.4450 H   0  0  0  0  0  0  0  0  0  0  0  0
    2.8620    1.2800    1.5540 H   0  0  0  0  0  0  0  0  0  0  0  0
    3.8560   -0.0010    0.8560 H   0  0  0  0  0  0  0  0  0  0  0  0
    2.7460   -0.3380    2.1940 H   0  0  0  0  0  0  0  0  0  0  0  0
    3.0930    1.1590   -1.7310 H   0  0  0  0  0  0  0  0  0  0  0  0
    2.0580    2.5880   -1.8590 H   0  0  0  0  0  0  0  0  0  0  0  0
    3.0410    2.3340   -0.4280 H   0  0  0  0  0  0  0  0  0  0  0  0
   -0.1720    2.6680   -0.2460 H   0  0  0  0  0  0  0  0  0  0  0  0
    1.1400    2.6670    0.9040 H   0  0  0  0  0  0  0  0  0  0  0  0
    0.1800    0.5900    2.0370 H   0  0  0  0  0  0  0  0  0  0  0  0
   -0.8290    2.0250    2.1150 H   0  0  0  0  0  0  0  0  0  0  0  0
   -3.2140    0.9570    2.2110 H   0  0  0  0  0  0  0  0  0  0  0  0
   -4.5870   -0.7230    0.4590 H   0  0  0  0  0  0  0  0  0  0  0  0
   -1.0560   -0.9600   -2.2890 H   0  0  0  0  0  0  0  0  0  0  0  0
    0.8160   -2.3120   -1.7240 H   0  0  0  0  0  0  0  0  0  0  0  0
   -0.3180   -2.5730   -0.4010 H   0  0  0  0  0  0  0  0  0  0  0  0
   -0.2230    1.3760   -2.1310 H   0  0  0  0  0  0  0  0  0  0  0  0
    1.0300    0.2290   -2.5630 H   0  0  0  0  0  0  0  0  0  0  0  0
  1  2  1  0
  1 19  1  0
  1 18  1  0
  1 17  1  0
  2 15  1  0
  2  3  2  0
  3  5  1  0
  3  4  1  0
  4 21  1  0
  4 20  1  0
  4 22  1  0
  5 16  1  0
  5  6  1  6
  5  7  1  0
  6 24  1  0
  6 23  1  0
  6 25  1  0
  7 26  1  0
  7 27  1  0
  7  8  1  0
  8  9  1  0
  8 28  1  0
  8 29  1  0
  9 13  2  0
  9 10  1  0
 10 11  2  0
 10 30  1  0
 11 12  1  0
 11 31  1  0
 12 13  1  0
 13 14  1  0
 14 32  1  6
 14 16  1  0
 14 15  1  0
 15 33  1  0
 15 34  1  0
 16 36  1  0
 16 35  1  0
M  END
>  <id>  (631) 
735

>  <scaffolds>  (631) 
['C1=CCCCC1', 'c1ccoc1', 'C1=CC2CCc3ccoc3C(C1)C2']

>  <name>  (631) 
Nakafuran 9

>  <formula>  (631) 
C15H20O

>  <SMILES>  (631) 
CC2=C(C)C3(C)CCc1ccoc1C(C2)C3

>  <ChEMBL_id>  (631) 


>  <ZINC_id>  (631) 


>  <PubChem_id>  (631) 


>  <DrugBank_id>  (631) 


>  <CAS_no>  (631) 
76844-26-3

>  <references>  (631) 
[{'journal': {'name': 'Journal of Natural Products', 'id': 5}, 'title': 'A New Furanosesterterpene from the South African Nudibranch Hypselodoris capensis and a Dictyoceratida Sponge', 'year': 1998, 'start_page': 961, 'volume': 61, 'issue': 7, 'doi': '10.1021/np980051y', 'isbn': '', 'despositor': {'code': 'TMM', 'first_name': 'Thommas', 'last_name': 'Musyoka', 'id': 22}, 'refauthors_set': [{'author': {'first_name': 'Kerry', 'initials': 'KL', 'last_name': 'McPhail', 'id': 483}, 'first_author': True, 'id': 637}, {'author': {'first_name': 'Michael', 'initials': 'MT', 'last_name': 'Davies-Coleman', 'id': 449}, 'first_author': False, 'id': 695}, {'author': {'first_name': 'Philip', 'initials': 'PS', 'last_name': 'Coetzee', 'id': 451}, 'first_author': False, 'id': 696}], 'id': 243}]

>  <classifications>  (631) 
[{'classification': 'Furanosesquiterpene', 'id': 778}, {'classification': 'Sesquiterpene', 'id': 828}, {'classification': 'Cycloheptafurans (Classyfire)', 'id': 996}]

>  <molecular_mass>  (631) 
216.319

$$$$
SANC00736_minRM1.pdb
     RDKit          3D

 62 63  0  0  1  0  0  0  0  0999 V2000
    4.5660   -2.2730   -0.2180 C   0  0  0  0  0  0  0  0  0  0  0  0
    4.2260   -1.0310    0.5250 C   0  0  0  0  0  0  0  0  0  0  0  0
    5.1060   -0.0400    0.6940 C   0  0  0  0  0  0  0  0  0  0  0  0
    6.4950   -0.1030    0.1620 C   0  0  0  0  0  0  0  0  0  0  0  0
    7.2680    1.1850    0.4560 C   0  0  0  0  0  0  0  0  0  0  0  0
    8.6330    1.1010   -0.0940 C   0  0  0  0  0  0  0  0  0  0  0  0
    9.2370    2.0250   -1.0170 C   0  0  0  0  0  0  0  0  0  0  0  0
   10.5060    1.5590   -1.2440 C   0  0  0  0  0  0  0  0  0  0  0  0
   10.7320    0.4120   -0.5290 O   0  0  0  0  0  0  0  0  0  0  0  0
    9.5820    0.1450    0.1680 C   0  0  0  0  0  0  0  0  0  0  0  0
    2.8360   -0.9390    1.0640 C   0  0  0  0  0  0  0  0  0  0  0  0
    1.8600   -0.6370   -0.0760 C   0  0  0  0  0  0  0  0  0  0  0  0
    0.4720   -0.5770    0.4640 C   0  0  0  0  0  0  0  0  0  0  0  0
   -0.3770   -1.6060    0.4630 C   0  0  0  0  0  0  0  0  0  0  0  0
   -0.0270   -2.9390   -0.0960 C   0  0  0  0  0  0  0  0  0  0  0  0
   -1.7610   -1.4670    1.0130 C   0  0  0  0  0  0  0  0  0  0  0  0
   -2.7690   -1.4310   -0.1370 C   0  0  0  0  0  0  0  0  0  0  0  0
   -4.1920   -1.3320    0.4030 C   0  0  0  0  0  0  0  0  0  0  0  0
   -5.2130   -1.1080   -0.7200 C   0  0  1  0  0  0  0  0  0  0  0  0
   -5.2640   -2.2920   -1.6820 C   0  0  0  0  0  0  0  0  0  0  0  0
   -6.5590   -0.9510   -0.0900 C   0  0  0  0  0  0  0  0  0  0  0  0
   -7.2110    0.2080    0.0090 C   0  0  0  0  0  0  0  0  0  0  0  0
   -8.5280    0.4880    0.6030 C   0  0  0  0  0  0  0  0  0  0  0  0
   -8.7740    1.8020    0.4610 C   0  0  0  0  0  0  0  0  0  0  0  0
   -9.9290    2.6090    0.8660 C   0  0  0  0  0  0  0  0  0  0  0  0
   -7.6030    2.3950   -0.2320 C   0  0  0  0  0  0  0  0  0  0  0  0
   -7.3280    3.5140   -0.5900 O   0  0  0  0  0  0  0  0  0  0  0  0
   -6.6800    1.3900   -0.4840 O   0  0  0  0  0  0  0  0  0  0  0  0
    5.4320   -2.7910    0.2240 H   0  0  0  0  0  0  0  0  0  0  0  0
    4.8230   -2.0620   -1.2680 H   0  0  0  0  0  0  0  0  0  0  0  0
    3.7480   -3.0080   -0.2420 H   0  0  0  0  0  0  0  0  0  0  0  0
    4.8290    0.8670    1.2410 H   0  0  0  0  0  0  0  0  0  0  0  0
    6.4820   -0.2930   -0.9340 H   0  0  0  0  0  0  0  0  0  0  0  0
    7.0300   -0.9780    0.5950 H   0  0  0  0  0  0  0  0  0  0  0  0
    6.7340    2.0650    0.0370 H   0  0  0  0  0  0  0  0  0  0  0  0
    7.3160    1.3760    1.5500 H   0  0  0  0  0  0  0  0  0  0  0  0
    8.7660    2.9040   -1.4350 H   0  0  0  0  0  0  0  0  0  0  0  0
   11.3350    1.8980   -1.8510 H   0  0  0  0  0  0  0  0  0  0  0  0
    9.6100   -0.7400    0.7900 H   0  0  0  0  0  0  0  0  0  0  0  0
    2.7510   -0.1640    1.8560 H   0  0  0  0  0  0  0  0  0  0  0  0
    2.5580   -1.8810    1.5830 H   0  0  0  0  0  0  0  0  0  0  0  0
    2.1230    0.3300   -0.5590 H   0  0  0  0  0  0  0  0  0  0  0  0
    1.9630   -1.3760   -0.8970 H   0  0  0  0  0  0  0  0  0  0  0  0
    0.1840    0.3920    0.8860 H   0  0  0  0  0  0  0  0  0  0  0  0
    0.9460   -3.3030    0.2680 H   0  0  0  0  0  0  0  0  0  0  0  0
   -0.7570   -3.7230    0.1560 H   0  0  0  0  0  0  0  0  0  0  0  0
    0.0300   -2.9090   -1.1950 H   0  0  0  0  0  0  0  0  0  0  0  0
   -1.9830   -2.3020    1.7120 H   0  0  0  0  0  0  0  0  0  0  0  0
   -1.8600   -0.5580    1.6440 H   0  0  0  0  0  0  0  0  0  0  0  0
   -2.5420   -0.5780   -0.8100 H   0  0  0  0  0  0  0  0  0  0  0  0
   -2.6530   -2.3340   -0.7720 H   0  0  0  0  0  0  0  0  0  0  0  0
   -4.4470   -2.2420    0.9860 H   0  0  0  0  0  0  0  0  0  0  0  0
   -4.2690   -0.4990    1.1350 H   0  0  0  0  0  0  0  0  0  0  0  0
   -4.9310   -0.1900   -1.2980 H   0  0  0  0  0  0  0  0  0  0  0  0
   -5.3570   -3.2570   -1.1630 H   0  0  0  0  0  0  0  0  0  0  0  0
   -6.1180   -2.2190   -2.3720 H   0  0  0  0  0  0  0  0  0  0  0  0
   -4.3670   -2.3530   -2.3140 H   0  0  0  0  0  0  0  0  0  0  0  0
   -7.0200   -1.8560    0.3200 H   0  0  0  0  0  0  0  0  0  0  0  0
   -9.1440   -0.2790    1.0590 H   0  0  0  0  0  0  0  0  0  0  0  0
   -9.6290    3.4300    1.5360 H   0  0  0  0  0  0  0  0  0  0  0  0
  -10.4180    3.0720   -0.0060 H   0  0  0  0  0  0  0  0  0  0  0  0
  -10.6910    2.0160    1.3940 H   0  0  0  0  0  0  0  0  0  0  0  0
  1 30  1  0
  1 31  1  0
  1 29  1  0
  1  2  1  0
  2  3  2  0
  2 11  1  0
  3  4  1  0
  3 32  1  0
  4 33  1  0
  4  5  1  0
  4 34  1  0
  5  6  1  0
  5 35  1  0
  5 36  1  0
  6  7  1  0
  6 10  2  0
  7 37  1  0
  7  8  2  0
  8 38  1  0
  8  9  1  0
  9 10  1  0
 10 39  1  0
 11 12  1  0
 11 41  1  0
 11 40  1  0
 12 43  1  0
 12 42  1  0
 12 13  1  0
 13 14  2  0
 13 44  1  0
 14 15  1  0
 14 16  1  0
 15 47  1  0
 15 46  1  0
 15 45  1  0
 16 17  1  0
 16 49  1  0
 16 48  1  0
 17 50  1  0
 17 51  1  0
 17 18  1  0
 18 19  1  0
 18 52  1  0
 18 53  1  0
 19 20  1  0
 19 54  1  6
 19 21  1  0
 20 56  1  0
 20 57  1  0
 20 55  1  0
 21 22  2  0
 21 58  1  0
 22 28  1  0
 22 23  1  0
 23 24  2  0
 23 59  1  0
 24 26  1  0
 24 25  1  0
 25 61  1  0
 25 62  1  0
 25 60  1  0
 26 27  2  0
 26 28  1  0
M  END
>  <id>  (632) 
736

>  <scaffolds>  (632) 
['c1ccoc1']

>  <name>  (632) 
22-Deoxyvariabilin

>  <formula>  (632) 
C25H34O3

>  <SMILES>  (632) 
CC(=CCCc1ccoc1)CCC=C(C)CCCC(C)C=c2cc(C)c(=O)o2

>  <ChEMBL_id>  (632) 


>  <ZINC_id>  (632) 


>  <PubChem_id>  (632) 


>  <DrugBank_id>  (632) 


>  <CAS_no>  (632) 
133084-62-5

>  <references>  (632) 
[{'journal': {'name': 'Journal of Natural Products', 'id': 5}, 'title': 'A New Furanosesterterpene from the South African Nudibranch Hypselodoris capensis and a Dictyoceratida Sponge', 'year': 1998, 'start_page': 961, 'volume': 61, 'issue': 7, 'doi': '10.1021/np980051y', 'isbn': '', 'despositor': {'code': 'TMM', 'first_name': 'Thommas', 'last_name': 'Musyoka', 'id': 22}, 'refauthors_set': [{'author': {'first_name': 'Kerry', 'initials': 'KL', 'last_name': 'McPhail', 'id': 483}, 'first_author': True, 'id': 637}, {'author': {'first_name': 'Michael', 'initials': 'MT', 'last_name': 'Davies-Coleman', 'id': 449}, 'first_author': False, 'id': 695}, {'author': {'first_name': 'Philip', 'initials': 'PS', 'last_name': 'Coetzee', 'id': 451}, 'first_author': False, 'id': 696}], 'id': 243}]

>  <classifications>  (632) 
[{'classification': 'Sesterterpene', 'id': 869}, {'classification': 'Phenol lipids (Classyfire)', 'id': 951}]

>  <molecular_mass>  (632) 
382.53

$$$$
SANC00737_minRM1.pdb
     RDKit          3D

 63 64  0  0  1  0  0  0  0  0999 V2000
    4.3150    1.9130    1.6500 C   0  0  0  0  0  0  0  0  0  0  0  0
    4.1160    1.6820    0.1950 C   0  0  0  0  0  0  0  0  0  0  0  0
    5.0150    1.0310   -0.5490 C   0  0  0  0  0  0  0  0  0  0  0  0
    6.2840    0.4930    0.0140 C   0  0  0  0  0  0  0  0  0  0  0  0
    7.0560   -0.3240   -1.0240 C   0  0  0  0  0  0  0  0  0  0  0  0
    8.2980   -0.8530   -0.4300 C   0  0  0  0  0  0  0  0  0  0  0  0
    9.3950   -0.0670    0.0670 C   0  0  0  0  0  0  0  0  0  0  0  0
   10.3280   -0.9650    0.5200 C   0  0  0  0  0  0  0  0  0  0  0  0
    9.8870   -2.2500    0.3390 O   0  0  0  0  0  0  0  0  0  0  0  0
    8.6470   -2.1660   -0.2410 C   0  0  0  0  0  0  0  0  0  0  0  0
    2.8510    2.2150   -0.3940 C   0  0  0  0  0  0  0  0  0  0  0  0
    1.6380    1.4340    0.1160 C   0  0  0  0  0  0  0  0  0  0  0  0
    1.6690    0.0140   -0.3300 C   0  0  0  0  0  0  0  0  0  0  0  0
    0.6450   -0.8300   -0.1880 C   0  0  0  0  0  0  0  0  0  0  0  0
    0.7480   -2.2490   -0.6270 C   0  0  0  0  0  0  0  0  0  0  0  0
   -0.6680   -0.4490    0.4150 C   0  0  0  0  0  0  0  0  0  0  0  0
   -1.6260    0.0270   -0.6790 C   0  0  0  0  0  0  0  0  0  0  0  0
   -2.9720    0.4170   -0.0750 C   0  0  0  0  0  0  0  0  0  0  0  0
   -3.8960    1.0610   -1.1180 C   0  0  1  0  0  0  0  0  0  0  0  0
   -4.1980    0.1210   -2.2780 C   0  0  0  0  0  0  0  0  0  0  0  0
   -5.1500    1.4980   -0.4320 C   0  0  0  0  0  0  0  0  0  0  0  0
   -6.1060    0.6520   -0.0460 C   0  0  0  0  0  0  0  0  0  0  0  0
   -6.2510   -0.8060   -0.1570 C   0  0  0  0  0  0  0  0  0  0  0  0
   -7.4180   -1.1480    0.4160 C   0  0  0  0  0  0  0  0  0  0  0  0
   -8.0410   -2.4810    0.5960 C   0  0  0  0  0  0  0  0  0  0  0  0
   -7.4700   -3.4260   -0.2540 O   0  0  0  0  0  0  0  0  0  0  0  0
   -8.0520    0.0940    0.9110 C   0  0  0  0  0  0  0  0  0  0  0  0
   -9.0880    0.3220    1.4860 O   0  0  0  0  0  0  0  0  0  0  0  0
   -7.2250    1.1620    0.6050 O   0  0  0  0  0  0  0  0  0  0  0  0
    5.2950    2.3660    1.8680 H   0  0  0  0  0  0  0  0  0  0  0  0
    3.5670    2.5860    2.0950 H   0  0  0  0  0  0  0  0  0  0  0  0
    4.2650    0.9710    2.2170 H   0  0  0  0  0  0  0  0  0  0  0  0
    4.8480    0.8730   -1.6200 H   0  0  0  0  0  0  0  0  0  0  0  0
    6.0780   -0.1340    0.9100 H   0  0  0  0  0  0  0  0  0  0  0  0
    6.9160    1.3270    0.3910 H   0  0  0  0  0  0  0  0  0  0  0  0
    6.4280   -1.1500   -1.4200 H   0  0  0  0  0  0  0  0  0  0  0  0
    7.3040    0.2980   -1.9110 H   0  0  0  0  0  0  0  0  0  0  0  0
    9.4550    1.0120    0.0690 H   0  0  0  0  0  0  0  0  0  0  0  0
   11.3050   -0.8700    0.9750 H   0  0  0  0  0  0  0  0  0  0  0  0
    8.1640   -3.1120   -0.4490 H   0  0  0  0  0  0  0  0  0  0  0  0
    2.8730    2.1980   -1.5050 H   0  0  0  0  0  0  0  0  0  0  0  0
    2.7470    3.2940   -0.1450 H   0  0  0  0  0  0  0  0  0  0  0  0
    1.5870    1.4750    1.2270 H   0  0  0  0  0  0  0  0  0  0  0  0
    0.7090    1.9380   -0.2290 H   0  0  0  0  0  0  0  0  0  0  0  0
    2.6100   -0.3270   -0.7780 H   0  0  0  0  0  0  0  0  0  0  0  0
   -0.0810   -2.5340   -1.2920 H   0  0  0  0  0  0  0  0  0  0  0  0
    0.7160   -2.9340    0.2350 H   0  0  0  0  0  0  0  0  0  0  0  0
    1.6750   -2.4780   -1.1720 H   0  0  0  0  0  0  0  0  0  0  0  0
   -0.5450    0.3250    1.2010 H   0  0  0  0  0  0  0  0  0  0  0  0
   -1.1070   -1.3100    0.9640 H   0  0  0  0  0  0  0  0  0  0  0  0
   -1.7540   -0.7700   -1.4400 H   0  0  0  0  0  0  0  0  0  0  0  0
   -1.1830    0.8780   -1.2370 H   0  0  0  0  0  0  0  0  0  0  0  0
   -2.8270    1.1240    0.7700 H   0  0  0  0  0  0  0  0  0  0  0  0
   -3.4590   -0.4680    0.3850 H   0  0  0  0  0  0  0  0  0  0  0  0
   -3.3910    1.9740   -1.5330 H   0  0  0  0  0  0  0  0  0  0  0  0
   -4.4140   -0.9090   -1.9500 H   0  0  0  0  0  0  0  0  0  0  0  0
   -3.3590    0.0540   -2.9850 H   0  0  0  0  0  0  0  0  0  0  0  0
   -5.0660    0.4580   -2.8620 H   0  0  0  0  0  0  0  0  0  0  0  0
   -5.2550    2.5700   -0.2310 H   0  0  0  0  0  0  0  0  0  0  0  0
   -5.5100   -1.4450   -0.6340 H   0  0  0  0  0  0  0  0  0  0  0  0
   -9.1500   -2.4130    0.4920 H   0  0  0  0  0  0  0  0  0  0  0  0
   -7.8440   -2.8680    1.6230 H   0  0  0  0  0  0  0  0  0  0  0  0
   -7.7220   -3.2030   -1.1560 H   0  0  0  0  0  0  0  0  0  0  0  0
  1  2  1  0
  1 30  1  0
  1 31  1  0
  1 32  1  0
  2  3  2  0
  2 11  1  0
  3 33  1  0
  3  4  1  0
  4  5  1  0
  4 35  1  0
  4 34  1  0
  5 37  1  0
  5 36  1  0
  5  6  1  0
  6 10  2  0
  6  7  1  0
  7 38  1  0
  7  8  2  0
  8  9  1  0
  8 39  1  0
  9 10  1  0
 10 40  1  0
 11 41  1  0
 11 42  1  0
 11 12  1  0
 12 13  1  0
 12 44  1  0
 12 43  1  0
 13 45  1  0
 13 14  2  0
 14 15  1  0
 14 16  1  0
 15 46  1  0
 15 48  1  0
 15 47  1  0
 16 17  1  0
 16 50  1  0
 16 49  1  0
 17 51  1  0
 17 52  1  0
 17 18  1  0
 18 19  1  0
 18 54  1  0
 18 53  1  0
 19 20  1  0
 19 55  1  6
 19 21  1  0
 20 57  1  0
 20 58  1  0
 20 56  1  0
 21 59  1  0
 21 22  2  0
 22 23  1  0
 22 29  1  0
 23 60  1  0
 23 24  2  0
 24 25  1  0
 24 27  1  0
 25 26  1  0
 25 61  1  0
 25 62  1  0
 26 63  1  0
 27 29  1  0
 27 28  2  0
M  END
>  <id>  (633) 
737

>  <scaffolds>  (633) 
['c1ccoc1']

>  <name>  (633) 
22-Deoxy-23-hydroxymethylvariabilin

>  <formula>  (633) 
C25H34O4

>  <SMILES>  (633) 
CC(=CCCc1ccoc1)CCC=C(C)CCCC(C)C=c2cc(CO)c(=O)o2

>  <ChEMBL_id>  (633) 


>  <ZINC_id>  (633) 


>  <PubChem_id>  (633) 


>  <DrugBank_id>  (633) 


>  <CAS_no>  (633) 
211946-79-1

>  <references>  (633) 
[{'journal': {'name': 'Journal of Natural Products', 'id': 5}, 'title': 'A New Furanosesterterpene from the South African Nudibranch Hypselodoris capensis and a Dictyoceratida Sponge', 'year': 1998, 'start_page': 961, 'volume': 61, 'issue': 7, 'doi': '10.1021/np980051y', 'isbn': '', 'despositor': {'code': 'TMM', 'first_name': 'Thommas', 'last_name': 'Musyoka', 'id': 22}, 'refauthors_set': [{'author': {'first_name': 'Kerry', 'initials': 'KL', 'last_name': 'McPhail', 'id': 483}, 'first_author': True, 'id': 637}, {'author': {'first_name': 'Michael', 'initials': 'MT', 'last_name': 'Davies-Coleman', 'id': 449}, 'first_author': False, 'id': 695}, {'author': {'first_name': 'Philip', 'initials': 'PS', 'last_name': 'Coetzee', 'id': 451}, 'first_author': False, 'id': 696}], 'id': 243}]

>  <classifications>  (633) 
[{'classification': 'Sesterterpene', 'id': 869}, {'classification': 'Phenol lipids (Classyfire)', 'id': 951}]

>  <molecular_mass>  (633) 
398.53

$$$$
SANC00738_minRM1.pdb
     RDKit          3D

 64 64  0  0  0  0  0  0  0  0999 V2000
   -6.6100    2.3310    1.5020 C   0  0  0  0  0  0  0  0  0  0  0  0
   -5.2250    1.8560    1.2420 C   0  0  0  0  0  0  0  0  0  0  0  0
   -4.1890    2.3230    2.2000 C   0  0  0  0  0  0  0  0  0  0  0  0
   -4.9230    1.0620    0.2110 C   0  0  0  0  0  0  0  0  0  0  0  0
   -5.9480    0.5790   -0.7540 C   0  0  0  0  0  0  0  0  0  0  0  0
   -5.3200   -0.2070   -1.9070 C   0  0  0  0  0  0  0  0  0  0  0  0
   -4.6380   -1.4350   -1.3990 C   0  0  0  0  0  0  0  0  0  0  0  0
   -5.5190   -2.5030   -0.8590 C   0  0  0  0  0  0  0  0  0  0  0  0
   -3.3070   -1.5540   -1.4210 C   0  0  0  0  0  0  0  0  0  0  0  0
   -2.5990   -2.7580   -0.9090 C   0  0  0  0  0  0  0  0  0  0  0  0
   -1.0820   -2.5660   -0.9110 C   0  0  0  0  0  0  0  0  0  0  0  0
   -0.6880   -1.3830   -0.0900 C   0  0  0  0  0  0  0  0  0  0  0  0
   -1.0470   -1.4560    1.3540 C   0  0  0  0  0  0  0  0  0  0  0  0
   -0.0660   -0.3120   -0.5860 C   0  0  0  0  0  0  0  0  0  0  0  0
    0.2840   -0.1360   -2.0220 C   0  0  0  0  0  0  0  0  0  0  0  0
    1.6820    0.4650   -2.1740 C   0  0  0  0  0  0  0  0  0  0  0  0
    2.7140   -0.3340   -1.4500 C   0  0  0  0  0  0  0  0  0  0  0  0
    2.7220   -1.7930   -1.7460 C   0  0  0  0  0  0  0  0  0  0  0  0
    3.5930    0.1970   -0.5980 C   0  0  0  0  0  0  0  0  0  0  0  0
    3.6600    1.6450   -0.2570 C   0  0  0  0  0  0  0  0  0  0  0  0
    3.8550    1.8400    1.2480 C   0  0  0  0  0  0  0  0  0  0  0  0
    5.1820    1.3580    1.6700 C   0  0  0  0  0  0  0  0  0  0  0  0
    6.4440    1.9380    1.2950 C   0  0  0  0  0  0  0  0  0  0  0  0
    7.4070    1.1820    1.9120 C   0  0  0  0  0  0  0  0  0  0  0  0
    6.8320    0.1740    2.6420 O   0  0  0  0  0  0  0  0  0  0  0  0
    5.4750    0.2930    2.4850 C   0  0  0  0  0  0  0  0  0  0  0  0
   -6.9740    2.9820    0.6920 H   0  0  0  0  0  0  0  0  0  0  0  0
   -7.3230    1.4970    1.5890 H   0  0  0  0  0  0  0  0  0  0  0  0
   -6.7010    2.9120    2.4320 H   0  0  0  0  0  0  0  0  0  0  0  0
   -4.1410    3.4230    2.2350 H   0  0  0  0  0  0  0  0  0  0  0  0
   -3.1740    1.9720    1.9610 H   0  0  0  0  0  0  0  0  0  0  0  0
   -4.4060    1.9790    3.2230 H   0  0  0  0  0  0  0  0  0  0  0  0
   -3.8950    0.7250    0.0430 H   0  0  0  0  0  0  0  0  0  0  0  0
   -6.5280    1.4360   -1.1640 H   0  0  0  0  0  0  0  0  0  0  0  0
   -6.7040   -0.0420   -0.2250 H   0  0  0  0  0  0  0  0  0  0  0  0
   -4.6250    0.4470   -2.4770 H   0  0  0  0  0  0  0  0  0  0  0  0
   -6.0960   -0.4870   -2.6520 H   0  0  0  0  0  0  0  0  0  0  0  0
   -6.5860   -2.3400   -1.0710 H   0  0  0  0  0  0  0  0  0  0  0  0
   -5.4260   -2.5830    0.2350 H   0  0  0  0  0  0  0  0  0  0  0  0
   -5.2770   -3.4930   -1.2750 H   0  0  0  0  0  0  0  0  0  0  0  0
   -2.6750   -0.7540   -1.8230 H   0  0  0  0  0  0  0  0  0  0  0  0
   -2.9550   -3.0180    0.1120 H   0  0  0  0  0  0  0  0  0  0  0  0
   -2.8620   -3.6440   -1.5290 H   0  0  0  0  0  0  0  0  0  0  0  0
   -0.7080   -2.4790   -1.9570 H   0  0  0  0  0  0  0  0  0  0  0  0
   -0.5770   -3.4750   -0.5180 H   0  0  0  0  0  0  0  0  0  0  0  0
   -1.0030   -2.4810    1.7510 H   0  0  0  0  0  0  0  0  0  0  0  0
   -0.3870   -0.8510    1.9940 H   0  0  0  0  0  0  0  0  0  0  0  0
   -2.0720   -1.0900    1.5200 H   0  0  0  0  0  0  0  0  0  0  0  0
    0.2150    0.5240    0.0640 H   0  0  0  0  0  0  0  0  0  0  0  0
    0.1990   -1.0890   -2.5930 H   0  0  0  0  0  0  0  0  0  0  0  0
   -0.4700    0.5300   -2.4980 H   0  0  0  0  0  0  0  0  0  0  0  0
    1.9590    0.5300   -3.2480 H   0  0  0  0  0  0  0  0  0  0  0  0
    1.6750    1.5250   -1.8270 H   0  0  0  0  0  0  0  0  0  0  0  0
    3.6570   -2.2930   -1.4550 H   0  0  0  0  0  0  0  0  0  0  0  0
    2.5840   -1.9980   -2.8190 H   0  0  0  0  0  0  0  0  0  0  0  0
    1.9090   -2.3080   -1.2100 H   0  0  0  0  0  0  0  0  0  0  0  0
    4.3450   -0.4290   -0.1030 H   0  0  0  0  0  0  0  0  0  0  0  0
    2.7480    2.1900   -0.5920 H   0  0  0  0  0  0  0  0  0  0  0  0
    4.4920    2.1170   -0.8240 H   0  0  0  0  0  0  0  0  0  0  0  0
    3.0480    1.3250    1.8130 H   0  0  0  0  0  0  0  0  0  0  0  0
    3.7500    2.9140    1.5150 H   0  0  0  0  0  0  0  0  0  0  0  0
    6.5820    2.7980    0.6550 H   0  0  0  0  0  0  0  0  0  0  0  0
    8.4880    1.2160    1.9390 H   0  0  0  0  0  0  0  0  0  0  0  0
    4.8780   -0.4410    3.0080 H   0  0  0  0  0  0  0  0  0  0  0  0
  1 27  1  0
  1  2  1  0
  1 28  1  0
  1 29  1  0
  2  4  2  0
  2  3  1  0
  3 31  1  0
  3 30  1  0
  3 32  1  0
  4  5  1  0
  4 33  1  0
  5  6  1  0
  5 34  1  0
  5 35  1  0
  6 37  1  0
  6 36  1  0
  6  7  1  0
  7  9  2  0
  7  8  1  0
  8 40  1  0
  8 38  1  0
  8 39  1  0
  9 41  1  0
  9 10  1  0
 10 43  1  0
 10 11  1  0
 10 42  1  0
 11 44  1  0
 11 45  1  0
 11 12  1  0
 12 14  2  0
 12 13  1  0
 13 48  1  0
 13 46  1  0
 13 47  1  0
 14 15  1  0
 14 49  1  0
 15 50  1  0
 15 51  1  0
 15 16  1  0
 16 52  1  0
 16 53  1  0
 16 17  1  0
 17 18  1  0
 17 19  2  0
 18 55  1  0
 18 54  1  0
 18 56  1  0
 19 20  1  0
 19 57  1  0
 20 59  1  0
 20 58  1  0
 20 21  1  0
 21 61  1  0
 21 22  1  0
 21 60  1  0
 22 23  1  0
 22 26  2  0
 23 62  1  0
 23 24  2  0
 24 63  1  0
 24 25  1  0
 25 26  1  0
 26 64  1  0
M  END
>  <id>  (634) 
738

>  <scaffolds>  (634) 
['c1ccoc1']

>  <name>  (634) 
Furospinosulin 1

>  <formula>  (634) 
C25H38O

>  <SMILES>  (634) 
CC(C)=CCCC(C)=CCCC(C)=CCCC(C)=CCCc1ccoc1

>  <ChEMBL_id>  (634) 
CHEMBL3236717

>  <ZINC_id>  (634) 


>  <PubChem_id>  (634) 
15930585

>  <DrugBank_id>  (634) 


>  <CAS_no>  (634) 
35890-95-0

>  <references>  (634) 
[{'journal': {'name': 'Journal of Natural Products', 'id': 5}, 'title': 'A New Furanosesterterpene from the South African Nudibranch Hypselodoris capensis and a Dictyoceratida Sponge', 'year': 1998, 'start_page': 961, 'volume': 61, 'issue': 7, 'doi': '10.1021/np980051y', 'isbn': '', 'despositor': {'code': 'TMM', 'first_name': 'Thommas', 'last_name': 'Musyoka', 'id': 22}, 'refauthors_set': [{'author': {'first_name': 'Kerry', 'initials': 'KL', 'last_name': 'McPhail', 'id': 483}, 'first_author': True, 'id': 637}, {'author': {'first_name': 'Michael', 'initials': 'MT', 'last_name': 'Davies-Coleman', 'id': 449}, 'first_author': False, 'id': 695}, {'author': {'first_name': 'Philip', 'initials': 'PS', 'last_name': 'Coetzee', 'id': 451}, 'first_author': False, 'id': 696}], 'id': 243}]

>  <classifications>  (634) 
[{'classification': 'Prenylated furan derivative', 'id': 870}, {'classification': 'Phenol lipids (Classyfire)', 'id': 951}]

>  <molecular_mass>  (634) 
354.569

$$$$
SANC00739_minRM1.pdb
     RDKit          3D

 36 37  0  0  0  0  0  0  0  0999 V2000
    2.8140   -2.4780    1.1410 C   0  0  0  0  0  0  0  0  0  0  0  0
    2.0580   -1.5100    0.2810 C   0  0  0  0  0  0  0  0  0  0  0  0
    0.8900   -1.8990   -0.2320 C   0  0  0  0  0  0  0  0  0  0  0  0
   -0.0530   -1.1580   -1.1170 C   0  0  0  0  0  0  0  0  0  0  0  0
   -1.1260   -0.5450   -0.3130 C   0  0  0  0  0  0  0  0  0  0  0  0
   -2.5210   -0.9010   -0.3270 C   0  0  0  0  0  0  0  0  0  0  0  0
   -3.1390   -1.9580   -1.1370 C   0  0  0  0  0  0  0  0  0  0  0  0
   -3.1410   -0.0590    0.5610 C   0  0  0  0  0  0  0  0  0  0  0  0
   -2.2300    0.7970    1.1260 O   0  0  0  0  0  0  0  0  0  0  0  0
   -1.0070    0.4870    0.5840 C   0  0  0  0  0  0  0  0  0  0  0  0
    0.1440    1.2780    1.0620 C   0  0  0  0  0  0  0  0  0  0  0  0
    0.6560    2.1360   -0.0480 C   0  0  0  0  0  0  0  0  0  0  0  0
   -0.0770    3.4340   -0.1520 C   0  0  0  0  0  0  0  0  0  0  0  0
    1.6460    1.8650   -0.8990 C   0  0  0  0  0  0  0  0  0  0  0  0
    2.4950    0.6510   -1.0610 C   0  0  0  0  0  0  0  0  0  0  0  0
    2.7640   -0.1960    0.1750 C   0  0  0  0  0  0  0  0  0  0  0  0
    3.1620   -2.0150    2.0770 H   0  0  0  0  0  0  0  0  0  0  0  0
    3.7050   -2.8590    0.6190 H   0  0  0  0  0  0  0  0  0  0  0  0
    2.2310   -3.3610    1.4420 H   0  0  0  0  0  0  0  0  0  0  0  0
    0.5170   -2.9040    0.0120 H   0  0  0  0  0  0  0  0  0  0  0  0
    0.4420   -0.3840   -1.7440 H   0  0  0  0  0  0  0  0  0  0  0  0
   -0.4800   -1.8590   -1.8690 H   0  0  0  0  0  0  0  0  0  0  0  0
   -3.0400   -1.7510   -2.2140 H   0  0  0  0  0  0  0  0  0  0  0  0
   -4.2130   -2.0720   -0.9290 H   0  0  0  0  0  0  0  0  0  0  0  0
   -2.6690   -2.9370   -0.9520 H   0  0  0  0  0  0  0  0  0  0  0  0
   -4.1620    0.0620    0.8940 H   0  0  0  0  0  0  0  0  0  0  0  0
    0.9150    0.5910    1.4740 H   0  0  0  0  0  0  0  0  0  0  0  0
   -0.1340    1.9060    1.9400 H   0  0  0  0  0  0  0  0  0  0  0  0
    0.1980    4.1110    0.6720 H   0  0  0  0  0  0  0  0  0  0  0  0
   -1.1670    3.2890   -0.0980 H   0  0  0  0  0  0  0  0  0  0  0  0
    0.1140    3.9850   -1.0850 H   0  0  0  0  0  0  0  0  0  0  0  0
    1.8900    2.6270   -1.6560 H   0  0  0  0  0  0  0  0  0  0  0  0
    2.0700    0.0350   -1.8870 H   0  0  0  0  0  0  0  0  0  0  0  0
    3.4770    0.9810   -1.4720 H   0  0  0  0  0  0  0  0  0  0  0  0
    2.5580    0.3820    1.1060 H   0  0  0  0  0  0  0  0  0  0  0  0
    3.8630   -0.3770    0.2260 H   0  0  0  0  0  0  0  0  0  0  0  0
  1  2  1  0
  1 18  1  0
  1 19  1  0
  1 17  1  0
  2  3  2  0
  2 16  1  0
  3  4  1  0
  3 20  1  0
  4 22  1  0
  4 21  1  0
  4  5  1  0
  5  6  1  0
  5 10  2  0
  6  7  1  0
  6  8  2  0
  7 23  1  0
  7 25  1  0
  7 24  1  0
  8 26  1  0
  8  9  1  0
  9 10  1  0
 10 11  1  0
 11 12  1  0
 11 27  1  0
 11 28  1  0
 12 14  2  0
 12 13  1  0
 13 31  1  0
 13 30  1  0
 13 29  1  0
 14 32  1  0
 14 15  1  0
 15 33  1  0
 15 34  1  0
 15 16  1  0
 16 36  1  0
 16 35  1  0
M  END
>  <id>  (635) 
739

>  <scaffolds>  (635) 
['c1ccoc1', 'C1=CCc2ccoc2CC=CCC1']

>  <name>  (635) 
Isofuranodiene

>  <formula>  (635) 
C15H20O

>  <SMILES>  (635) 
CC2=CCc1c(C)coc1CC(C)=CCC2

>  <ChEMBL_id>  (635) 
CHEMBL324514

>  <ZINC_id>  (635) 
ZINC06072098

>  <PubChem_id>  (635) 
636458

>  <DrugBank_id>  (635) 


>  <CAS_no>  (635) 
57566-47-9

>  <references>  (635) 
[{'journal': {'name': 'Journal of Natural Products', 'id': 5}, 'title': 'Sequestered Chemistry of the Arminacean Nudibranch Leminda millecra in Algoa Bay, South Africa', 'year': 2001, 'start_page': 1183, 'volume': 64, 'issue': 9, 'doi': '10.1021/np010085x', 'isbn': '', 'despositor': {'code': 'TMM', 'first_name': 'Thommas', 'last_name': 'Musyoka', 'id': 22}, 'refauthors_set': [{'author': {'first_name': 'Kerry', 'initials': 'KL', 'last_name': 'McPhail', 'id': 483}, 'first_author': True, 'id': 639}, {'author': {'first_name': 'Michael', 'initials': 'MT', 'last_name': 'Davies-Coleman', 'id': 449}, 'first_author': False, 'id': 701}, {'author': {'first_name': '', 'initials': 'JA', 'last_name': 'Starmer', 'id': 530}, 'first_author': False, 'id': 702}], 'id': 246}]

>  <classifications>  (635) 
[{'classification': 'Phenol lipids (Classyfire)', 'id': 951}]

>  <molecular_mass>  (635) 
216.319

$$$$
SANC00740_minRM1.pdb
     RDKit          3D

 38 39  0  0  1  0  0  0  0  0999 V2000
    1.9370   -3.4310    0.1550 C   0  0  0  0  0  0  0  0  0  0  0  0
    1.5560   -1.9930    0.1140 C   0  0  0  0  0  0  0  0  0  0  0  0
    2.5610   -1.0370    0.1300 C   0  0  0  0  0  0  0  0  0  0  0  0
    2.1970    0.3110    0.1080 C   0  0  0  0  0  0  0  0  0  0  0  0
    3.2450    1.1730    0.1290 O   0  0  0  0  0  0  0  0  0  0  0  0
    0.8580    0.7120    0.0550 C   0  0  0  0  0  0  0  0  0  0  0  0
   -0.1360   -0.2690    0.0140 C   0  0  0  0  0  0  0  0  0  0  0  0
    0.2170   -1.6120    0.0690 C   0  0  0  0  0  0  0  0  0  0  0  0
   -1.5580    0.2170   -0.0450 C   0  0  1  0  0  0  0  0  0  0  0  0
   -2.6090   -0.8980    0.0710 C   0  0  2  0  0  0  0  0  0  0  0  0
   -2.7110   -1.6460   -1.2610 C   0  0  0  0  0  0  0  0  0  0  0  0
   -3.9980   -0.3590    0.4040 C   0  0  0  0  0  0  0  0  0  0  0  0
   -1.6580    1.2670    1.0660 C   0  0  0  0  0  0  0  0  0  0  0  0
   -0.8370    2.4930    0.6800 C   0  0  0  0  0  0  0  0  0  0  0  0
    0.5140    2.1660    0.0290 C   0  0  2  0  0  0  0  0  0  0  0  0
    0.5650    2.6490   -1.4220 C   0  0  0  0  0  0  0  0  0  0  0  0
    1.0790   -4.1170    0.1170 H   0  0  0  0  0  0  0  0  0  0  0  0
    2.4920   -3.6720    1.0740 H   0  0  0  0  0  0  0  0  0  0  0  0
    2.5900   -3.6970   -0.6910 H   0  0  0  0  0  0  0  0  0  0  0  0
    3.6150   -1.3250    0.1620 H   0  0  0  0  0  0  0  0  0  0  0  0
    2.9120    2.0680    0.2830 H   0  0  0  0  0  0  0  0  0  0  0  0
   -0.5420   -2.3980    0.0940 H   0  0  0  0  0  0  0  0  0  0  0  0
   -1.7180    0.7220   -1.0350 H   0  0  0  0  0  0  0  0  0  0  0  0
   -2.3120   -1.6060    0.8870 H   0  0  0  0  0  0  0  0  0  0  0  0
   -3.2480   -1.0630   -2.0240 H   0  0  0  0  0  0  0  0  0  0  0  0
   -1.7350   -1.8880   -1.7040 H   0  0  0  0  0  0  0  0  0  0  0  0
   -3.2530   -2.5960   -1.1540 H   0  0  0  0  0  0  0  0  0  0  0  0
   -4.0730    0.0160    1.4350 H   0  0  0  0  0  0  0  0  0  0  0  0
   -4.3050    0.4600   -0.2620 H   0  0  0  0  0  0  0  0  0  0  0  0
   -4.7680   -1.1400    0.3140 H   0  0  0  0  0  0  0  0  0  0  0  0
   -2.7020    1.5860    1.2630 H   0  0  0  0  0  0  0  0  0  0  0  0
   -1.3170    0.8390    2.0320 H   0  0  0  0  0  0  0  0  0  0  0  0
   -0.6770    3.1240    1.5800 H   0  0  0  0  0  0  0  0  0  0  0  0
   -1.4410    3.1430    0.0100 H   0  0  0  0  0  0  0  0  0  0  0  0
    1.3020    2.7320    0.6030 H   0  0  0  0  0  0  0  0  0  0  0  0
    1.5350    2.4300   -1.8920 H   0  0  0  0  0  0  0  0  0  0  0  0
    0.4130    3.7350   -1.5030 H   0  0  0  0  0  0  0  0  0  0  0  0
   -0.1990    2.1720   -2.0520 H   0  0  0  0  0  0  0  0  0  0  0  0
  1 19  1  0
  1  2  1  0
  1 17  1  0
  1 18  1  0
  2  8  2  0
  2  3  1  0
  3  4  2  0
  3 20  1  0
  4  6  1  0
  4  5  1  0
  5 21  1  0
  6  7  2  0
  6 15  1  0
  7  9  1  0
  7  8  1  0
  8 22  1  0
  9 23  1  6
  9 10  1  0
  9 13  1  0
 10 11  1  0
 10 12  1  0
 10 24  1  1
 11 25  1  0
 11 26  1  0
 11 27  1  0
 12 29  1  0
 12 30  1  0
 12 28  1  0
 13 14  1  0
 13 31  1  0
 13 32  1  0
 14 34  1  0
 14 15  1  0
 14 33  1  0
 15 16  1  0
 15 35  1  1
 16 38  1  0
 16 36  1  0
 16 37  1  0
M  END
>  <id>  (636) 
740

>  <scaffolds>  (636) 
['c1ccccc1', 'c1ccc2c(c1)CCCC2']

>  <name>  (636) 
(+)-8-Hydroxycalamenene

>  <formula>  (636) 
C15H22O

>  <SMILES>  (636) 
Cc1cc(O)c2c(c1)[C@@H](C(C)C)CC[C@@H]2C

>  <ChEMBL_id>  (636) 


>  <ZINC_id>  (636) 
ZINC04098432

>  <PubChem_id>  (636) 
442519

>  <DrugBank_id>  (636) 


>  <CAS_no>  (636) 
88642-92-6

>  <references>  (636) 
[{'journal': {'name': 'Journal of Natural Products', 'id': 5}, 'title': 'Sequestered Chemistry of the Arminacean Nudibranch Leminda millecra in Algoa Bay, South Africa', 'year': 2001, 'start_page': 1183, 'volume': 64, 'issue': 9, 'doi': '10.1021/np010085x', 'isbn': '', 'despositor': {'code': 'TMM', 'first_name': 'Thommas', 'last_name': 'Musyoka', 'id': 22}, 'refauthors_set': [{'author': {'first_name': 'Kerry', 'initials': 'KL', 'last_name': 'McPhail', 'id': 483}, 'first_author': True, 'id': 639}, {'author': {'first_name': 'Michael', 'initials': 'MT', 'last_name': 'Davies-Coleman', 'id': 449}, 'first_author': False, 'id': 701}, {'author': {'first_name': '', 'initials': 'JA', 'last_name': 'Starmer', 'id': 530}, 'first_author': False, 'id': 702}], 'id': 246}]

>  <classifications>  (636) 
[{'classification': 'Phenol lipids (Classyfire)', 'id': 951}]

>  <molecular_mass>  (636) 
218.33

$$$$
SANC00741_minRM1.pdb
     RDKit          3D

 32 32  0  0  0  0  0  0  0  0999 V2000
    2.5840   -2.3090   -0.5330 C   0  0  0  0  0  0  0  0  0  0  0  0
    1.8020   -1.0880   -0.2100 C   0  0  0  0  0  0  0  0  0  0  0  0
    2.4010    0.1760   -0.0910 C   0  0  0  0  0  0  0  0  0  0  0  0
    3.7520    0.1720   -0.2430 O   0  0  0  0  0  0  0  0  0  0  0  0
    4.4260    1.4060   -0.2420 C   0  0  0  0  0  0  0  0  0  0  0  0
    1.6570    1.3270    0.1680 C   0  0  0  0  0  0  0  0  0  0  0  0
    0.2750    1.1970    0.3310 C   0  0  0  0  0  0  0  0  0  0  0  0
   -0.5220    2.2610    0.5820 O   0  0  0  0  0  0  0  0  0  0  0  0
   -0.3630   -0.0390    0.2660 C   0  0  0  0  0  0  0  0  0  0  0  0
   -1.8140   -0.1860    0.5100 C   0  0  0  0  0  0  0  0  0  0  0  0
   -2.7210    0.5910   -0.4070 C   0  0  0  0  0  0  0  0  0  0  0  0
   -4.0100   -0.1780   -0.6850 C   0  0  0  0  0  0  0  0  0  0  0  0
   -4.9080    0.6100   -1.6240 C   0  0  0  0  0  0  0  0  0  0  0  0
   -2.2250   -0.8940    1.4080 O   0  0  0  0  0  0  0  0  0  0  0  0
    0.4210   -1.1670   -0.0070 C   0  0  0  0  0  0  0  0  0  0  0  0
   -0.2730   -2.3200   -0.1350 O   0  0  0  0  0  0  0  0  0  0  0  0
    2.7310   -2.9420    0.3560 H   0  0  0  0  0  0  0  0  0  0  0  0
    3.5890   -2.1040   -0.9300 H   0  0  0  0  0  0  0  0  0  0  0  0
    2.0950   -2.9230   -1.3070 H   0  0  0  0  0  0  0  0  0  0  0  0
    4.3730    1.9280    0.7280 H   0  0  0  0  0  0  0  0  0  0  0  0
    5.4730    1.1200   -0.4290 H   0  0  0  0  0  0  0  0  0  0  0  0
    4.0970    2.0870   -1.0440 H   0  0  0  0  0  0  0  0  0  0  0  0
    2.1190    2.3110    0.2510 H   0  0  0  0  0  0  0  0  0  0  0  0
    0.0210    3.0520    0.6720 H   0  0  0  0  0  0  0  0  0  0  0  0
   -2.9400    1.5750    0.0620 H   0  0  0  0  0  0  0  0  0  0  0  0
   -2.1980    0.8370   -1.3540 H   0  0  0  0  0  0  0  0  0  0  0  0
   -4.5420   -0.3990    0.2650 H   0  0  0  0  0  0  0  0  0  0  0  0
   -3.7760   -1.1740   -1.1150 H   0  0  0  0  0  0  0  0  0  0  0  0
   -5.8460    0.0750   -1.8330 H   0  0  0  0  0  0  0  0  0  0  0  0
   -4.4320    0.8020   -2.5960 H   0  0  0  0  0  0  0  0  0  0  0  0
   -5.1890    1.5890   -1.2090 H   0  0  0  0  0  0  0  0  0  0  0  0
    0.2810   -3.0590    0.1440 H   0  0  0  0  0  0  0  0  0  0  0  0
  1 19  1  0
  1 18  1  0
  1  2  1  0
  1 17  1  0
  2  3  2  0
  2 15  1  0
  3  4  1  0
  3  6  1  0
  4  5  1  0
  5 22  1  0
  5 21  1  0
  5 20  1  0
  6 23  1  0
  6  7  2  0
  7  9  1  0
  7  8  1  0
  8 24  1  0
  9 15  2  0
  9 10  1  0
 10 11  1  0
 10 14  2  0
 11 26  1  0
 11 12  1  0
 11 25  1  0
 12 13  1  0
 12 28  1  0
 12 27  1  0
 13 30  1  0
 13 29  1  0
 13 31  1  0
 15 16  1  0
 16 32  1  0
M  END
>  <id>  (637) 
741

>  <scaffolds>  (637) 
['c1ccccc1']

>  <name>  (637) 
Aspidinol

>  <formula>  (637) 
C12H16O4

>  <SMILES>  (637) 
CC1=C(OC)C=C(O)C(C(CCC)=O)=C1O

>  <ChEMBL_id>  (637) 
CHEMBL214690

>  <ZINC_id>  (637) 


>  <PubChem_id>  (637) 
122841

>  <DrugBank_id>  (637) 


>  <CAS_no>  (637) 
519-40-4

>  <references>  (637) 
[{'journal': {'name': 'South African Journal of Botany', 'id': 1}, 'title': 'Isolation of an anthelmintic compound from Leucosidae sericea', 'year': 2004, 'start_page': 509, 'volume': 70, 'issue': 4, 'doi': '10.1016/S0254-6299(15)30189-7', 'isbn': '', 'despositor': {'code': 'GU2', 'first_name': 'Gugu', 'last_name': 'Mahlangu', 'id': 24}, 'refauthors_set': [{'author': {'first_name': '', 'initials': 'AA', 'last_name': 'Bosman', 'id': 882}, 'first_author': True, 'id': 1451}, {'author': {'first_name': '', 'initials': 'S', 'last_name': 'Combrinck', 'id': 883}, 'first_author': None, 'id': 1452}, {'author': {'first_name': '', 'initials': 'R', 'last_name': 'Roux-van der Merwe', 'id': 884}, 'first_author': None, 'id': 1453}, {'author': {'first_name': '', 'initials': 'BM', 'last_name': 'Botha', 'id': 885}, 'first_author': None, 'id': 1454}, {'author': {'first_name': '', 'initials': 'RI', 'last_name': 'McCrindle', 'id': 886}, 'first_author': None, 'id': 1455}], 'id': 414}, {'journal': {'name': 'South African Journal of Botany', 'id': 1}, 'title': 'Potential of South African medicinal plants used as anthelmintics – Their efficacy, safety concerns and reappraisal of current screening methods', 'year': 2012, 'start_page': 134, 'volume': 82, 'issue': None, 'doi': '10.1016/j.sajb.2012.05.007', 'isbn': '', 'despositor': {'code': 'GU2', 'first_name': 'Gugu', 'last_name': 'Mahlangu', 'id': 24}, 'refauthors_set': [{'author': {'first_name': '', 'initials': 'AO', 'last_name': 'Aremu', 'id': 887}, 'first_author': True, 'id': 1456}, {'author': {'first_name': '', 'initials': 'JF', 'last_name': 'Finnie', 'id': 888}, 'first_author': None, 'id': 1457}, {'author': {'first_name': 'Johannes', 'initials': 'J', 'last_name': 'Van Staden', 'id': 489}, 'first_author': None, 'id': 1458}], 'id': 415}]

>  <classifications>  (637) 
[{'classification': 'Phloroglucinol', 'id': 871}, {'classification': 'Organooxygen compounds (Classyfire)', 'id': 954}]

>  <molecular_mass>  (637) 
224.253

$$$$
SANC00742_minRM1.pdb
     RDKit          3D

 29 29  0  0  0  0  0  0  0  0999 V2000
   -4.4670   -0.6310    1.8140 C   0  0  0  0  0  0  0  0  0  0  0  0
   -3.6190    0.1660    0.8370 C   0  0  0  0  0  0  0  0  0  0  0  0
   -2.5470   -0.7260    0.2100 C   0  0  0  0  0  0  0  0  0  0  0  0
   -1.7170    0.0920   -0.7500 C   0  0  0  0  0  0  0  0  0  0  0  0
   -0.2710    0.1510   -0.4970 C   0  0  0  0  0  0  0  0  0  0  0  0
    0.4920   -1.0160   -0.3710 C   0  0  0  0  0  0  0  0  0  0  0  0
   -0.0150   -2.2550   -0.5710 O   0  0  0  0  0  0  0  0  0  0  0  0
    1.8400   -1.0000   -0.0100 C   0  0  0  0  0  0  0  0  0  0  0  0
    2.4360    0.2410    0.2100 C   0  0  0  0  0  0  0  0  0  0  0  0
    3.7300    0.4220    0.5820 O   0  0  0  0  0  0  0  0  0  0  0  0
    4.5210   -0.7230    0.7850 C   0  0  0  0  0  0  0  0  0  0  0  0
    1.7370    1.4400    0.0400 C   0  0  0  0  0  0  0  0  0  0  0  0
    0.3930    1.3760   -0.3280 C   0  0  0  0  0  0  0  0  0  0  0  0
   -0.2010    2.5810   -0.4400 O   0  0  0  0  0  0  0  0  0  0  0  0
   -2.2330    0.6970   -1.6740 O   0  0  0  0  0  0  0  0  0  0  0  0
   -4.9830   -1.4720    1.3300 H   0  0  0  0  0  0  0  0  0  0  0  0
   -5.2450   -0.0080    2.2770 H   0  0  0  0  0  0  0  0  0  0  0  0
   -3.8720   -1.0540    2.6370 H   0  0  0  0  0  0  0  0  0  0  0  0
   -3.1470    1.0300    1.3520 H   0  0  0  0  0  0  0  0  0  0  0  0
   -4.2590    0.6170    0.0490 H   0  0  0  0  0  0  0  0  0  0  0  0
   -1.9220   -1.1920    0.9990 H   0  0  0  0  0  0  0  0  0  0  0  0
   -3.0200   -1.5750   -0.3290 H   0  0  0  0  0  0  0  0  0  0  0  0
   -0.8000   -2.1990   -1.1280 H   0  0  0  0  0  0  0  0  0  0  0  0
    2.3760   -1.9460    0.0820 H   0  0  0  0  0  0  0  0  0  0  0  0
    5.4940   -0.3080    1.0900 H   0  0  0  0  0  0  0  0  0  0  0  0
    4.1460   -1.3750    1.5910 H   0  0  0  0  0  0  0  0  0  0  0  0
    4.6630   -1.3200   -0.1310 H   0  0  0  0  0  0  0  0  0  0  0  0
    2.2300    2.4050    0.1910 H   0  0  0  0  0  0  0  0  0  0  0  0
   -1.0390    2.5120   -0.9110 H   0  0  0  0  0  0  0  0  0  0  0  0
  1  2  1  0
  1 16  1  0
  1 17  1  0
  1 18  1  0
  2 20  1  0
  2  3  1  0
  2 19  1  0
  3  4  1  0
  3 22  1  0
  3 21  1  0
  4 15  2  0
  4  5  1  0
  5  6  2  0
  5 13  1  0
  6  7  1  0
  6  8  1  0
  7 23  1  0
  8 24  1  0
  8  9  2  0
  9 12  1  0
  9 10  1  0
 10 11  1  0
 11 27  1  0
 11 25  1  0
 11 26  1  0
 12 13  2  0
 12 28  1  0
 13 14  1  0
 14 29  1  0
M  END
>  <id>  (638) 
742

>  <scaffolds>  (638) 
['c1ccccc1']

>  <name>  (638) 
Desaspidinol

>  <formula>  (638) 
C11H14O4

>  <SMILES>  (638) 
CCCC(C1=C(O)C=C(OC)C=C1O)=O

>  <ChEMBL_id>  (638) 


>  <ZINC_id>  (638) 


>  <PubChem_id>  (638) 
597630

>  <DrugBank_id>  (638) 


>  <CAS_no>  (638) 
437-72-9

>  <references>  (638) 
[{'journal': {'name': 'South African Journal of Botany', 'id': 1}, 'title': 'Isolation of an anthelmintic compound from Leucosidae sericea', 'year': 2004, 'start_page': 509, 'volume': 70, 'issue': 4, 'doi': '10.1016/S0254-6299(15)30189-7', 'isbn': '', 'despositor': {'code': 'GU2', 'first_name': 'Gugu', 'last_name': 'Mahlangu', 'id': 24}, 'refauthors_set': [{'author': {'first_name': '', 'initials': 'AA', 'last_name': 'Bosman', 'id': 882}, 'first_author': True, 'id': 1451}, {'author': {'first_name': '', 'initials': 'S', 'last_name': 'Combrinck', 'id': 883}, 'first_author': None, 'id': 1452}, {'author': {'first_name': '', 'initials': 'R', 'last_name': 'Roux-van der Merwe', 'id': 884}, 'first_author': None, 'id': 1453}, {'author': {'first_name': '', 'initials': 'BM', 'last_name': 'Botha', 'id': 885}, 'first_author': None, 'id': 1454}, {'author': {'first_name': '', 'initials': 'RI', 'last_name': 'McCrindle', 'id': 886}, 'first_author': None, 'id': 1455}], 'id': 414}, {'journal': {'name': 'South African Journal of Botany', 'id': 1}, 'title': 'Potential of South African medicinal plants used as anthelmintics – Their efficacy, safety concerns and reappraisal of current screening methods', 'year': 2012, 'start_page': 134, 'volume': 82, 'issue': None, 'doi': '10.1016/j.sajb.2012.05.007', 'isbn': '', 'despositor': {'code': 'GU2', 'first_name': 'Gugu', 'last_name': 'Mahlangu', 'id': 24}, 'refauthors_set': [{'author': {'first_name': '', 'initials': 'AO', 'last_name': 'Aremu', 'id': 887}, 'first_author': True, 'id': 1456}, {'author': {'first_name': '', 'initials': 'JF', 'last_name': 'Finnie', 'id': 888}, 'first_author': None, 'id': 1457}, {'author': {'first_name': 'Johannes', 'initials': 'J', 'last_name': 'Van Staden', 'id': 489}, 'first_author': None, 'id': 1458}], 'id': 415}]

>  <classifications>  (638) 
[{'classification': 'Phloroglucinol', 'id': 871}, {'classification': 'Organooxygen compounds (Classyfire)', 'id': 954}]

>  <molecular_mass>  (638) 
210.226

$$$$
SANC00743_minRM1.pdb
     RDKit          3D

 81 85  0  0  1  0  0  0  0  0999 V2000
   -5.6400   -1.1040   -1.5250 C   0  0  0  0  0  0  0  0  0  0  0  0
   -5.0250   -0.3870   -0.3130 C   0  0  2  0  0  0  0  0  0  0  0  0
   -5.5190   -1.1080    0.9350 C   0  0  0  0  0  0  0  0  0  0  0  0
   -5.4990    1.0870   -0.3450 C   0  0  1  0  0  0  0  0  0  0  0  0
   -6.8740    1.0700   -0.0800 O   0  0  0  0  0  0  0  0  0  0  0  0
   -4.7670    1.9510    0.6900 C   0  0  0  0  0  0  0  0  0  0  0  0
   -3.2710    1.9210    0.4230 C   0  0  0  0  0  0  0  0  0  0  0  0
   -2.7170    0.4880    0.5200 C   0  0  1  0  0  0  0  0  0  0  0  0
   -2.8580    0.0220    1.9620 C   0  0  0  0  0  0  0  0  0  0  0  0
   -3.4910   -0.3900   -0.4790 C   0  0  1  0  0  0  0  0  0  0  0  0
   -2.9080   -1.7990   -0.4520 C   0  0  0  0  0  0  0  0  0  0  0  0
   -1.4720   -1.7700   -0.9700 C   0  0  0  0  0  0  0  0  0  0  0  0
   -0.5810   -0.8830   -0.0880 C   0  0  2  0  0  0  0  0  0  0  0  0
   -0.4200   -1.5900    1.2590 C   0  0  0  0  0  0  0  0  0  0  0  0
   -1.2350    0.5070    0.0650 C   0  0  2  0  0  0  0  0  0  0  0  0
   -0.3780    1.3880    0.9720 C   0  0  0  0  0  0  0  0  0  0  0  0
    1.0180    1.5650    0.3860 C   0  0  0  0  0  0  0  0  0  0  0  0
    1.6750    0.2030    0.1890 C   0  0  1  0  0  0  0  0  0  0  0  0
    0.8230   -0.6870   -0.7490 C   0  0  2  0  0  0  0  0  0  0  0  0
    0.6840   -0.0430   -2.1330 C   0  0  0  0  0  0  0  0  0  0  0  0
    1.5360   -2.0400   -0.9410 C   0  0  0  0  0  0  0  0  0  0  0  0
    2.9790   -1.9010   -1.4270 C   0  0  0  0  0  0  0  0  0  0  0  0
    3.7570   -1.0410   -0.4340 C   0  0  2  0  0  0  0  0  0  0  0  0
    3.8600   -1.8170    0.8690 C   0  0  0  0  0  0  0  0  0  0  0  0
    3.9420   -1.2280    2.0850 O   0  0  0  0  0  0  0  0  0  0  0  0
    3.9470   -3.0340    0.9190 O   0  0  0  0  0  0  0  0  0  0  0  0
    3.0750    0.3340   -0.3970 C   0  0  2  0  0  0  0  0  0  0  0  0
    4.0960    1.2640    0.2740 C   0  0  2  0  0  0  0  0  0  0  0  0
    4.0250    2.6770   -0.2160 C   0  0  0  0  0  0  0  0  0  0  0  0
    4.1350    2.9010   -1.6840 C   0  0  0  0  0  0  0  0  0  0  0  0
    3.9060    3.7050    0.6210 C   0  0  0  0  0  0  0  0  0  0  0  0
    5.4670    0.6310   -0.0650 C   0  0  0  0  0  0  0  0  0  0  0  0
    5.1960   -0.6790   -0.8180 C   0  0  0  0  0  0  0  0  0  0  0  0
   -6.7390   -1.1070   -1.4930 H   0  0  0  0  0  0  0  0  0  0  0  0
   -5.3630   -0.6450   -2.4860 H   0  0  0  0  0  0  0  0  0  0  0  0
   -5.3200   -2.1570   -1.5810 H   0  0  0  0  0  0  0  0  0  0  0  0
   -5.2590   -0.5960    1.8720 H   0  0  0  0  0  0  0  0  0  0  0  0
   -6.6170   -1.2030    0.9500 H   0  0  0  0  0  0  0  0  0  0  0  0
   -5.1320   -2.1330    1.0130 H   0  0  0  0  0  0  0  0  0  0  0  0
   -5.3070    1.5160   -1.3710 H   0  0  0  0  0  0  0  0  0  0  0  0
   -7.1970    1.9710   -0.1720 H   0  0  0  0  0  0  0  0  0  0  0  0
   -4.9970    1.6190    1.7250 H   0  0  0  0  0  0  0  0  0  0  0  0
   -5.1390    2.9980    0.6550 H   0  0  0  0  0  0  0  0  0  0  0  0
   -2.7390    2.5880    1.1390 H   0  0  0  0  0  0  0  0  0  0  0  0
   -3.0570    2.3690   -0.5710 H   0  0  0  0  0  0  0  0  0  0  0  0
   -2.7450   -1.0700    2.0720 H   0  0  0  0  0  0  0  0  0  0  0  0
   -3.8480    0.2630    2.3900 H   0  0  0  0  0  0  0  0  0  0  0  0
   -2.1220    0.4880    2.6340 H   0  0  0  0  0  0  0  0  0  0  0  0
   -3.3020    0.0360   -1.5040 H   0  0  0  0  0  0  0  0  0  0  0  0
   -2.9350   -2.2320    0.5740 H   0  0  0  0  0  0  0  0  0  0  0  0
   -3.5200   -2.4970   -1.0640 H   0  0  0  0  0  0  0  0  0  0  0  0
   -1.4680   -1.4390   -2.0280 H   0  0  0  0  0  0  0  0  0  0  0  0
   -1.0760   -2.8070   -1.0060 H   0  0  0  0  0  0  0  0  0  0  0  0
   -1.3670   -2.0240    1.6250 H   0  0  0  0  0  0  0  0  0  0  0  0
    0.2890   -2.4330    1.2150 H   0  0  0  0  0  0  0  0  0  0  0  0
   -0.0670   -0.9260    2.0630 H   0  0  0  0  0  0  0  0  0  0  0  0
   -1.2330    0.9850   -0.9570 H   0  0  0  0  0  0  0  0  0  0  0  0
   -0.3170    0.9610    1.9990 H   0  0  0  0  0  0  0  0  0  0  0  0
   -0.8540    2.3830    1.1210 H   0  0  0  0  0  0  0  0  0  0  0  0
    1.6310    2.1980    1.0640 H   0  0  0  0  0  0  0  0  0  0  0  0
    0.9870    2.1450   -0.5590 H   0  0  0  0  0  0  0  0  0  0  0  0
    1.7420   -0.2880    1.1930 H   0  0  0  0  0  0  0  0  0  0  0  0
    1.6030    0.4700   -2.4630 H   0  0  0  0  0  0  0  0  0  0  0  0
    0.4550   -0.7700   -2.9260 H   0  0  0  0  0  0  0  0  0  0  0  0
   -0.1100    0.7190   -2.1870 H   0  0  0  0  0  0  0  0  0  0  0  0
    0.9810   -2.6780   -1.6620 H   0  0  0  0  0  0  0  0  0  0  0  0
    1.5090   -2.6300    0.0030 H   0  0  0  0  0  0  0  0  0  0  0  0
    3.0260   -1.4720   -2.4500 H   0  0  0  0  0  0  0  0  0  0  0  0
    3.4470   -2.9010   -1.5470 H   0  0  0  0  0  0  0  0  0  0  0  0
    3.9030   -0.2670    2.0260 H   0  0  0  0  0  0  0  0  0  0  0  0
    2.9710    0.6970   -1.4630 H   0  0  0  0  0  0  0  0  0  0  0  0
    3.9410    1.2620    1.3860 H   0  0  0  0  0  0  0  0  0  0  0  0
    3.4870    3.7200   -2.0330 H   0  0  0  0  0  0  0  0  0  0  0  0
    3.8560    2.0120   -2.2740 H   0  0  0  0  0  0  0  0  0  0  0  0
    5.1630    3.1690   -1.9720 H   0  0  0  0  0  0  0  0  0  0  0  0
    3.8670    4.7390    0.2930 H   0  0  0  0  0  0  0  0  0  0  0  0
    3.8370    3.6120    1.7000 H   0  0  0  0  0  0  0  0  0  0  0  0
    6.1130    1.3070   -0.6570 H   0  0  0  0  0  0  0  0  0  0  0  0
    6.0550    0.4470    0.8570 H   0  0  0  0  0  0  0  0  0  0  0  0
    5.2900   -0.5430   -1.9150 H   0  0  0  0  0  0  0  0  0  0  0  0
    5.9290   -1.4720   -0.5780 H   0  0  0  0  0  0  0  0  0  0  0  0
  1 35  1  0
  1 36  1  0
  1 34  1  0
  2  1  1  6
  2 10  1  0
  2  4  1  0
  2  3  1  0
  3 38  1  0
  3 39  1  0
  3 37  1  0
  4 40  1  6
  4  5  1  0
  4  6  1  0
  5 41  1  0
  6  7  1  0
  6 43  1  0
  6 42  1  0
  7 45  1  0
  7  8  1  0
  7 44  1  0
  8 10  1  0
  8 15  1  0
  8  9  1  1
  9 46  1  0
  9 47  1  0
  9 48  1  0
 10 49  1  6
 10 11  1  0
 11 51  1  0
 11 12  1  0
 11 50  1  0
 12 52  1  0
 12 53  1  0
 12 13  1  0
 13 19  1  0
 13 15  1  0
 13 14  1  1
 14 55  1  0
 14 54  1  0
 14 56  1  0
 15 57  1  6
 15 16  1  0
 16 17  1  0
 16 59  1  0
 16 58  1  0
 17 61  1  0
 17 18  1  0
 17 60  1  0
 18 19  1  0
 18 27  1  0
 18 62  1  1
 19 20  1  6
 19 21  1  0
 20 64  1  0
 20 63  1  0
 20 65  1  0
 21 66  1  0
 21 22  1  0
 21 67  1  0
 22 68  1  0
 22 69  1  0
 22 23  1  0
 23 33  1  0
 23 27  1  0
 23 24  1  1
 24 26  2  0
 24 25  1  0
 25 70  1  0
 27 71  1  6
 27 28  1  0
 28 29  1  0
 28 32  1  0
 28 72  1  1
 29 30  1  0
 29 31  2  0
 30 74  1  0
 30 73  1  0
 30 75  1  0
 31 76  1  0
 31 77  1  0
 32 33  1  0
 32 78  1  0
 32 79  1  0
 33 80  1  0
 33 81  1  0
M  END
>  <id>  (639) 
743

>  <scaffolds>  (639) 
['C1CCC2C(C1)CCC1C2CCC2C3CCCC3CCC21', 'C1CCC(C2CCCC2)CC1', 'C1CCCCC1', 'C1CCC2C(C1)CCC1C3CCCC3CCC21', 'C1CCC2CCCCC2C1']

>  <name>  (639) 
Betulinic acid

>  <formula>  (639) 
C30H48O3

>  <SMILES>  (639) 
CC1(C)[C@@H](O)CC[C@@]2(C)[C@@]1([H])CC[C@]3(C)[C@]2([H])CC[C@@]4([H])[C@@]3(C)CC[C@]5(C(O)=O)[C@]4([H])[C@H](C(C)=C)CC5

>  <ChEMBL_id>  (639) 


>  <ZINC_id>  (639) 
ZINC04097714

>  <PubChem_id>  (639) 
64971

>  <DrugBank_id>  (639) 


>  <CAS_no>  (639) 
 472-15-1 

>  <references>  (639) 
[{'journal': {'name': 'South African Journal of Botany', 'id': 1}, 'title': 'Potential of South African medicinal plants used as anthelmintics – Their efficacy, safety concerns and reappraisal of current screening methods', 'year': 2012, 'start_page': 134, 'volume': 82, 'issue': None, 'doi': '10.1016/j.sajb.2012.05.007', 'isbn': '', 'despositor': {'code': 'GU2', 'first_name': 'Gugu', 'last_name': 'Mahlangu', 'id': 24}, 'refauthors_set': [{'author': {'first_name': '', 'initials': 'AO', 'last_name': 'Aremu', 'id': 887}, 'first_author': True, 'id': 1456}, {'author': {'first_name': '', 'initials': 'JF', 'last_name': 'Finnie', 'id': 888}, 'first_author': None, 'id': 1457}, {'author': {'first_name': 'Johannes', 'initials': 'J', 'last_name': 'Van Staden', 'id': 489}, 'first_author': None, 'id': 1458}], 'id': 415}, {'journal': {'name': 'Onderstepoort Journal of Veterinary Research', 'id': 45}, 'title': 'Curtisia dentata (Cornaceae) leaf extracts and isolated compounds inhibit motility of parasitic and free-living nematodes', 'year': 2009, 'start_page': 249, 'volume': 76, 'issue': 2, 'doi': '0401107', 'isbn': '0030-2465', 'despositor': {'code': 'GU2', 'first_name': 'Gugu', 'last_name': 'Mahlangu', 'id': 24}, 'refauthors_set': [{'author': {'first_name': '', 'initials': 'LJ', 'last_name': 'Shai', 'id': 889}, 'first_author': True, 'id': 1459}, {'author': {'first_name': '', 'initials': 'ES', 'last_name': 'Bizimenyera', 'id': 890}, 'first_author': None, 'id': 1460}, {'author': {'first_name': '', 'initials': 'V', 'last_name': 'Bagla', 'id': 891}, 'first_author': None, 'id': 1461}, {'author': {'first_name': '', 'initials': 'LJ', 'last_name': 'McGaw', 'id': 444}, 'first_author': None, 'id': 1462}, {'author': {'first_name': '', 'initials': 'JN', 'last_name': 'Eloff', 'id': 445}, 'first_author': None, 'id': 1463}], 'id': 416}]

>  <classifications>  (639) 
[{'classification': 'Phenol lipids (Classyfire)', 'id': 951}]

>  <molecular_mass>  (639) 
456.7

$$$$
SANC00744_minRM1.pdb
     RDKit          3D

 81 85  0  0  1  0  0  0  0  0999 V2000
   -4.4130    1.6430    1.7170 O   0  0  0  0  0  0  0  0  0  0  0  0
   -4.7260    1.4450    0.4170 C   0  0  0  0  0  0  0  0  0  0  0  0
   -5.8230    1.8190    0.0290 O   0  0  0  0  0  0  0  0  0  0  0  0
   -3.5990    0.8670   -0.4220 C   0  0  2  0  0  0  0  0  0  0  0  0
   -4.2100    0.2800   -1.6980 C   0  0  0  0  0  0  0  0  0  0  0  0
   -5.2930   -0.7490   -1.3850 C   0  0  0  0  0  0  0  0  0  0  0  0
   -5.1130   -1.4020   -0.0130 C   0  0  1  0  0  0  0  0  0  0  0  0
   -5.8570   -2.7360    0.0030 C   0  0  0  0  0  0  0  0  0  0  0  0
   -3.6210   -1.5920    0.2810 C   0  0  2  0  0  0  0  0  0  0  0  0
   -3.4430   -2.3070    1.6210 C   0  0  0  0  0  0  0  0  0  0  0  0
   -2.8380   -0.2560    0.3060 C   0  0  1  0  0  0  0  0  0  0  0  0
   -1.4230   -0.4250   -0.1810 C   0  0  2  0  0  0  0  0  0  0  0  0
   -0.8100   -1.6120   -0.1890 C   0  0  0  0  0  0  0  0  0  0  0  0
    0.6620   -1.8140   -0.2660 C   0  0  0  0  0  0  0  0  0  0  0  0
    1.4870   -0.5330   -0.3880 C   0  0  2  0  0  0  0  0  0  0  0  0
    2.9480   -0.7290    0.0950 C   0  0  1  0  0  0  0  0  0  0  0  0
    2.9960   -1.1270    1.5630 C   0  0  0  0  0  0  0  0  0  0  0  0
    3.5970   -1.8580   -0.7250 C   0  0  0  0  0  0  0  0  0  0  0  0
    5.0900   -1.9580   -0.4500 C   0  0  0  0  0  0  0  0  0  0  0  0
    5.7800   -0.6420   -0.8230 C   0  0  2  0  0  0  0  0  0  0  0  0
    7.1370   -0.8610   -0.5600 O   0  0  0  0  0  0  0  0  0  0  0  0
    5.2180    0.5530   -0.0120 C   0  0  2  0  0  0  0  0  0  0  0  0
    5.7980    1.8510   -0.5970 C   0  0  0  0  0  0  0  0  0  0  0  0
    5.6540    0.4820    1.4460 C   0  0  0  0  0  0  0  0  0  0  0  0
    3.6910    0.5850   -0.2130 C   0  0  2  0  0  0  0  0  0  0  0  0
    3.0300    1.7190    0.5650 C   0  0  0  0  0  0  0  0  0  0  0  0
    1.5990    1.9260    0.0810 C   0  0  0  0  0  0  0  0  0  0  0  0
    0.7530    0.6600    0.2530 C   0  0  2  0  0  0  0  0  0  0  0  0
    0.4540    0.4710    1.7400 C   0  0  0  0  0  0  0  0  0  0  0  0
   -0.6140    0.8010   -0.4920 C   0  0  1  0  0  0  0  0  0  0  0  0
   -0.4030    0.8890   -2.0090 C   0  0  0  0  0  0  0  0  0  0  0  0
   -1.3730    2.0560   -0.0530 C   0  0  0  0  0  0  0  0  0  0  0  0
   -2.7270    2.0950   -0.7450 C   0  0  0  0  0  0  0  0  0  0  0  0
   -5.1500    2.0470    2.1970 H   0  0  0  0  0  0  0  0  0  0  0  0
   -4.6300    1.0790   -2.3450 H   0  0  0  0  0  0  0  0  0  0  0  0
   -3.4010   -0.1810   -2.3040 H   0  0  0  0  0  0  0  0  0  0  0  0
   -6.3020   -0.2860   -1.4450 H   0  0  0  0  0  0  0  0  0  0  0  0
   -5.3040   -1.5180   -2.1880 H   0  0  0  0  0  0  0  0  0  0  0  0
   -5.5720   -0.7620    0.7830 H   0  0  0  0  0  0  0  0  0  0  0  0
   -5.9770   -3.1410    1.0180 H   0  0  0  0  0  0  0  0  0  0  0  0
   -6.8760   -2.6360   -0.4020 H   0  0  0  0  0  0  0  0  0  0  0  0
   -5.3560   -3.5120   -0.5930 H   0  0  0  0  0  0  0  0  0  0  0  0
   -3.2070   -2.2420   -0.5360 H   0  0  0  0  0  0  0  0  0  0  0  0
   -2.4090   -2.2670    1.9950 H   0  0  0  0  0  0  0  0  0  0  0  0
   -4.0700   -1.8740    2.4150 H   0  0  0  0  0  0  0  0  0  0  0  0
   -3.6960   -3.3750    1.5600 H   0  0  0  0  0  0  0  0  0  0  0  0
   -2.6940    0.0530    1.3790 H   0  0  0  0  0  0  0  0  0  0  0  0
   -1.3650   -2.5540   -0.0850 H   0  0  0  0  0  0  0  0  0  0  0  0
    0.8870   -2.4980   -1.1140 H   0  0  0  0  0  0  0  0  0  0  0  0
    0.9630   -2.3890    0.6440 H   0  0  0  0  0  0  0  0  0  0  0  0
    1.5630   -0.3150   -1.4920 H   0  0  0  0  0  0  0  0  0  0  0  0
    2.2590   -1.9130    1.7980 H   0  0  0  0  0  0  0  0  0  0  0  0
    3.9800   -1.5250    1.8650 H   0  0  0  0  0  0  0  0  0  0  0  0
    2.7940   -0.2840    2.2440 H   0  0  0  0  0  0  0  0  0  0  0  0
    3.1260   -2.8370   -0.4950 H   0  0  0  0  0  0  0  0  0  0  0  0
    3.4190   -1.7160   -1.8120 H   0  0  0  0  0  0  0  0  0  0  0  0
    5.5340   -2.7960   -1.0300 H   0  0  0  0  0  0  0  0  0  0  0  0
    5.2880   -2.2330    0.6080 H   0  0  0  0  0  0  0  0  0  0  0  0
    5.6230   -0.4500   -1.9230 H   0  0  0  0  0  0  0  0  0  0  0  0
    7.6250   -0.0940   -0.8710 H   0  0  0  0  0  0  0  0  0  0  0  0
    5.6580    1.9350   -1.6840 H   0  0  0  0  0  0  0  0  0  0  0  0
    6.8760    1.9630   -0.4110 H   0  0  0  0  0  0  0  0  0  0  0  0
    5.3220    2.7420   -0.1550 H   0  0  0  0  0  0  0  0  0  0  0  0
    5.3190   -0.4290    1.9610 H   0  0  0  0  0  0  0  0  0  0  0  0
    5.2890    1.3340    2.0370 H   0  0  0  0  0  0  0  0  0  0  0  0
    6.7500    0.4920    1.5530 H   0  0  0  0  0  0  0  0  0  0  0  0
    3.5440    0.7940   -1.3100 H   0  0  0  0  0  0  0  0  0  0  0  0
    3.6080    2.6640    0.4500 H   0  0  0  0  0  0  0  0  0  0  0  0
    3.0460    1.5210    1.6590 H   0  0  0  0  0  0  0  0  0  0  0  0
    1.5970    2.2580   -0.9810 H   0  0  0  0  0  0  0  0  0  0  0  0
    1.1510    2.7770    0.6370 H   0  0  0  0  0  0  0  0  0  0  0  0
    0.0700   -0.5260    1.9930 H   0  0  0  0  0  0  0  0  0  0  0  0
   -0.3030    1.1900    2.0990 H   0  0  0  0  0  0  0  0  0  0  0  0
    1.3370    0.6280    2.3810 H   0  0  0  0  0  0  0  0  0  0  0  0
    0.2470    1.7350   -2.2820 H   0  0  0  0  0  0  0  0  0  0  0  0
   -1.3450    1.0290   -2.5610 H   0  0  0  0  0  0  0  0  0  0  0  0
    0.0610   -0.0170   -2.4280 H   0  0  0  0  0  0  0  0  0  0  0  0
   -1.4810    2.0940    1.0540 H   0  0  0  0  0  0  0  0  0  0  0  0
   -0.8110    2.9790   -0.3070 H   0  0  0  0  0  0  0  0  0  0  0  0
   -3.2460    3.0460   -0.4920 H   0  0  0  0  0  0  0  0  0  0  0  0
   -2.5770    2.1840   -1.8460 H   0  0  0  0  0  0  0  0  0  0  0  0
  1  2  1  0
  1 34  1  0
  2  3  2  0
  4  2  1  1
  4  5  1  0
  4 33  1  0
  4 11  1  0
  5 35  1  0
  5 36  1  0
  5  6  1  0
  6 38  1  0
  6 37  1  0
  6  7  1  0
  7  8  1  0
  7  9  1  0
  7 39  1  1
  8 42  1  0
  8 41  1  0
  8 40  1  0
  9 43  1  6
  9 11  1  0
  9 10  1  0
 10 46  1  0
 10 44  1  0
 10 45  1  0
 11 12  1  0
 11 47  1  1
 12 30  1  0
 12 13  1  1
 13 14  1  0
 13 48  1  0
 14 49  1  0
 14 15  1  0
 14 50  1  0
 15 51  1  6
 15 16  1  0
 15 28  1  0
 16 18  1  0
 16 25  1  0
 16 17  1  1
 17 52  1  0
 17 53  1  0
 17 54  1  0
 18 56  1  0
 18 55  1  0
 18 19  1  0
 19 57  1  0
 19 20  1  0
 19 58  1  0
 20 59  1  6
 20 21  1  0
 20 22  1  0
 21 60  1  0
 22 23  1  6
 22 25  1  0
 22 24  1  0
 23 61  1  0
 23 62  1  0
 23 63  1  0
 24 66  1  0
 24 64  1  0
 24 65  1  0
 25 67  1  6
 25 26  1  0
 26 27  1  0
 26 68  1  0
 26 69  1  0
 27 70  1  0
 27 28  1  0
 27 71  1  0
 28 30  1  0
 28 29  1  1
 29 72  1  0
 29 73  1  0
 29 74  1  0
 30 31  1  6
 30 32  1  0
 31 76  1  0
 31 77  1  0
 31 75  1  0
 32 33  1  0
 32 79  1  0
 32 78  1  0
 33 81  1  0
 33 80  1  0
M  END
>  <id>  (640) 
744

>  <scaffolds>  (640) 
['C1=C2C3CCCCC3CCC2C2CCC3CCCCC3C2C1', 'C1=CCCCC1', 'C1=CCC2CCCCC2C1', 'C1CCCCC1', 'C=C1CCCC2CCCCC12', 'C1=C2CCCCC2CCC1', 'C1=C2C3CCCCC3CCC2C2CCCCC2C1', 'C1CCC2CCCCC2C1']

>  <name>  (640) 
Ursolic acid

>  <formula>  (640) 
C30H48O3

>  <SMILES>  (640) 
[H]OC(=O)[C@]15CC[C@@H](C)[C@H](C)[C@@]1([H])C4=CC[C@]3([H])[C@@]2(C)CC[C@H](O[H])C(C)(C)[C@]2([H])CC[C@@]3(C)[C@]4(C)CC5

>  <ChEMBL_id>  (640) 
CHEMBL56048

>  <ZINC_id>  (640) 
ZINC03978827

>  <PubChem_id>  (640) 
64945

>  <DrugBank_id>  (640) 


>  <CAS_no>  (640) 
 77-52-1

>  <references>  (640) 
[{'journal': {'name': 'South African Journal of Botany', 'id': 1}, 'title': 'Isolation of an anthelmintic compound from Leucosidae sericea', 'year': 2004, 'start_page': 509, 'volume': 70, 'issue': 4, 'doi': '10.1016/S0254-6299(15)30189-7', 'isbn': '', 'despositor': {'code': 'GU2', 'first_name': 'Gugu', 'last_name': 'Mahlangu', 'id': 24}, 'refauthors_set': [{'author': {'first_name': '', 'initials': 'AA', 'last_name': 'Bosman', 'id': 882}, 'first_author': True, 'id': 1451}, {'author': {'first_name': '', 'initials': 'S', 'last_name': 'Combrinck', 'id': 883}, 'first_author': None, 'id': 1452}, {'author': {'first_name': '', 'initials': 'R', 'last_name': 'Roux-van der Merwe', 'id': 884}, 'first_author': None, 'id': 1453}, {'author': {'first_name': '', 'initials': 'BM', 'last_name': 'Botha', 'id': 885}, 'first_author': None, 'id': 1454}, {'author': {'first_name': '', 'initials': 'RI', 'last_name': 'McCrindle', 'id': 886}, 'first_author': None, 'id': 1455}], 'id': 414}, {'journal': {'name': 'Onderstepoort Journal of Veterinary Research', 'id': 45}, 'title': 'Curtisia dentata (Cornaceae) leaf extracts and isolated compounds inhibit motility of parasitic and free-living nematodes', 'year': 2009, 'start_page': 249, 'volume': 76, 'issue': 2, 'doi': '0401107', 'isbn': '0030-2465', 'despositor': {'code': 'GU2', 'first_name': 'Gugu', 'last_name': 'Mahlangu', 'id': 24}, 'refauthors_set': [{'author': {'first_name': '', 'initials': 'LJ', 'last_name': 'Shai', 'id': 889}, 'first_author': True, 'id': 1459}, {'author': {'first_name': '', 'initials': 'ES', 'last_name': 'Bizimenyera', 'id': 890}, 'first_author': None, 'id': 1460}, {'author': {'first_name': '', 'initials': 'V', 'last_name': 'Bagla', 'id': 891}, 'first_author': None, 'id': 1461}, {'author': {'first_name': '', 'initials': 'LJ', 'last_name': 'McGaw', 'id': 444}, 'first_author': None, 'id': 1462}, {'author': {'first_name': '', 'initials': 'JN', 'last_name': 'Eloff', 'id': 445}, 'first_author': None, 'id': 1463}], 'id': 416}, {'journal': {'name': 'Phytochemistry', 'id': 10}, 'title': 'Bioactive constituents in Prunus africana: Geographical variation throughout Africa and associations with environmental and genetic parameters', 'year': 2012, 'start_page': 70, 'volume': 83, 'issue': None, 'doi': '10.1016/j.phytochem.2012.06.001', 'isbn': '', 'despositor': {'code': 'rah', 'first_name': 'Rowan', 'last_name': 'Hatherley', 'id': 20}, 'refauthors_set': [{'author': {'first_name': 'Caroline', 'initials': 'CAC', 'last_name': 'Kadu', 'id': 900}, 'first_author': True, 'id': 1481}, {'author': {'first_name': 'Alexandra', 'initials': 'A', 'last_name': 'Parich', 'id': 901}, 'first_author': None, 'id': 1482}, {'author': {'first_name': 'Silvio', 'initials': 'S', 'last_name': 'Schueler', 'id': 902}, 'first_author': None, 'id': 1483}, {'author': {'first_name': 'Heino', 'initials': 'H', 'last_name': 'Konrad', 'id': 903}, 'first_author': None, 'id': 1484}, {'author': {'first_name': 'Geoffrey', 'initials': 'GM', 'last_name': 'Muluvi', 'id': 904}, 'first_author': None, 'id': 1485}, {'author': {'first_name': 'Oscar', 'initials': 'O', 'last_name': 'Eyog-Matig', 'id': 905}, 'first_author': None, 'id': 1486}, {'author': {'first_name': 'Alice', 'initials': 'A', 'last_name': 'Muchugi', 'id': 906}, 'first_author': None, 'id': 1487}, {'author': {'first_name': 'Vivienne', 'initials': 'VL', 'last_name': 'Williams', 'id': 907}, 'first_author': None, 'id': 1488}, {'author': {'first_name': 'Lolona', 'initials': 'L', 'last_name': 'Ramamonjisoa', 'id': 908}, 'first_author': None, 'id': 1489}, {'author': {'first_name': 'Consolatha', 'initials': 'C', 'last_name': 'Kapinga', 'id': 909}, 'first_author': None, 'id': 1490}, {'author': {'first_name': 'Bernard', 'initials': 'B', 'last_name': 'Foahom', 'id': 910}, 'first_author': None, 'id': 1491}, {'author': {'first_name': 'Cuthbert', 'initials': 'C', 'last_name': 'Katsvanga', 'id': 911}, 'first_author': None, 'id': 1492}, {'author': {'first_name': 'David', 'initials': 'D', 'last_name': 'Hafashimana', 'id': 912}, 'first_author': None, 'id': 1493}, {'author': {'first_name': 'Crisantos', 'initials': 'C', 'last_name': 'Obama', 'id': 913}, 'first_author': None, 'id': 1494}, {'author': {'first_name': 'Barbara', 'initials': 'B', 'last_name': 'Vinceti', 'id': 914}, 'first_author': None, 'id': 1495}, {'author': {'first_name': 'Rainer', 'initials': 'R', 'last_name': 'Schumacher', 'id': 915}, 'first_author': None, 'id': 1496}, {'author': {'first_name': 'Thomas', 'initials': 'T', 'last_name': 'Geburek', 'id': 916}, 'first_author': None, 'id': 1497}], 'id': 421}]

>  <classifications>  (640) 
[{'classification': 'Phenol lipids (Classyfire)', 'id': 951}]

>  <molecular_mass>  (640) 
456.7

$$$$
SANC00745_minRM1.pdb
     RDKit          3D

 76 81  0  0  1  0  0  0  0  0999 V2000
    7.4620    0.8320    0.5910 O   0  0  0  0  0  0  0  0  0  0  0  0
    6.2660    0.5020   -0.0530 C   0  0  2  0  0  0  0  0  0  0  0  0
    5.2660    1.5840    0.3680 C   0  0  0  0  0  0  0  0  0  0  0  0
    3.8780    1.2770   -0.2210 C   0  0  1  0  0  0  0  0  0  0  0  0
    2.8870    2.3940    0.1430 C   0  0  0  0  0  0  0  0  0  0  0  0
    1.5200    2.1010   -0.4610 C   0  0  0  0  0  0  0  0  0  0  0  0
    0.9970    0.7510    0.0190 C   0  0  2  0  0  0  0  0  0  0  0  0
    1.9840   -0.3770   -0.3360 C   0  0  2  0  0  0  0  0  0  0  0  0
    1.4320   -1.7390    0.1050 C   0  0  0  0  0  0  0  0  0  0  0  0
    0.0500   -2.0180   -0.4870 C   0  0  0  0  0  0  0  0  0  0  0  0
   -0.9120   -0.8970   -0.1100 C   0  0  1  0  0  0  0  0  0  0  0  0
   -1.0880   -0.8420    1.4060 C   0  0  0  0  0  0  0  0  0  0  0  0
   -0.3310    0.4260   -0.6530 C   0  0  1  0  0  0  0  0  0  0  0  0
   -1.4870    1.4090   -0.4730 C   0  0  0  0  0  0  0  0  0  0  0  0
   -2.7050    0.5570   -0.8790 C   0  0  1  0  0  0  0  0  0  0  0  0
   -2.2700   -0.9370   -0.8390 C   0  0  2  0  0  0  0  0  0  0  0  0
   -3.4370   -1.6600   -0.1600 C   0  0  2  0  0  0  0  0  0  0  0  0
   -4.0270   -2.7530   -1.0390 C   0  0  0  0  0  0  0  0  0  0  0  0
   -4.4470   -0.5100    0.1510 C   0  0  1  0  0  0  0  0  0  0  0  0
   -5.3770   -0.4220   -0.8940 O   0  0  0  0  0  0  0  0  0  0  0  0
   -6.7250   -0.3590   -0.5220 C   0  0  0  0  0  0  0  0  0  0  0  0
   -6.9990    0.7190    0.5320 C   0  0  2  0  0  0  0  0  0  0  0  0
   -6.8300    2.1000   -0.0900 C   0  0  0  0  0  0  0  0  0  0  0  0
   -6.0720    0.5420    1.7410 C   0  0  0  0  0  0  0  0  0  0  0  0
   -5.0800   -0.5980    1.5420 C   0  0  0  0  0  0  0  0  0  0  0  0
   -3.7340    0.7010    0.0720 O   0  0  0  0  0  0  0  0  0  0  0  0
    3.9750    1.1640   -1.6130 O   0  0  0  0  0  0  0  0  0  0  0  0
    3.3640   -0.0930    0.2960 C   0  0  2  0  0  0  0  0  0  0  0  0
    3.2510   -0.0620    1.8220 C   0  0  0  0  0  0  0  0  0  0  0  0
    4.3680   -1.1740   -0.1210 C   0  0  0  0  0  0  0  0  0  0  0  0
    5.7680   -0.8830    0.4340 C   0  0  1  0  0  0  0  0  0  0  0  0
    6.7010   -1.7880   -0.0910 O   0  0  0  0  0  0  0  0  0  0  0  0
    8.1350    0.2110    0.2970 H   0  0  0  0  0  0  0  0  0  0  0  0
    6.3940    0.4930   -1.1710 H   0  0  0  0  0  0  0  0  0  0  0  0
    5.6290    2.5820    0.0470 H   0  0  0  0  0  0  0  0  0  0  0  0
    5.2080    1.6560    1.4770 H   0  0  0  0  0  0  0  0  0  0  0  0
    2.8180    2.5210    1.2430 H   0  0  0  0  0  0  0  0  0  0  0  0
    3.2580    3.3800   -0.2110 H   0  0  0  0  0  0  0  0  0  0  0  0
    1.5700    2.1370   -1.5700 H   0  0  0  0  0  0  0  0  0  0  0  0
    0.8090    2.9100   -0.1880 H   0  0  0  0  0  0  0  0  0  0  0  0
    0.8640    0.7920    1.1360 H   0  0  0  0  0  0  0  0  0  0  0  0
    2.1050   -0.4120   -1.4510 H   0  0  0  0  0  0  0  0  0  0  0  0
    2.1300   -2.5480   -0.2060 H   0  0  0  0  0  0  0  0  0  0  0  0
    1.3970   -1.8320    1.2090 H   0  0  0  0  0  0  0  0  0  0  0  0
    0.1220   -2.1290   -1.5900 H   0  0  0  0  0  0  0  0  0  0  0  0
   -0.3320   -3.0010   -0.1410 H   0  0  0  0  0  0  0  0  0  0  0  0
   -1.1870   -1.8410    1.8560 H   0  0  0  0  0  0  0  0  0  0  0  0
   -1.9660   -0.2610    1.7210 H   0  0  0  0  0  0  0  0  0  0  0  0
   -0.2350   -0.3640    1.9170 H   0  0  0  0  0  0  0  0  0  0  0  0
   -0.1430    0.3270   -1.7570 H   0  0  0  0  0  0  0  0  0  0  0  0
   -1.5560    1.8040    0.5600 H   0  0  0  0  0  0  0  0  0  0  0  0
   -1.3880    2.3110   -1.1070 H   0  0  0  0  0  0  0  0  0  0  0  0
   -3.0970    0.8550   -1.8830 H   0  0  0  0  0  0  0  0  0  0  0  0
   -2.1170   -1.3270   -1.8730 H   0  0  0  0  0  0  0  0  0  0  0  0
   -3.1310   -2.1460    0.7970 H   0  0  0  0  0  0  0  0  0  0  0  0
   -4.9380   -3.1790   -0.5950 H   0  0  0  0  0  0  0  0  0  0  0  0
   -4.3030   -2.4030   -2.0440 H   0  0  0  0  0  0  0  0  0  0  0  0
   -3.3170   -3.5810   -1.1780 H   0  0  0  0  0  0  0  0  0  0  0  0
   -7.2430   -0.1540   -1.4830 H   0  0  0  0  0  0  0  0  0  0  0  0
   -7.0880   -1.3580   -0.1830 H   0  0  0  0  0  0  0  0  0  0  0  0
   -8.0640    0.6080    0.8640 H   0  0  0  0  0  0  0  0  0  0  0  0
   -5.8120    2.2570   -0.4760 H   0  0  0  0  0  0  0  0  0  0  0  0
   -7.0300    2.9040    0.6320 H   0  0  0  0  0  0  0  0  0  0  0  0
   -7.5190    2.2600   -0.9330 H   0  0  0  0  0  0  0  0  0  0  0  0
   -5.5160    1.4790    1.9580 H   0  0  0  0  0  0  0  0  0  0  0  0
   -6.6650    0.3620    2.6630 H   0  0  0  0  0  0  0  0  0  0  0  0
   -5.5630   -1.5890    1.6690 H   0  0  0  0  0  0  0  0  0  0  0  0
   -4.2960   -0.5670    2.3270 H   0  0  0  0  0  0  0  0  0  0  0  0
    4.2650    2.0140   -1.9590 H   0  0  0  0  0  0  0  0  0  0  0  0
    3.3190   -1.0640    2.2720 H   0  0  0  0  0  0  0  0  0  0  0  0
    4.0390    0.5380    2.3050 H   0  0  0  0  0  0  0  0  0  0  0  0
    2.2940    0.3610    2.1710 H   0  0  0  0  0  0  0  0  0  0  0  0
    4.0280   -2.1760    0.2210 H   0  0  0  0  0  0  0  0  0  0  0  0
    4.4120   -1.2690   -1.2270 H   0  0  0  0  0  0  0  0  0  0  0  0
    5.7770   -0.9240    1.5570 H   0  0  0  0  0  0  0  0  0  0  0  0
    6.4470   -2.6700    0.1910 H   0  0  0  0  0  0  0  0  0  0  0  0
  1  2  1  0
  1 33  1  0
  2 34  1  6
  2  3  1  0
  2 31  1  0
  3  4  1  0
  3 35  1  0
  3 36  1  0
  4 27  1  6
  4  5  1  0
  4 28  1  0
  5  6  1  0
  5 38  1  0
  5 37  1  0
  6 39  1  0
  6 40  1  0
  6  7  1  0
  7 13  1  0
  7  8  1  0
  7 41  1  1
  8 42  1  6
  8  9  1  0
  8 28  1  0
  9 10  1  0
  9 43  1  0
  9 44  1  0
 10 45  1  0
 10 46  1  0
 10 11  1  0
 11 16  1  0
 11 13  1  0
 11 12  1  1
 12 48  1  0
 12 47  1  0
 12 49  1  0
 13 50  1  6
 13 14  1  0
 14 52  1  0
 14 15  1  0
 14 51  1  0
 15 53  1  6
 15 16  1  0
 15 26  1  0
 16 54  1  6
 16 17  1  0
 17 18  1  0
 17 19  1  0
 17 55  1  1
 18 57  1  0
 18 58  1  0
 18 56  1  0
 19 20  1  6
 19 26  1  0
 19 25  1  0
 20 21  1  0
 21 59  1  0
 21 60  1  0
 21 22  1  0
 22 23  1  0
 22 61  1  1
 22 24  1  0
 23 64  1  0
 23 62  1  0
 23 63  1  0
 24 25  1  0
 24 65  1  0
 24 66  1  0
 25 67  1  0
 25 68  1  0
 27 69  1  0
 28 30  1  0
 28 29  1  1
 29 72  1  0
 29 70  1  0
 29 71  1  0
 30 74  1  0
 30 73  1  0
 30 31  1  0
 31 32  1  0
 31 75  1  1
 32 76  1  0
M  END
>  <id>  (641) 
745

>  <scaffolds>  (641) 
['C1CCOCC1', 'C1CCC(C2CCCC2)CC1', 'C1CCCCC1', 'C1CCC2C(C1)CCC1C3CCCC3CCC21', 'C1CCC2(CC3C(CC4C3CCC3C5CCCCC5CCC34)O2)OC1', 'C1CCC2CCCCC2C1']

>  <name>  (641) 
Agapanthagenin

>  <formula>  (641) 
 C27H44O5

>  <SMILES>  (641) 
O[C@@H]1C[C@@](CC[C@]2([H])[C@]3([H])CC[C@@]4(C)[C@@]2([H])C[C@@]5([H])[C@]4([H])[C@H](C)[C@]6(OC[C@H](C)CC6)O5)(O)[C@]3(C)C[C@H]1O

>  <ChEMBL_id>  (641) 


>  <ZINC_id>  (641) 


>  <PubChem_id>  (641) 
15558507

>  <DrugBank_id>  (641) 


>  <CAS_no>  (641) 
 546-37-2

>  <references>  (641) 
[{'journal': {'name': 'Medicinal Plants of South Africa (Book)', 'id': 43}, 'title': 'Medicinal Plants of South Africa', 'year': 2009, 'start_page': 26, 'volume': None, 'issue': None, 'doi': '', 'isbn': '978-1-875093-37-3', 'despositor': {'code': 'GU2', 'first_name': 'Gugu', 'last_name': 'Mahlangu', 'id': 24}, 'refauthors_set': [{'author': {'first_name': 'Ben-Erik', 'initials': 'B', 'last_name': 'van Wyk', 'id': 635}, 'first_author': True, 'id': 1437}, {'author': {'first_name': 'Bosch', 'initials': 'B', 'last_name': 'van Oudtshoorn', 'id': 877}, 'first_author': None, 'id': 1438}, {'author': {'first_name': 'Nigel', 'initials': 'N', 'last_name': 'Gericke', 'id': 878}, 'first_author': None, 'id': 1439}], 'id': 408}, {'journal': {'name': 'Journal of the Chemical Society', 'id': 26}, 'title': 'Saponins and sapogenins. IV. Agapanthagenin (22a-spirostan-2[alpha],3[beta],5[alpha]-triol), a new sapogenin from Agapanthus species', 'year': 1956, 'start_page': 1167, 'volume': None, 'issue': None, 'doi': '10.1039/JR9560001167', 'isbn': '', 'despositor': {'code': 'GU2', 'first_name': 'Gugu', 'last_name': 'Mahlangu', 'id': 24}, 'refauthors_set': [{'author': {'first_name': '', 'initials': 'T', 'last_name': 'Stephen', 'id': 892}, 'first_author': True, 'id': 1464}], 'id': 417}, {'journal': {'name': 'Phytochemistry', 'id': 10}, 'title': 'New sources of steroid sapogenins. XXIII. 7-Dehydroagapanthagenin and 8(14)-dehydroagapanthagenin, two new spirostan sapogenins from Agapanthus africanus', 'year': 1974, 'start_page': 627, 'volume': 13, 'issue': 3, 'doi': '10.1016/S0031-9422(00)91364-5', 'isbn': '', 'despositor': {'code': 'GU2', 'first_name': 'Gugu', 'last_name': 'Mahlangu', 'id': 24}, 'refauthors_set': [{'author': {'first_name': 'Antonio', 'initials': 'AG', 'last_name': 'Gonzalez', 'id': 893}, 'first_author': True, 'id': 1465}, {'author': {'first_name': 'Raimundo', 'initials': 'RB', 'last_name': 'Freire ', 'id': 894}, 'first_author': None, 'id': 1466}, {'author': {'first_name': 'Cosme', 'initials': 'CG', 'last_name': 'Francisco', 'id': 895}, 'first_author': None, 'id': 1467}, {'author': {'first_name': 'Jose', 'initials': 'JAR', 'last_name': 'Salazar', 'id': 896}, 'first_author': None, 'id': 1468}, {'author': {'first_name': 'Ernesto', 'initials': 'EL', 'last_name': 'Suárez', 'id': 897}, 'first_author': None, 'id': 1469}], 'id': 418}]

>  <classifications>  (641) 
[{'classification': 'Steroidal sapogenin', 'id': 872}, {'classification': 'Phenol lipids (Classyfire)', 'id': 951}]

>  <molecular_mass>  (641) 
448.635

$$$$
SANC00746_minRM1.pdb
     RDKit          3D

 73 78  0  0  1  0  0  0  0  0999 V2000
    7.6510   -1.0110   -0.0850 O   0  0  0  0  0  0  0  0  0  0  0  0
    6.3390   -0.6600    0.2090 C   0  0  2  0  0  0  0  0  0  0  0  0
    5.3580   -1.6940   -0.3600 C   0  0  0  0  0  0  0  0  0  0  0  0
    3.9490   -1.3400   -0.0190 C   0  0  0  0  0  0  0  0  0  0  0  0
    3.1300   -2.2730    0.4670 C   0  0  0  0  0  0  0  0  0  0  0  0
    1.6960   -2.0430    0.7760 C   0  0  0  0  0  0  0  0  0  0  0  0
    1.1630   -0.7660    0.1300 C   0  0  1  0  0  0  0  0  0  0  0  0
   -0.1650   -0.3860    0.7680 C   0  0  2  0  0  0  0  0  0  0  0  0
   -1.3150   -1.3840    0.6400 C   0  0  0  0  0  0  0  0  0  0  0  0
   -2.5440   -0.5110    0.9620 C   0  0  1  0  0  0  0  0  0  0  0  0
   -2.1120    0.9790    0.8270 C   0  0  2  0  0  0  0  0  0  0  0  0
   -3.2660    1.6480    0.0740 C   0  0  2  0  0  0  0  0  0  0  0  0
   -3.8760    2.7980    0.8610 C   0  0  0  0  0  0  0  0  0  0  0  0
   -4.2670    0.4750   -0.1750 C   0  0  1  0  0  0  0  0  0  0  0  0
   -5.2160    0.4550    0.8550 O   0  0  0  0  0  0  0  0  0  0  0  0
   -6.5570    0.3670    0.4610 C   0  0  0  0  0  0  0  0  0  0  0  0
   -6.8110   -0.7820   -0.5200 C   0  0  2  0  0  0  0  0  0  0  0  0
   -6.6560   -2.1160    0.2000 C   0  0  0  0  0  0  0  0  0  0  0  0
   -5.8600   -0.6900   -1.7190 C   0  0  0  0  0  0  0  0  0  0  0  0
   -4.8710    0.4620   -1.5810 C   0  0  0  0  0  0  0  0  0  0  0  0
   -3.5510   -0.7250    0.0020 O   0  0  0  0  0  0  0  0  0  0  0  0
   -0.7380    0.8960    0.1310 C   0  0  2  0  0  0  0  0  0  0  0  0
   -0.8760    0.7510   -1.3820 C   0  0  0  0  0  0  0  0  0  0  0  0
    0.2170    2.0350    0.4670 C   0  0  0  0  0  0  0  0  0  0  0  0
    1.6090    1.7340   -0.0860 C   0  0  0  0  0  0  0  0  0  0  0  0
    2.1620    0.3750    0.3610 C   0  0  2  0  0  0  0  0  0  0  0  0
    3.5020    0.0540   -0.3490 C   0  0  2  0  0  0  0  0  0  0  0  0
    3.3630    0.1310   -1.8730 C   0  0  0  0  0  0  0  0  0  0  0  0
    4.5440    1.0790    0.1240 C   0  0  0  0  0  0  0  0  0  0  0  0
    5.9550    0.7250   -0.3580 C   0  0  1  0  0  0  0  0  0  0  0  0
    6.9030    1.6080    0.1650 O   0  0  0  0  0  0  0  0  0  0  0  0
    7.8040   -0.8820   -1.0260 H   0  0  0  0  0  0  0  0  0  0  0  0
    6.3220   -0.6580    1.3300 H   0  0  0  0  0  0  0  0  0  0  0  0
    5.6380   -2.7030    0.0140 H   0  0  0  0  0  0  0  0  0  0  0  0
    5.4610   -1.7850   -1.4640 H   0  0  0  0  0  0  0  0  0  0  0  0
    3.4880   -3.2870    0.6830 H   0  0  0  0  0  0  0  0  0  0  0  0
    1.5750   -2.0240    1.8820 H   0  0  0  0  0  0  0  0  0  0  0  0
    1.0910   -2.9170    0.4480 H   0  0  0  0  0  0  0  0  0  0  0  0
    1.0180   -0.9360   -0.9680 H   0  0  0  0  0  0  0  0  0  0  0  0
    0.0110   -0.2060    1.8630 H   0  0  0  0  0  0  0  0  0  0  0  0
   -1.2200   -2.2380    1.3370 H   0  0  0  0  0  0  0  0  0  0  0  0
   -1.3650   -1.8510   -0.3620 H   0  0  0  0  0  0  0  0  0  0  0  0
   -2.9560   -0.7400    1.9760 H   0  0  0  0  0  0  0  0  0  0  0  0
   -1.9840    1.4400    1.8340 H   0  0  0  0  0  0  0  0  0  0  0  0
   -2.9430    2.0650   -0.9090 H   0  0  0  0  0  0  0  0  0  0  0  0
   -3.1700    3.6360    0.9570 H   0  0  0  0  0  0  0  0  0  0  0  0
   -4.1730    2.5180    1.8820 H   0  0  0  0  0  0  0  0  0  0  0  0
   -4.7790    3.1890    0.3690 H   0  0  0  0  0  0  0  0  0  0  0  0
   -6.9120    1.3400    0.0470 H   0  0  0  0  0  0  0  0  0  0  0  0
   -7.0940    0.2290    1.4240 H   0  0  0  0  0  0  0  0  0  0  0  0
   -7.8690   -0.6950   -0.8800 H   0  0  0  0  0  0  0  0  0  0  0  0
   -7.3590   -2.2160    1.0400 H   0  0  0  0  0  0  0  0  0  0  0  0
   -6.8450   -2.9690   -0.4670 H   0  0  0  0  0  0  0  0  0  0  0  0
   -5.6450   -2.2470    0.6140 H   0  0  0  0  0  0  0  0  0  0  0  0
   -6.4330   -0.5780   -2.6630 H   0  0  0  0  0  0  0  0  0  0  0  0
   -5.2990   -1.6390   -1.8570 H   0  0  0  0  0  0  0  0  0  0  0  0
   -5.3510    1.4410   -1.7890 H   0  0  0  0  0  0  0  0  0  0  0  0
   -4.0710    0.3760   -2.3450 H   0  0  0  0  0  0  0  0  0  0  0  0
   -0.0020    0.2610   -1.8440 H   0  0  0  0  0  0  0  0  0  0  0  0
   -0.9830    1.7200   -1.8910 H   0  0  0  0  0  0  0  0  0  0  0  0
   -1.7370    0.1340   -1.6800 H   0  0  0  0  0  0  0  0  0  0  0  0
    0.2700    2.2020    1.5640 H   0  0  0  0  0  0  0  0  0  0  0  0
   -0.1600    2.9990    0.0660 H   0  0  0  0  0  0  0  0  0  0  0  0
    1.6050    1.8150   -1.1960 H   0  0  0  0  0  0  0  0  0  0  0  0
    2.3000    2.5450    0.2340 H   0  0  0  0  0  0  0  0  0  0  0  0
    2.3590    0.4330    1.4650 H   0  0  0  0  0  0  0  0  0  0  0  0
    2.8270   -0.7320   -2.2910 H   0  0  0  0  0  0  0  0  0  0  0  0
    4.3370    0.1630   -2.3840 H   0  0  0  0  0  0  0  0  0  0  0  0
    2.8160    1.0300   -2.2010 H   0  0  0  0  0  0  0  0  0  0  0  0
    4.2700    2.0950   -0.2330 H   0  0  0  0  0  0  0  0  0  0  0  0
    4.5430    1.1610    1.2320 H   0  0  0  0  0  0  0  0  0  0  0  0
    5.9930    0.7190   -1.4840 H   0  0  0  0  0  0  0  0  0  0  0  0
    6.6860    2.4900   -0.1510 H   0  0  0  0  0  0  0  0  0  0  0  0
  1 32  1  0
  1  2  1  0
  2  3  1  0
  2 30  1  0
  2 33  1  1
  3 35  1  0
  3  4  1  0
  3 34  1  0
  4 27  1  0
  4  5  2  0
  5 36  1  0
  5  6  1  0
  6  7  1  0
  6 38  1  0
  6 37  1  0
  7 39  1  6
  7 26  1  0
  7  8  1  0
  8 22  1  0
  8  9  1  0
  8 40  1  1
  9 42  1  0
  9 10  1  0
  9 41  1  0
 10 21  1  0
 10 11  1  0
 10 43  1  1
 11 12  1  0
 11 22  1  0
 11 44  1  1
 12 45  1  6
 12 14  1  0
 12 13  1  0
 13 48  1  0
 13 46  1  0
 13 47  1  0
 14 20  1  0
 14 21  1  1
 14 15  1  0
 15 16  1  0
 16 17  1  0
 16 49  1  0
 16 50  1  0
 17 19  1  0
 17 51  1  6
 17 18  1  0
 18 53  1  0
 18 54  1  0
 18 52  1  0
 19 55  1  0
 19 56  1  0
 19 20  1  0
 20 58  1  0
 20 57  1  0
 22 23  1  6
 22 24  1  0
 23 60  1  0
 23 59  1  0
 23 61  1  0
 24 25  1  0
 24 63  1  0
 24 62  1  0
 25 64  1  0
 25 65  1  0
 25 26  1  0
 26 27  1  0
 26 66  1  1
 27 28  1  6
 27 29  1  0
 28 68  1  0
 28 67  1  0
 28 69  1  0
 29 30  1  0
 29 70  1  0
 29 71  1  0
 30 72  1  6
 30 31  1  0
 31 73  1  0
M  END
>  <id>  (642) 
746

>  <scaffolds>  (642) 
['C1=C2CCCCC2C2CCC3CCCC3C2C1', 'C1=CCCCC1', 'C1=CCC2CCCCC2C1', 'C1=C2CCCCC2C2CCC3CC(OC4CCCCO4)CC3C2C1', 'C1CCOCC1', 'C1CCCCC1', 'C1=C2CCCCC2C2CCC3C4CC5(CCCCO5)OC4CC3C2C1', 'C1=C2CCCCC2CCC1']

>  <name>  (642) 
Yuccagenin

>  <formula>  (642) 
C27H42O4

>  <SMILES>  (642) 
O[C@@H]1CC2=CC[C@]([C@@](C[C@@]3([H])[C@]4([H])[C@H](C)[C@]5(OC[C@H](C)CC5)O3)([H])[C@]4(C)CC6)([H])[C@@]6([H])[C@@]2(C)C[C@H]1O

>  <ChEMBL_id>  (642) 


>  <ZINC_id>  (642) 
ZINC38140885

>  <PubChem_id>  (642) 
3083608

>  <DrugBank_id>  (642) 


>  <CAS_no>  (642) 
511-97-7

>  <references>  (642) 
[{'journal': {'name': 'Journal of the Chemical Society', 'id': 26}, 'title': 'Saponins and sapogenins. IV. Agapanthagenin (22a-spirostan-2[alpha],3[beta],5[alpha]-triol), a new sapogenin from Agapanthus species', 'year': 1956, 'start_page': 1167, 'volume': None, 'issue': None, 'doi': '10.1039/JR9560001167', 'isbn': '', 'despositor': {'code': 'GU2', 'first_name': 'Gugu', 'last_name': 'Mahlangu', 'id': 24}, 'refauthors_set': [{'author': {'first_name': '', 'initials': 'T', 'last_name': 'Stephen', 'id': 892}, 'first_author': True, 'id': 1464}], 'id': 417}, {'journal': {'name': 'Phytochemistry', 'id': 10}, 'title': 'New sources of steroid sapogenins. XXIII. 7-Dehydroagapanthagenin and 8(14)-dehydroagapanthagenin, two new spirostan sapogenins from Agapanthus africanus', 'year': 1974, 'start_page': 627, 'volume': 13, 'issue': 3, 'doi': '10.1016/S0031-9422(00)91364-5', 'isbn': '', 'despositor': {'code': 'GU2', 'first_name': 'Gugu', 'last_name': 'Mahlangu', 'id': 24}, 'refauthors_set': [{'author': {'first_name': 'Antonio', 'initials': 'AG', 'last_name': 'Gonzalez', 'id': 893}, 'first_author': True, 'id': 1465}, {'author': {'first_name': 'Raimundo', 'initials': 'RB', 'last_name': 'Freire ', 'id': 894}, 'first_author': None, 'id': 1466}, {'author': {'first_name': 'Cosme', 'initials': 'CG', 'last_name': 'Francisco', 'id': 895}, 'first_author': None, 'id': 1467}, {'author': {'first_name': 'Jose', 'initials': 'JAR', 'last_name': 'Salazar', 'id': 896}, 'first_author': None, 'id': 1468}, {'author': {'first_name': 'Ernesto', 'initials': 'EL', 'last_name': 'Suárez', 'id': 897}, 'first_author': None, 'id': 1469}], 'id': 418}]

>  <classifications>  (642) 
[{'classification': 'Steroidal sapogenin', 'id': 872}, {'classification': 'Phenol lipids (Classyfire)', 'id': 951}]

>  <molecular_mass>  (642) 
430.62

$$$$
SANC00747_minRM1.pdb
     RDKit          3D

 74 79  0  0  1  0  0  0  0  0999 V2000
   -7.5010    0.9220   -0.2040 O   0  0  0  0  0  0  0  0  0  0  0  0
   -6.2050    0.5790    0.1640 C   0  0  2  0  0  0  0  0  0  0  0  0
   -5.1880    1.6040   -0.3450 C   0  0  0  0  0  0  0  0  0  0  0  0
   -3.7860    1.2530    0.1830 C   0  0  1  0  0  0  0  0  0  0  0  0
   -2.7660    2.2900   -0.3190 C   0  0  0  0  0  0  0  0  0  0  0  0
   -1.3800    1.8840    0.0230 C   0  0  0  0  0  0  0  0  0  0  0  0
   -1.0360    0.6350    0.3340 C   0  0  0  0  0  0  0  0  0  0  0  0
   -2.0040   -0.5090    0.4040 C   0  0  2  0  0  0  0  0  0  0  0  0
   -1.4230   -1.8190   -0.1470 C   0  0  0  0  0  0  0  0  0  0  0  0
   -0.0280   -2.1220    0.3980 C   0  0  0  0  0  0  0  0  0  0  0  0
    0.8970   -0.9450    0.1190 C   0  0  1  0  0  0  0  0  0  0  0  0
    0.9930   -0.6820   -1.3810 C   0  0  0  0  0  0  0  0  0  0  0  0
    0.3190    0.2880    0.8430 C   0  0  1  0  0  0  0  0  0  0  0  0
    1.4560    1.3050    0.7430 C   0  0  0  0  0  0  0  0  0  0  0  0
    2.6990    0.4310    1.0060 C   0  0  1  0  0  0  0  0  0  0  0  0
    2.2850   -1.0520    0.7810 C   0  0  2  0  0  0  0  0  0  0  0  0
    3.4300   -1.6550   -0.0370 C   0  0  2  0  0  0  0  0  0  0  0  0
    4.0620   -2.8540    0.6540 C   0  0  0  0  0  0  0  0  0  0  0  0
    4.4180   -0.4590   -0.2170 C   0  0  1  0  0  0  0  0  0  0  0  0
    5.3810   -0.5040    0.8000 O   0  0  0  0  0  0  0  0  0  0  0  0
    6.7160   -0.3760    0.3940 C   0  0  0  0  0  0  0  0  0  0  0  0
    6.9460    0.8420   -0.5060 C   0  0  2  0  0  0  0  0  0  0  0  0
    6.7880    2.1200    0.3090 C   0  0  0  0  0  0  0  0  0  0  0  0
    5.9800    0.8250   -1.6960 C   0  0  0  0  0  0  0  0  0  0  0  0
    5.0020   -0.3420   -1.6260 C   0  0  0  0  0  0  0  0  0  0  0  0
    3.6960    0.7190    0.0540 O   0  0  0  0  0  0  0  0  0  0  0  0
   -3.8040    1.2230    1.5810 O   0  0  0  0  0  0  0  0  0  0  0  0
   -3.3550   -0.1660   -0.2690 C   0  0  2  0  0  0  0  0  0  0  0  0
   -3.2300   -0.1800   -1.7920 C   0  0  0  0  0  0  0  0  0  0  0  0
   -4.4160   -1.1810    0.1780 C   0  0  0  0  0  0  0  0  0  0  0  0
   -5.8030   -0.8180   -0.3660 C   0  0  1  0  0  0  0  0  0  0  0  0
   -6.7490   -1.7800   -0.0250 O   0  0  0  0  0  0  0  0  0  0  0  0
   -7.5950    0.8080   -1.1550 H   0  0  0  0  0  0  0  0  0  0  0  0
   -6.2590    0.5910    1.2850 H   0  0  0  0  0  0  0  0  0  0  0  0
   -5.1860    1.6410   -1.4560 H   0  0  0  0  0  0  0  0  0  0  0  0
   -5.4870    2.6270   -0.0360 H   0  0  0  0  0  0  0  0  0  0  0  0
   -2.9860    3.2930    0.1110 H   0  0  0  0  0  0  0  0  0  0  0  0
   -2.8530    2.4540   -1.4140 H   0  0  0  0  0  0  0  0  0  0  0  0
   -0.6510    2.7010    0.0170 H   0  0  0  0  0  0  0  0  0  0  0  0
   -2.1890   -0.6690    1.5040 H   0  0  0  0  0  0  0  0  0  0  0  0
   -1.3910   -1.8340   -1.2550 H   0  0  0  0  0  0  0  0  0  0  0  0
   -2.1010   -2.6630    0.1080 H   0  0  0  0  0  0  0  0  0  0  0  0
   -0.0780   -2.3460    1.4850 H   0  0  0  0  0  0  0  0  0  0  0  0
    0.3730   -3.0540   -0.0520 H   0  0  0  0  0  0  0  0  0  0  0  0
    1.8540   -0.0570   -1.6570 H   0  0  0  0  0  0  0  0  0  0  0  0
    0.1160   -0.1460   -1.7750 H   0  0  0  0  0  0  0  0  0  0  0  0
    1.0720   -1.6090   -1.9670 H   0  0  0  0  0  0  0  0  0  0  0  0
    0.1700    0.0560    1.9350 H   0  0  0  0  0  0  0  0  0  0  0  0
    1.4960    1.8150   -0.2390 H   0  0  0  0  0  0  0  0  0  0  0  0
    1.3630    2.1260    1.4800 H   0  0  0  0  0  0  0  0  0  0  0  0
    3.1150    0.6040    2.0290 H   0  0  0  0  0  0  0  0  0  0  0  0
    2.1830   -1.5800    1.7590 H   0  0  0  0  0  0  0  0  0  0  0  0
    3.0920   -2.0030   -1.0420 H   0  0  0  0  0  0  0  0  0  0  0  0
    4.9600   -3.2000    0.1200 H   0  0  0  0  0  0  0  0  0  0  0  0
    4.3740   -2.6480    1.6880 H   0  0  0  0  0  0  0  0  0  0  0  0
    3.3650   -3.7030    0.6990 H   0  0  0  0  0  0  0  0  0  0  0  0
    7.0720   -1.3130   -0.0930 H   0  0  0  0  0  0  0  0  0  0  0  0
    7.2660   -0.3030    1.3570 H   0  0  0  0  0  0  0  0  0  0  0  0
    8.0000    0.7910   -0.8850 H   0  0  0  0  0  0  0  0  0  0  0  0
    7.5030    2.1680    1.1440 H   0  0  0  0  0  0  0  0  0  0  0  0
    5.7830    2.2100    0.7460 H   0  0  0  0  0  0  0  0  0  0  0  0
    6.9590    3.0200   -0.2990 H   0  0  0  0  0  0  0  0  0  0  0  0
    5.4100    1.7770   -1.7620 H   0  0  0  0  0  0  0  0  0  0  0  0
    6.5420    0.7820   -2.6530 H   0  0  0  0  0  0  0  0  0  0  0  0
    5.4850   -1.3000   -1.9100 H   0  0  0  0  0  0  0  0  0  0  0  0
    4.1900   -0.2080   -2.3710 H   0  0  0  0  0  0  0  0  0  0  0  0
   -3.9830    2.1130    1.8980 H   0  0  0  0  0  0  0  0  0  0  0  0
   -3.3110   -1.1920   -2.2160 H   0  0  0  0  0  0  0  0  0  0  0  0
   -2.2710    0.2300   -2.1400 H   0  0  0  0  0  0  0  0  0  0  0  0
   -4.0110    0.4130   -2.2950 H   0  0  0  0  0  0  0  0  0  0  0  0
   -4.1500   -2.2070   -0.1550 H   0  0  0  0  0  0  0  0  0  0  0  0
   -4.4490   -1.2540    1.2860 H   0  0  0  0  0  0  0  0  0  0  0  0
   -5.8260   -0.8560   -1.4860 H   0  0  0  0  0  0  0  0  0  0  0  0
   -6.8720   -1.7720    0.9300 H   0  0  0  0  0  0  0  0  0  0  0  0
  1 33  1  0
  1  2  1  0
  2 31  1  0
  2  3  1  0
  2 34  1  1
  3 35  1  0
  3 36  1  0
  3  4  1  0
  4  5  1  0
  4 28  1  0
  4 27  1  1
  5 38  1  0
  5  6  1  0
  5 37  1  0
  6 39  1  0
  6  7  2  0
  7  8  1  0
  7 13  1  0
  8 28  1  0
  8  9  1  0
  8 40  1  1
  9 41  1  0
  9 42  1  0
  9 10  1  0
 10 44  1  0
 10 11  1  0
 10 43  1  0
 11 12  1  6
 11 16  1  0
 11 13  1  0
 12 47  1  0
 12 46  1  0
 12 45  1  0
 13 14  1  0
 13 48  1  1
 14 49  1  0
 14 15  1  0
 14 50  1  0
 15 26  1  0
 15 16  1  0
 15 51  1  1
 16 17  1  0
 16 52  1  1
 17 53  1  6
 17 19  1  0
 17 18  1  0
 18 54  1  0
 18 56  1  0
 18 55  1  0
 19 25  1  0
 19 26  1  1
 19 20  1  0
 20 21  1  0
 21 22  1  0
 21 57  1  0
 21 58  1  0
 22 24  1  0
 22 59  1  6
 22 23  1  0
 23 62  1  0
 23 61  1  0
 23 60  1  0
 24 64  1  0
 24 63  1  0
 24 25  1  0
 25 66  1  0
 25 65  1  0
 27 67  1  0
 28 29  1  6
 28 30  1  0
 29 70  1  0
 29 68  1  0
 29 69  1  0
 30 31  1  0
 30 71  1  0
 30 72  1  0
 31 73  1  6
 31 32  1  0
 32 74  1  0
M  END
>  <id>  (643) 
747

>  <scaffolds>  (643) 
['C1=CCCCC1', 'C1=CCC2CCCCC2C1', 'C1CCOCC1', 'C1CCCCC1', 'C1=C2CCCCC2CCC1', 'C1=C2C(CCC3C2CC2OC4(CCCCO4)CC23)C2CCCCC2C1', 'C1=C2C3CCCC3CCC2C2CCCCC2C1']

>  <name>  (643) 
7-Dehydroagapanthagenin

>  <formula>  (643) 
C27H42O5

>  <SMILES>  (643) 
O[C@@H]1C[C@@](CC=C2[C@]3([H])CC[C@@]4(C)[C@@]2([H])C[C@@]5([H])[C@]4([H])[C@H](C)[C@]6(OC[C@H](C)CC6)O5)(O)[C@]3(C)C[C@H]1O

>  <ChEMBL_id>  (643) 


>  <ZINC_id>  (643) 


>  <PubChem_id>  (643) 


>  <DrugBank_id>  (643) 


>  <CAS_no>  (643) 
52801-10-2

>  <references>  (643) 
[{'journal': {'name': 'Phytochemistry', 'id': 10}, 'title': 'New sources of steroid sapogenins. XXIII. 7-Dehydroagapanthagenin and 8(14)-dehydroagapanthagenin, two new spirostan sapogenins from Agapanthus africanus', 'year': 1974, 'start_page': 627, 'volume': 13, 'issue': 3, 'doi': '10.1016/S0031-9422(00)91364-5', 'isbn': '', 'despositor': {'code': 'GU2', 'first_name': 'Gugu', 'last_name': 'Mahlangu', 'id': 24}, 'refauthors_set': [{'author': {'first_name': 'Antonio', 'initials': 'AG', 'last_name': 'Gonzalez', 'id': 893}, 'first_author': True, 'id': 1465}, {'author': {'first_name': 'Raimundo', 'initials': 'RB', 'last_name': 'Freire ', 'id': 894}, 'first_author': None, 'id': 1466}, {'author': {'first_name': 'Cosme', 'initials': 'CG', 'last_name': 'Francisco', 'id': 895}, 'first_author': None, 'id': 1467}, {'author': {'first_name': 'Jose', 'initials': 'JAR', 'last_name': 'Salazar', 'id': 896}, 'first_author': None, 'id': 1468}, {'author': {'first_name': 'Ernesto', 'initials': 'EL', 'last_name': 'Suárez', 'id': 897}, 'first_author': None, 'id': 1469}], 'id': 418}]

>  <classifications>  (643) 
[{'classification': 'Steroidal sapogenin', 'id': 872}, {'classification': 'Spirostan sapogenin', 'id': 873}, {'classification': 'Steroids and steroid derivatives (Classyfire)', 'id': 942}]

>  <molecular_mass>  (643) 
446.62

$$$$
SANC00748_minRM1.pdb
     RDKit          3D

 74 79  0  0  1  0  0  0  0  0999 V2000
   -6.2370   -0.4440    2.2160 O   0  0  0  0  0  0  0  0  0  0  0  0
   -6.1940   -0.5280    0.8280 C   0  0  2  0  0  0  0  0  0  0  0  0
   -5.2120   -1.5990    0.3320 C   0  0  0  0  0  0  0  0  0  0  0  0
   -3.9990   -1.0400   -0.4350 C   0  0  1  0  0  0  0  0  0  0  0  0
   -2.9520   -2.1590   -0.5940 C   0  0  0  0  0  0  0  0  0  0  0  0
   -1.7350   -1.6500   -1.3520 C   0  0  0  0  0  0  0  0  0  0  0  0
   -1.1720   -0.4190   -0.7240 C   0  0  0  0  0  0  0  0  0  0  0  0
    0.1340   -0.2760   -0.5090 C   0  0  0  0  0  0  0  0  0  0  0  0
    1.2040   -1.2760   -0.7880 C   0  0  0  0  0  0  0  0  0  0  0  0
    2.4670   -0.4360   -1.0380 C   0  0  1  0  0  0  0  0  0  0  0  0
    2.1110    1.0420   -0.7490 C   0  0  2  0  0  0  0  0  0  0  0  0
    3.3200    1.5880    0.0220 C   0  0  2  0  0  0  0  0  0  0  0  0
    3.9840    2.7520   -0.6970 C   0  0  0  0  0  0  0  0  0  0  0  0
    4.2420    0.3420    0.1830 C   0  0  1  0  0  0  0  0  0  0  0  0
    5.2370    0.4140   -0.7980 O   0  0  0  0  0  0  0  0  0  0  0  0
    6.1640   -0.6400   -0.7990 C   0  0  0  0  0  0  0  0  0  0  0  0
    6.8790   -0.7460    0.5530 C   0  0  2  0  0  0  0  0  0  0  0  0
    7.8740   -1.8960    0.5250 C   0  0  0  0  0  0  0  0  0  0  0  0
    5.8240   -0.9640    1.6350 C   0  0  0  0  0  0  0  0  0  0  0  0
    4.8220    0.1820    1.5930 C   0  0  0  0  0  0  0  0  0  0  0  0
    3.4680   -0.7950   -0.1130 O   0  0  0  0  0  0  0  0  0  0  0  0
    0.7660    0.9820    0.0100 C   0  0  2  0  0  0  0  0  0  0  0  0
    0.9630    0.8200    1.5140 C   0  0  0  0  0  0  0  0  0  0  0  0
   -0.1220    2.1810   -0.3070 C   0  0  0  0  0  0  0  0  0  0  0  0
   -1.5430    1.9190    0.1750 C   0  0  0  0  0  0  0  0  0  0  0  0
   -2.1550    0.6890   -0.5100 C   0  0  2  0  0  0  0  0  0  0  0  0
   -4.3560   -0.5850   -1.7080 O   0  0  0  0  0  0  0  0  0  0  0  0
   -3.3870    0.1810    0.2850 C   0  0  2  0  0  0  0  0  0  0  0  0
   -2.9140   -0.2260    1.6830 C   0  0  0  0  0  0  0  0  0  0  0  0
   -4.4390    1.3000    0.3870 C   0  0  0  0  0  0  0  0  0  0  0  0
   -5.9040    0.8640    0.2190 C   0  0  1  0  0  0  0  0  0  0  0  0
   -6.3320    0.7600   -1.1070 O   0  0  0  0  0  0  0  0  0  0  0  0
   -5.3610   -0.1990    2.5400 H   0  0  0  0  0  0  0  0  0  0  0  0
   -7.2490   -0.8320    0.5840 H   0  0  0  0  0  0  0  0  0  0  0  0
   -5.7600   -2.3200   -0.3130 H   0  0  0  0  0  0  0  0  0  0  0  0
   -4.8770   -2.2400    1.1770 H   0  0  0  0  0  0  0  0  0  0  0  0
   -3.3960   -3.0290   -1.1250 H   0  0  0  0  0  0  0  0  0  0  0  0
   -2.6480   -2.5660    0.3920 H   0  0  0  0  0  0  0  0  0  0  0  0
   -0.9860   -2.4680   -1.4280 H   0  0  0  0  0  0  0  0  0  0  0  0
   -1.9970   -1.4200   -2.4090 H   0  0  0  0  0  0  0  0  0  0  0  0
    1.3170   -1.9800    0.0630 H   0  0  0  0  0  0  0  0  0  0  0  0
    0.9790   -1.9210   -1.6610 H   0  0  0  0  0  0  0  0  0  0  0  0
    2.8660   -0.5850   -2.0720 H   0  0  0  0  0  0  0  0  0  0  0  0
    1.9710    1.5960   -1.7080 H   0  0  0  0  0  0  0  0  0  0  0  0
    3.0230    1.9550    1.0380 H   0  0  0  0  0  0  0  0  0  0  0  0
    3.3280    3.6350   -0.7180 H   0  0  0  0  0  0  0  0  0  0  0  0
    4.2440    2.5280   -1.7420 H   0  0  0  0  0  0  0  0  0  0  0  0
    4.9180    3.0530   -0.2010 H   0  0  0  0  0  0  0  0  0  0  0  0
    5.6910   -1.6050   -1.0890 H   0  0  0  0  0  0  0  0  0  0  0  0
    6.8570   -0.3640   -1.6210 H   0  0  0  0  0  0  0  0  0  0  0  0
    7.4280    0.2090    0.7560 H   0  0  0  0  0  0  0  0  0  0  0  0
    7.3930   -2.8670    0.3340 H   0  0  0  0  0  0  0  0  0  0  0  0
    8.6360   -1.7610   -0.2570 H   0  0  0  0  0  0  0  0  0  0  0  0
    8.4130   -1.9940    1.4780 H   0  0  0  0  0  0  0  0  0  0  0  0
    6.2940   -1.0320    2.6380 H   0  0  0  0  0  0  0  0  0  0  0  0
    5.3090   -1.9380    1.4980 H   0  0  0  0  0  0  0  0  0  0  0  0
    4.0090    0.0170    2.3290 H   0  0  0  0  0  0  0  0  0  0  0  0
    5.3020    1.1360    1.8960 H   0  0  0  0  0  0  0  0  0  0  0  0
    0.0170    0.6570    2.0490 H   0  0  0  0  0  0  0  0  0  0  0  0
    1.4420    1.7030    1.9650 H   0  0  0  0  0  0  0  0  0  0  0  0
    1.5990   -0.0460    1.7520 H   0  0  0  0  0  0  0  0  0  0  0  0
   -0.1320    2.3900   -1.3980 H   0  0  0  0  0  0  0  0  0  0  0  0
    0.2890    3.1030    0.1520 H   0  0  0  0  0  0  0  0  0  0  0  0
   -1.5620    1.8240    1.2830 H   0  0  0  0  0  0  0  0  0  0  0  0
   -2.1650    2.8200   -0.0200 H   0  0  0  0  0  0  0  0  0  0  0  0
   -2.4800    1.0050   -1.5390 H   0  0  0  0  0  0  0  0  0  0  0  0
   -4.9720   -1.2100   -2.1000 H   0  0  0  0  0  0  0  0  0  0  0  0
   -2.4440    0.6170    2.2180 H   0  0  0  0  0  0  0  0  0  0  0  0
   -2.1570   -1.0230    1.6600 H   0  0  0  0  0  0  0  0  0  0  0  0
   -3.7210   -0.5770    2.3420 H   0  0  0  0  0  0  0  0  0  0  0  0
   -4.2390    2.1010   -0.3590 H   0  0  0  0  0  0  0  0  0  0  0  0
   -4.3370    1.8320    1.3580 H   0  0  0  0  0  0  0  0  0  0  0  0
   -6.5610    1.6280    0.7270 H   0  0  0  0  0  0  0  0  0  0  0  0
   -5.8160    1.3610   -1.6530 H   0  0  0  0  0  0  0  0  0  0  0  0
  1  2  1  0
  1 33  1  0
  2 31  1  0
  2  3  1  0
  2 34  1  6
  3  4  1  0
  3 35  1  0
  3 36  1  0
  4 27  1  6
  4  5  1  0
  4 28  1  0
  5  6  1  0
  5 37  1  0
  5 38  1  0
  6 40  1  0
  6 39  1  0
  6  7  1  0
  7 26  1  0
  7  8  2  0
  8  9  1  0
  8 22  1  0
  9 42  1  0
  9 10  1  0
  9 41  1  0
 10 43  1  6
 10 11  1  0
 10 21  1  0
 11 44  1  6
 11 22  1  0
 11 12  1  0
 12 13  1  0
 12 14  1  0
 12 45  1  1
 13 47  1  0
 13 46  1  0
 13 48  1  0
 14 15  1  6
 14 21  1  0
 14 20  1  0
 15 16  1  0
 16 50  1  0
 16 49  1  0
 16 17  1  0
 17 18  1  0
 17 51  1  1
 17 19  1  0
 18 53  1  0
 18 52  1  0
 18 54  1  0
 19 56  1  0
 19 20  1  0
 19 55  1  0
 20 58  1  0
 20 57  1  0
 22 24  1  0
 22 23  1  1
 23 61  1  0
 23 60  1  0
 23 59  1  0
 24 62  1  0
 24 63  1  0
 24 25  1  0
 25 26  1  0
 25 65  1  0
 25 64  1  0
 26 66  1  6
 26 28  1  0
 27 67  1  0
 28 30  1  0
 28 29  1  1
 29 69  1  0
 29 68  1  0
 29 70  1  0
 30 71  1  0
 30 31  1  0
 30 72  1  0
 31 32  1  0
 31 73  1  1
 32 74  1  0
M  END
>  <id>  (644) 
748

>  <scaffolds>  (644) 
['C1=CCCCC1', 'C=C1CCC2CCCCC2C1', 'C1CCOCC1', 'C1CCCCC1', 'C1=C2CCCCC2CCC1', 'C1CCC2(CC3C(CC4=C5CCC6CCCCC6C5CCC43)O2)OC1', 'C1CCC2CCCCC2C1']

>  <name>  (644) 
8(14)-Dehydroagapanthagenin

>  <formula>  (644) 
C27H42O5

>  <SMILES>  (644) 
O[C@@H]1C[C@@](CCC2=C(C[C@@]3([H])[C@]4([H])[C@H](C)[C@]5(OC[C@H](C)CC5)O3)[C@]4(C)CC[C@]62[H])(O)[C@]6(C)C[C@H]1O

>  <ChEMBL_id>  (644) 


>  <ZINC_id>  (644) 


>  <PubChem_id>  (644) 


>  <DrugBank_id>  (644) 


>  <CAS_no>  (644) 
52801-11-3

>  <references>  (644) 
[{'journal': {'name': 'Phytochemistry', 'id': 10}, 'title': 'New sources of steroid sapogenins. XXIII. 7-Dehydroagapanthagenin and 8(14)-dehydroagapanthagenin, two new spirostan sapogenins from Agapanthus africanus', 'year': 1974, 'start_page': 627, 'volume': 13, 'issue': 3, 'doi': '10.1016/S0031-9422(00)91364-5', 'isbn': '', 'despositor': {'code': 'GU2', 'first_name': 'Gugu', 'last_name': 'Mahlangu', 'id': 24}, 'refauthors_set': [{'author': {'first_name': 'Antonio', 'initials': 'AG', 'last_name': 'Gonzalez', 'id': 893}, 'first_author': True, 'id': 1465}, {'author': {'first_name': 'Raimundo', 'initials': 'RB', 'last_name': 'Freire ', 'id': 894}, 'first_author': None, 'id': 1466}, {'author': {'first_name': 'Cosme', 'initials': 'CG', 'last_name': 'Francisco', 'id': 895}, 'first_author': None, 'id': 1467}, {'author': {'first_name': 'Jose', 'initials': 'JAR', 'last_name': 'Salazar', 'id': 896}, 'first_author': None, 'id': 1468}, {'author': {'first_name': 'Ernesto', 'initials': 'EL', 'last_name': 'Suárez', 'id': 897}, 'first_author': None, 'id': 1469}], 'id': 418}]

>  <classifications>  (644) 
[{'classification': 'Steroidal sapogenin', 'id': 872}, {'classification': 'Spirostan sapogenin', 'id': 873}, {'classification': 'Steroids and steroid derivatives (Classyfire)', 'id': 942}]

>  <molecular_mass>  (644) 
446.62

$$$$
SANC00749_minRM1.pdb
     RDKit          3D

 74 79  0  0  1  0  0  0  0  0999 V2000
    7.5940   -0.1490   -0.5860 O   0  0  0  0  0  0  0  0  0  0  0  0
    6.2910   -0.0110   -0.1210 C   0  0  2  0  0  0  0  0  0  0  0  0
    5.4460   -1.2500   -0.4370 C   0  0  0  0  0  0  0  0  0  0  0  0
    4.0280   -1.0890    0.1360 C   0  0  1  0  0  0  0  0  0  0  0  0
    3.1930   -2.3400   -0.1870 C   0  0  0  0  0  0  0  0  0  0  0  0
    1.8100   -2.2360    0.4300 C   0  0  0  0  0  0  0  0  0  0  0  0
    1.0900   -0.9600   -0.0190 C   0  0  2  0  0  0  0  0  0  0  0  0
    1.9410    0.2670    0.1670 C   0  0  0  0  0  0  0  0  0  0  0  0
    1.4670    1.3870    0.7220 C   0  0  0  0  0  0  0  0  0  0  0  0
    0.0710    1.5700    1.2200 C   0  0  0  0  0  0  0  0  0  0  0  0
   -0.8530    0.5510    0.5640 C   0  0  1  0  0  0  0  0  0  0  0  0
   -1.0130    0.9040   -0.9090 C   0  0  0  0  0  0  0  0  0  0  0  0
   -0.2060   -0.8290    0.7750 C   0  0  1  0  0  0  0  0  0  0  0  0
   -1.3170   -1.8200    0.4320 C   0  0  0  0  0  0  0  0  0  0  0  0
   -2.5880   -1.1140    0.9430 C   0  0  1  0  0  0  0  0  0  0  0  0
   -2.2190    0.3610    1.2520 C   0  0  2  0  0  0  0  0  0  0  0  0
   -3.3960    1.1780    0.7090 C   0  0  2  0  0  0  0  0  0  0  0  0
   -4.1090    1.9420    1.8150 C   0  0  0  0  0  0  0  0  0  0  0  0
   -4.2890    0.1150    0.0000 C   0  0  1  0  0  0  0  0  0  0  0  0
   -5.3600   -0.1870    0.8500 O   0  0  0  0  0  0  0  0  0  0  0  0
   -6.4470   -0.7980    0.2070 C   0  0  0  0  0  0  0  0  0  0  0  0
   -7.1360    0.1950   -0.7470 C   0  0  2  0  0  0  0  0  0  0  0  0
   -7.8910   -0.5770   -1.8220 C   0  0  0  0  0  0  0  0  0  0  0  0
   -6.1050    1.1430   -1.3680 C   0  0  0  0  0  0  0  0  0  0  0  0
   -4.7370    0.4770   -1.4260 C   0  0  0  0  0  0  0  0  0  0  0  0
   -3.5470   -1.0800   -0.0860 O   0  0  0  0  0  0  0  0  0  0  0  0
    4.2190   -0.9880    1.5170 O   0  0  0  0  0  0  0  0  0  0  0  0
    3.3260    0.1730   -0.4290 C   0  0  2  0  0  0  0  0  0  0  0  0
    3.1530    0.0810   -1.9490 C   0  0  0  0  0  0  0  0  0  0  0  0
    4.2030    1.3910   -0.1110 C   0  0  0  0  0  0  0  0  0  0  0  0
    5.6000    1.2310   -0.7280 C   0  0  1  0  0  0  0  0  0  0  0  0
    6.3620    2.3820   -0.5560 O   0  0  0  0  0  0  0  0  0  0  0  0
    7.5820   -0.1640   -1.5490 H   0  0  0  0  0  0  0  0  0  0  0  0
    6.4390    0.0990    0.9860 H   0  0  0  0  0  0  0  0  0  0  0  0
    5.4060   -1.4470   -1.5280 H   0  0  0  0  0  0  0  0  0  0  0  0
    5.9360   -2.1510   -0.0110 H   0  0  0  0  0  0  0  0  0  0  0  0
    3.7080   -3.2530    0.1790 H   0  0  0  0  0  0  0  0  0  0  0  0
    3.1200   -2.4760   -1.2880 H   0  0  0  0  0  0  0  0  0  0  0  0
    1.2030   -3.1240    0.1510 H   0  0  0  0  0  0  0  0  0  0  0  0
    1.8730   -2.3020    1.5370 H   0  0  0  0  0  0  0  0  0  0  0  0
    0.8500   -1.0570   -1.1110 H   0  0  0  0  0  0  0  0  0  0  0  0
    2.0810    2.2850    0.8510 H   0  0  0  0  0  0  0  0  0  0  0  0
    0.0660    1.4870    2.3290 H   0  0  0  0  0  0  0  0  0  0  0  0
   -0.2810    2.6060    1.0240 H   0  0  0  0  0  0  0  0  0  0  0  0
   -0.0580    1.0750   -1.4250 H   0  0  0  0  0  0  0  0  0  0  0  0
   -1.5880    1.8380   -1.0380 H   0  0  0  0  0  0  0  0  0  0  0  0
   -1.5510    0.1320   -1.4770 H   0  0  0  0  0  0  0  0  0  0  0  0
    0.0360   -0.9410    1.8660 H   0  0  0  0  0  0  0  0  0  0  0  0
   -1.3640   -2.0580   -0.6490 H   0  0  0  0  0  0  0  0  0  0  0  0
   -1.1720   -2.8040    0.9190 H   0  0  0  0  0  0  0  0  0  0  0  0
   -3.0270   -1.6360    1.8280 H   0  0  0  0  0  0  0  0  0  0  0  0
   -2.1010    0.5130    2.3510 H   0  0  0  0  0  0  0  0  0  0  0  0
   -3.0490    1.9310   -0.0450 H   0  0  0  0  0  0  0  0  0  0  0  0
   -5.0190    2.4390    1.4470 H   0  0  0  0  0  0  0  0  0  0  0  0
   -3.4640    2.7260    2.2380 H   0  0  0  0  0  0  0  0  0  0  0  0
   -4.4200    1.3030    2.6540 H   0  0  0  0  0  0  0  0  0  0  0  0
   -7.1100   -1.1000    1.0440 H   0  0  0  0  0  0  0  0  0  0  0  0
   -6.1460   -1.7390   -0.3080 H   0  0  0  0  0  0  0  0  0  0  0  0
   -7.8730    0.8040   -0.1640 H   0  0  0  0  0  0  0  0  0  0  0  0
   -7.2180   -1.1240   -2.4980 H   0  0  0  0  0  0  0  0  0  0  0  0
   -8.5010    0.0860   -2.4540 H   0  0  0  0  0  0  0  0  0  0  0  0
   -8.5790   -1.3170   -1.3880 H   0  0  0  0  0  0  0  0  0  0  0  0
   -6.0420    2.0840   -0.7820 H   0  0  0  0  0  0  0  0  0  0  0  0
   -6.4200    1.4730   -2.3800 H   0  0  0  0  0  0  0  0  0  0  0  0
   -4.7750   -0.4240   -2.0770 H   0  0  0  0  0  0  0  0  0  0  0  0
   -3.9890    1.1290   -1.9210 H   0  0  0  0  0  0  0  0  0  0  0  0
    3.3940   -0.7100    1.9260 H   0  0  0  0  0  0  0  0  0  0  0  0
    2.3910    0.7870   -2.3120 H   0  0  0  0  0  0  0  0  0  0  0  0
    2.8520   -0.9210   -2.2900 H   0  0  0  0  0  0  0  0  0  0  0  0
    4.0750    0.3220   -2.5030 H   0  0  0  0  0  0  0  0  0  0  0  0
    4.2870    1.5490    0.9850 H   0  0  0  0  0  0  0  0  0  0  0  0
    3.7420    2.3210   -0.5070 H   0  0  0  0  0  0  0  0  0  0  0  0
    5.5270    1.1480   -1.8480 H   0  0  0  0  0  0  0  0  0  0  0  0
    6.5870    2.4670    0.3760 H   0  0  0  0  0  0  0  0  0  0  0  0
  1 33  1  0
  1  2  1  0
  2 31  1  0
  2  3  1  0
  2 34  1  1
  3 35  1  0
  3 36  1  0
  3  4  1  0
  4 28  1  0
  4  5  1  0
  4 27  1  1
  5 38  1  0
  5 37  1  0
  5  6  1  0
  6  7  1  0
  6 39  1  0
  6 40  1  0
  7 41  1  6
  7  8  1  0
  7 13  1  0
  8 28  1  0
  8  9  2  0
  9 42  1  0
  9 10  1  0
 10 11  1  0
 10 44  1  0
 10 43  1  0
 11 12  1  6
 11 13  1  0
 11 16  1  0
 12 47  1  0
 12 45  1  0
 12 46  1  0
 13 14  1  0
 13 48  1  1
 14 49  1  0
 14 50  1  0
 14 15  1  0
 15 26  1  0
 15 16  1  0
 15 51  1  1
 16 17  1  0
 16 52  1  1
 17 53  1  6
 17 19  1  0
 17 18  1  0
 18 54  1  0
 18 55  1  0
 18 56  1  0
 19 25  1  0
 19 26  1  6
 19 20  1  0
 20 21  1  0
 21 22  1  0
 21 58  1  0
 21 57  1  0
 22 23  1  0
 22 24  1  0
 22 59  1  1
 23 60  1  0
 23 61  1  0
 23 62  1  0
 24 64  1  0
 24 25  1  0
 24 63  1  0
 25 65  1  0
 25 66  1  0
 27 67  1  0
 28 29  1  6
 28 30  1  0
 29 70  1  0
 29 68  1  0
 29 69  1  0
 30 31  1  0
 30 72  1  0
 30 71  1  0
 31 73  1  6
 31 32  1  0
 32 74  1  0
M  END
>  <id>  (645) 
749

>  <scaffolds>  (645) 
['C1=CCCCC1', 'C1CCOCC1', 'C1CCC(C2CCCC2)CC1', 'C1CCCCC1', 'C=C1CCCC2CCCCC12', 'C1=C2C3CCCCC3CCC2C2CC3OC4(CCCCO4)CC3C2C1', 'C1=C2CCCCC2CCC1', 'C1CCC2CCCCC2C1']

>  <name>  (645) 
9(11)-Dehydroagapanthagenin

>  <formula>  (645) 
C27H42O5

>  <SMILES>  (645) 
O[C@@H]1C[C@@](CC[C@]2([H])C3=CC[C@@]4(C)[C@@]2([H])C[C@@]5([H])[C@]4([H])[C@H](C)[C@]6(OC[C@H](C)CC6)O5)(O)[C@]3(C)C[C@H]1O

>  <ChEMBL_id>  (645) 


>  <ZINC_id>  (645) 


>  <PubChem_id>  (645) 


>  <DrugBank_id>  (645) 


>  <CAS_no>  (645) 
58701-59-0

>  <references>  (645) 
[{'journal': {'name': 'Phytochemistry', 'id': 10}, 'title': 'New sources of steroid sapogenins. 28. 9(11)-Dehydroagapanthagenin, a new spirostan sapogenin from Agapanthus africanus', 'year': 1975, 'start_page': 2259, 'volume': 14, 'issue': 10, 'doi': '10.1016/S0031-9422(00)91112-9', 'isbn': '', 'despositor': {'code': 'GU2', 'first_name': 'Gugu', 'last_name': 'Mahlangu', 'id': 24}, 'refauthors_set': [{'author': {'first_name': 'Antonio', 'initials': 'AG', 'last_name': 'Gonzalez', 'id': 893}, 'first_author': True, 'id': 1470}, {'author': {'first_name': 'Cosme', 'initials': 'CG', 'last_name': 'Francisco', 'id': 895}, 'first_author': None, 'id': 1471}, {'author': {'first_name': 'Raimundo', 'initials': 'RB', 'last_name': 'Freire ', 'id': 894}, 'first_author': None, 'id': 1472}, {'author': {'first_name': 'Rosendo', 'initials': 'R', 'last_name': 'Hernández', 'id': 898}, 'first_author': None, 'id': 1473}, {'author': {'first_name': 'Jose', 'initials': 'JAR', 'last_name': 'Salazar', 'id': 896}, 'first_author': None, 'id': 1474}, {'author': {'first_name': 'Ernesto', 'initials': 'EL', 'last_name': 'Suárez', 'id': 897}, 'first_author': None, 'id': 1475}], 'id': 419}]

>  <classifications>  (645) 
[{'classification': 'Spirostan sapogenin', 'id': 873}, {'classification': 'Phenol lipids (Classyfire)', 'id': 951}]

>  <molecular_mass>  (645) 
446.619

$$$$
SANC00750_minRM1.pdb
     RDKit          3D

 36 38  0  0  0  0  0  0  0  0999 V2000
   -1.3730   -1.6770   -0.0270 N   0  0  0  0  0  0  0  0  0  0  0  0
   -2.5960   -1.0050    0.0240 C   0  0  0  0  0  0  0  0  0  0  0  0
   -3.7820   -1.7450    0.1870 C   0  0  0  0  0  0  0  0  0  0  0  0
   -4.9890   -1.0760    0.2440 C   0  0  0  0  0  0  0  0  0  0  0  0
   -5.0410    0.3140    0.1420 C   0  0  0  0  0  0  0  0  0  0  0  0
   -3.8740    1.0400   -0.0250 C   0  0  0  0  0  0  0  0  0  0  0  0
   -2.6400    0.3890   -0.0890 C   0  0  0  0  0  0  0  0  0  0  0  0
   -1.4060    1.1600   -0.2880 C   0  0  0  0  0  0  0  0  0  0  0  0
   -1.4320    2.3530   -0.5530 O   0  0  0  0  0  0  0  0  0  0  0  0
   -0.1560    0.4080   -0.1830 C   0  0  0  0  0  0  0  0  0  0  0  0
    1.0840    1.0650   -0.1820 C   0  0  0  0  0  0  0  0  0  0  0  0
    1.1250    2.4250   -0.0950 O   0  0  0  0  0  0  0  0  0  0  0  0
    1.3670    3.0520   -1.3380 C   0  0  0  0  0  0  0  0  0  0  0  0
    2.2730    0.3500   -0.1640 C   0  0  0  0  0  0  0  0  0  0  0  0
    3.4670    0.9990   -0.2980 O   0  0  0  0  0  0  0  0  0  0  0  0
    4.0640    1.2720    0.9510 C   0  0  0  0  0  0  0  0  0  0  0  0
    2.2400   -1.0580   -0.0970 C   0  0  0  0  0  0  0  0  0  0  0  0
    3.4700   -1.6270   -0.0520 O   0  0  0  0  0  0  0  0  0  0  0  0
    3.5420   -3.0310   -0.0940 C   0  0  0  0  0  0  0  0  0  0  0  0
    1.0330   -1.7370   -0.0550 C   0  0  0  0  0  0  0  0  0  0  0  0
   -0.1640   -0.9910   -0.0890 C   0  0  0  0  0  0  0  0  0  0  0  0
   -1.3680   -2.6910    0.0240 H   0  0  0  0  0  0  0  0  0  0  0  0
   -3.7600   -2.8350    0.2710 H   0  0  0  0  0  0  0  0  0  0  0  0
   -5.9170   -1.6440    0.3720 H   0  0  0  0  0  0  0  0  0  0  0  0
   -6.0040    0.8280    0.1930 H   0  0  0  0  0  0  0  0  0  0  0  0
   -3.9140    2.1330   -0.1100 H   0  0  0  0  0  0  0  0  0  0  0  0
    1.2840    4.1240   -1.1060 H   0  0  0  0  0  0  0  0  0  0  0  0
    0.6210    2.7940   -2.1060 H   0  0  0  0  0  0  0  0  0  0  0  0
    2.3740    2.8390   -1.7330 H   0  0  0  0  0  0  0  0  0  0  0  0
    4.9980    1.7920    0.6920 H   0  0  0  0  0  0  0  0  0  0  0  0
    3.4480    1.9300    1.5850 H   0  0  0  0  0  0  0  0  0  0  0  0
    4.3070    0.3610    1.5210 H   0  0  0  0  0  0  0  0  0  0  0  0
    3.1110   -3.5120    0.7990 H   0  0  0  0  0  0  0  0  0  0  0  0
    4.6250   -3.2270   -0.1140 H   0  0  0  0  0  0  0  0  0  0  0  0
    3.0870   -3.4660   -0.9990 H   0  0  0  0  0  0  0  0  0  0  0  0
    0.9920   -2.8260    0.0090 H   0  0  0  0  0  0  0  0  0  0  0  0
  1 21  1  0
  1 22  1  0
  1  2  1  0
  2  7  2  0
  2  3  1  0
  3  4  2  0
  3 23  1  0
  4  5  1  0
  4 24  1  0
  5  6  2  0
  5 25  1  0
  6 26  1  0
  6  7  1  0
  7  8  1  0
  8  9  2  0
  8 10  1  0
 10 11  2  0
 10 21  1  0
 11 14  1  0
 11 12  1  0
 12 13  1  0
 13 28  1  0
 13 29  1  0
 13 27  1  0
 14 15  1  0
 14 17  2  0
 15 16  1  0
 16 30  1  0
 16 32  1  0
 16 31  1  0
 17 20  1  0
 17 18  1  0
 18 19  1  0
 19 35  1  0
 19 34  1  0
 19 33  1  0
 20 21  2  0
 20 36  1  0
M  END
>  <id>  (646) 
750

>  <scaffolds>  (646) 
['c1ccccc1', 'O=c1c2ccccc2[nH]c2ccccc12']

>  <name>  (646) 
Toddaliopsin A

>  <formula>  (646) 
C16H15NO4

>  <SMILES>  (646) 
[H]n3c1ccccc1c(=O)c2c(OC)c(OC)c(OC)cc23

>  <ChEMBL_id>  (646) 


>  <ZINC_id>  (646) 


>  <PubChem_id>  (646) 


>  <DrugBank_id>  (646) 


>  <CAS_no>  (646) 
33130-09-5

>  <references>  (646) 
[{'journal': {'name': 'Phytochemistry', 'id': 10}, 'title': 'N-Substituted acridone alkaloids from Toddaliopsis bremekampii (Rutaceae: Toddalioideae) of south-central Africa', 'year': 2005, 'start_page': 1724, 'volume': 66, 'issue': None, 'doi': '10.1016/j.phytochem.2005.04.036', 'isbn': '', 'despositor': {'code': 'AMU', 'first_name': 'Arnold', 'last_name': 'Amusengeri', 'id': 25}, 'refauthors_set': [{'author': {'first_name': 'Dashnie', 'initials': 'D', 'last_name': 'Naidoo', 'id': 899}, 'first_author': True, 'id': 1476}, {'author': {'first_name': '', 'initials': 'PH', 'last_name': 'Coombes', 'id': 795}, 'first_author': None, 'id': 1477}, {'author': {'first_name': 'Dulcie', 'initials': 'DA', 'last_name': 'Mulholland', 'id': 525}, 'first_author': None, 'id': 1478}, {'author': {'first_name': 'Neil', 'initials': 'NR', 'last_name': 'Crouch', 'id': 524}, 'first_author': None, 'id': 1479}, {'author': {'first_name': 'Albert', 'initials': 'AJJ', 'last_name': 'van den Berg', 'id': 728}, 'first_author': None, 'id': 1480}], 'id': 420}]

>  <classifications>  (646) 
[{'classification': 'Alkaloid', 'id': 738}, {'classification': 'Acridone Alkaloid', 'id': 874}, {'classification': 'Quinolines and derivatives (Classyfire)', 'id': 948}]

>  <molecular_mass>  (646) 
285.295

$$$$
SANC00751_minRM1.pdb
     RDKit          3D

 78 81  0  0  1  0  0  0  0  0999 V2000
    1.5020    0.1700   -0.5390 C   0  0  1  0  0  0  0  0  0  0  0  0
    2.6520    1.0870   -0.1030 C   0  0  2  0  0  0  0  0  0  0  0  0
    2.4470    2.4910   -0.6660 C   0  0  0  0  0  0  0  0  0  0  0  0
    4.0070    0.5360   -0.6040 C   0  0  0  0  0  0  0  0  0  0  0  0
    4.7630   -0.1890    0.5100 C   0  0  0  0  0  0  0  0  0  0  0  0
    6.1600   -0.7160    0.1570 C   0  0  1  0  0  0  0  0  0  0  0  0
    6.2750   -1.1480   -1.3080 C   0  0  0  0  0  0  0  0  0  0  0  0
    7.5460   -1.9510   -1.5490 C   0  0  0  0  0  0  0  0  0  0  0  0
    7.2990    0.2470    0.5380 C   0  0  2  0  0  0  0  0  0  0  0  0
    7.4710    0.3030    2.0550 C   0  0  0  0  0  0  0  0  0  0  0  0
    7.1160    1.6590    0.0040 C   0  0  0  0  0  0  0  0  0  0  0  0
    1.7170   -1.2940   -0.0930 C   0  0  0  0  0  0  0  0  0  0  0  0
    0.3370   -1.8790    0.2500 C   0  0  0  0  0  0  0  0  0  0  0  0
   -0.6430   -0.8230   -0.2510 C   0  0  1  0  0  0  0  0  0  0  0  0
   -2.0350   -0.8040    0.3650 C   0  0  2  0  0  0  0  0  0  0  0  0
   -2.7310   -2.1410    0.1360 C   0  0  0  0  0  0  0  0  0  0  0  0
   -4.1340   -2.1080    0.7230 C   0  0  0  0  0  0  0  0  0  0  0  0
   -4.9210   -0.9570    0.1910 C   0  0  0  0  0  0  0  0  0  0  0  0
   -6.1660   -1.1480   -0.2550 C   0  0  0  0  0  0  0  0  0  0  0  0
   -7.0320   -0.0360   -0.6640 C   0  0  0  0  0  0  0  0  0  0  0  0
   -8.0710   -0.2090   -1.2760 O   0  0  0  0  0  0  0  0  0  0  0  0
   -6.5650    1.3320   -0.2480 C   0  0  0  0  0  0  0  0  0  0  0  0
   -5.0720    1.4380   -0.5160 C   0  0  0  0  0  0  0  0  0  0  0  0
   -4.2700    0.3960    0.2810 C   0  0  1  0  0  0  0  0  0  0  0  0
   -4.2480    0.7790    1.7620 C   0  0  0  0  0  0  0  0  0  0  0  0
   -2.8410    0.3180   -0.3100 C   0  0  1  0  0  0  0  0  0  0  0  0
   -2.1120    1.6610   -0.1950 C   0  0  0  0  0  0  0  0  0  0  0  0
   -0.6710    1.5950   -0.7030 C   0  0  0  0  0  0  0  0  0  0  0  0
    0.1010    0.5000    0.0240 C   0  0  2  0  0  0  0  0  0  0  0  0
    0.1800    0.8060    1.5160 C   0  0  0  0  0  0  0  0  0  0  0  0
    1.4470    0.2040   -1.6580 H   0  0  0  0  0  0  0  0  0  0  0  0
    2.6800    1.1660    1.0120 H   0  0  0  0  0  0  0  0  0  0  0  0
    2.4480    2.5100   -1.7650 H   0  0  0  0  0  0  0  0  0  0  0  0
    1.4920    2.9370   -0.3440 H   0  0  0  0  0  0  0  0  0  0  0  0
    3.2340    3.1860   -0.3370 H   0  0  0  0  0  0  0  0  0  0  0  0
    4.6330    1.3540   -1.0150 H   0  0  0  0  0  0  0  0  0  0  0  0
    3.8470   -0.1260   -1.4790 H   0  0  0  0  0  0  0  0  0  0  0  0
    4.8300    0.4660    1.4050 H   0  0  0  0  0  0  0  0  0  0  0  0
    4.1330   -1.0430    0.8560 H   0  0  0  0  0  0  0  0  0  0  0  0
    6.3070   -1.6440    0.7770 H   0  0  0  0  0  0  0  0  0  0  0  0
    6.2500   -0.2760   -1.9920 H   0  0  0  0  0  0  0  0  0  0  0  0
    5.3960   -1.7650   -1.5940 H   0  0  0  0  0  0  0  0  0  0  0  0
    7.5520   -2.9030   -0.9980 H   0  0  0  0  0  0  0  0  0  0  0  0
    8.4480   -1.4000   -1.2380 H   0  0  0  0  0  0  0  0  0  0  0  0
    7.6760   -2.2020   -2.6110 H   0  0  0  0  0  0  0  0  0  0  0  0
    8.2520   -0.1660    0.1010 H   0  0  0  0  0  0  0  0  0  0  0  0
    7.6800   -0.6850    2.4900 H   0  0  0  0  0  0  0  0  0  0  0  0
    6.5840    0.6950    2.5720 H   0  0  0  0  0  0  0  0  0  0  0  0
    8.3110    0.9510    2.3460 H   0  0  0  0  0  0  0  0  0  0  0  0
    7.9950    2.2880    0.2180 H   0  0  0  0  0  0  0  0  0  0  0  0
    6.9870    1.6860   -1.0870 H   0  0  0  0  0  0  0  0  0  0  0  0
    6.2570    2.1810    0.4490 H   0  0  0  0  0  0  0  0  0  0  0  0
    2.2150   -1.8830   -0.8880 H   0  0  0  0  0  0  0  0  0  0  0  0
    2.4120   -1.3690    0.7710 H   0  0  0  0  0  0  0  0  0  0  0  0
    0.1750   -2.8680   -0.2230 H   0  0  0  0  0  0  0  0  0  0  0  0
    0.2230   -2.0730    1.3340 H   0  0  0  0  0  0  0  0  0  0  0  0
   -0.7550   -0.9660   -1.3600 H   0  0  0  0  0  0  0  0  0  0  0  0
   -1.9650   -0.6050    1.4690 H   0  0  0  0  0  0  0  0  0  0  0  0
   -2.7720   -2.3940   -0.9440 H   0  0  0  0  0  0  0  0  0  0  0  0
   -2.1510   -2.9700    0.5950 H   0  0  0  0  0  0  0  0  0  0  0  0
   -4.1000   -2.0330    1.8330 H   0  0  0  0  0  0  0  0  0  0  0  0
   -4.6420   -3.0800    0.5380 H   0  0  0  0  0  0  0  0  0  0  0  0
   -6.6150   -2.1450   -0.3260 H   0  0  0  0  0  0  0  0  0  0  0  0
   -6.8090    1.4930    0.8220 H   0  0  0  0  0  0  0  0  0  0  0  0
   -7.1220    2.1310   -0.7830 H   0  0  0  0  0  0  0  0  0  0  0  0
   -4.7280    2.4680   -0.2850 H   0  0  0  0  0  0  0  0  0  0  0  0
   -4.8900    1.3220   -1.6070 H   0  0  0  0  0  0  0  0  0  0  0  0
   -4.1390    1.8610    1.9270 H   0  0  0  0  0  0  0  0  0  0  0  0
   -5.1720    0.4870    2.2840 H   0  0  0  0  0  0  0  0  0  0  0  0
   -3.4190    0.2990    2.3060 H   0  0  0  0  0  0  0  0  0  0  0  0
   -2.9370    0.0700   -1.4010 H   0  0  0  0  0  0  0  0  0  0  0  0
   -2.1260    2.0440    0.8450 H   0  0  0  0  0  0  0  0  0  0  0  0
   -2.6500    2.4420   -0.7760 H   0  0  0  0  0  0  0  0  0  0  0  0
   -0.6560    1.4310   -1.8010 H   0  0  0  0  0  0  0  0  0  0  0  0
   -0.1740    2.5830   -0.5720 H   0  0  0  0  0  0  0  0  0  0  0  0
    0.4690    1.8490    1.7120 H   0  0  0  0  0  0  0  0  0  0  0  0
    0.9020    0.1730    2.0520 H   0  0  0  0  0  0  0  0  0  0  0  0
   -0.7780    0.6460    2.0380 H   0  0  0  0  0  0  0  0  0  0  0  0
  1 31  1  6
  1  2  1  0
  1 12  1  0
  1 29  1  0
  2  3  1  0
  2  4  1  0
  2 32  1  1
  3 33  1  0
  3 34  1  0
  3 35  1  0
  4 37  1  0
  4 36  1  0
  4  5  1  0
  5  6  1  0
  5 39  1  0
  5 38  1  0
  6  7  1  0
  6  9  1  0
  6 40  1  1
  7 41  1  0
  7 42  1  0
  7  8  1  0
  8 45  1  0
  8 44  1  0
  8 43  1  0
  9 11  1  0
  9 46  1  6
  9 10  1  0
 10 49  1  0
 10 47  1  0
 10 48  1  0
 11 51  1  0
 11 50  1  0
 11 52  1  0
 12 53  1  0
 12 13  1  0
 12 54  1  0
 13 14  1  0
 13 55  1  0
 13 56  1  0
 14 57  1  6
 14 29  1  0
 14 15  1  0
 15 26  1  0
 15 16  1  0
 15 58  1  1
 16 59  1  0
 16 60  1  0
 16 17  1  0
 17 18  1  0
 17 62  1  0
 17 61  1  0
 18 19  2  0
 18 24  1  0
 19 20  1  0
 19 63  1  0
 20 21  2  0
 20 22  1  0
 22 65  1  0
 22 23  1  0
 22 64  1  0
 23 67  1  0
 23 66  1  0
 23 24  1  0
 24 26  1  0
 24 25  1  1
 25 68  1  0
 25 69  1  0
 25 70  1  0
 26 71  1  6
 26 27  1  0
 27 73  1  0
 27 28  1  0
 27 72  1  0
 28 74  1  0
 28 75  1  0
 28 29  1  0
 29 30  1  1
 30 76  1  0
 30 78  1  0
 30 77  1  0
M  END
>  <id>  (647) 
751

>  <scaffolds>  (647) 
['C1=CCCCC1', 'C=C1CCC2CCCCC2C1', 'C1CCC(C2CCCC2)CC1', 'C1CCCCC1', 'O=C1C=CCCC1', 'C1=C2CCCCC2CCC1', 'C1CCC2CCCCC2C1']

>  <name>  (647) 
[beta]-sitostenone

>  <formula>  (647) 
C29H48O

>  <SMILES>  (647) 
[H][C@]3([C@H](C)CC[C@@H](CC)C(C)C)CC[C@@]4([H])[C@]2([H])CCC1=CC(=O)CC[C@]1(C)[C@@]2([H])CC[C@]34C

>  <ChEMBL_id>  (647) 
CHEMBL66926

>  <ZINC_id>  (647) 
ZINC4073977

>  <PubChem_id>  (647) 
 5484202

>  <DrugBank_id>  (647) 


>  <CAS_no>  (647) 
1058-61-3

>  <references>  (647) 
[{'journal': {'name': 'Phytochemistry', 'id': 10}, 'title': 'Bioactive constituents in Prunus africana: Geographical variation throughout Africa and associations with environmental and genetic parameters', 'year': 2012, 'start_page': 70, 'volume': 83, 'issue': None, 'doi': '10.1016/j.phytochem.2012.06.001', 'isbn': '', 'despositor': {'code': 'rah', 'first_name': 'Rowan', 'last_name': 'Hatherley', 'id': 20}, 'refauthors_set': [{'author': {'first_name': 'Caroline', 'initials': 'CAC', 'last_name': 'Kadu', 'id': 900}, 'first_author': True, 'id': 1481}, {'author': {'first_name': 'Alexandra', 'initials': 'A', 'last_name': 'Parich', 'id': 901}, 'first_author': None, 'id': 1482}, {'author': {'first_name': 'Silvio', 'initials': 'S', 'last_name': 'Schueler', 'id': 902}, 'first_author': None, 'id': 1483}, {'author': {'first_name': 'Heino', 'initials': 'H', 'last_name': 'Konrad', 'id': 903}, 'first_author': None, 'id': 1484}, {'author': {'first_name': 'Geoffrey', 'initials': 'GM', 'last_name': 'Muluvi', 'id': 904}, 'first_author': None, 'id': 1485}, {'author': {'first_name': 'Oscar', 'initials': 'O', 'last_name': 'Eyog-Matig', 'id': 905}, 'first_author': None, 'id': 1486}, {'author': {'first_name': 'Alice', 'initials': 'A', 'last_name': 'Muchugi', 'id': 906}, 'first_author': None, 'id': 1487}, {'author': {'first_name': 'Vivienne', 'initials': 'VL', 'last_name': 'Williams', 'id': 907}, 'first_author': None, 'id': 1488}, {'author': {'first_name': 'Lolona', 'initials': 'L', 'last_name': 'Ramamonjisoa', 'id': 908}, 'first_author': None, 'id': 1489}, {'author': {'first_name': 'Consolatha', 'initials': 'C', 'last_name': 'Kapinga', 'id': 909}, 'first_author': None, 'id': 1490}, {'author': {'first_name': 'Bernard', 'initials': 'B', 'last_name': 'Foahom', 'id': 910}, 'first_author': None, 'id': 1491}, {'author': {'first_name': 'Cuthbert', 'initials': 'C', 'last_name': 'Katsvanga', 'id': 911}, 'first_author': None, 'id': 1492}, {'author': {'first_name': 'David', 'initials': 'D', 'last_name': 'Hafashimana', 'id': 912}, 'first_author': None, 'id': 1493}, {'author': {'first_name': 'Crisantos', 'initials': 'C', 'last_name': 'Obama', 'id': 913}, 'first_author': None, 'id': 1494}, {'author': {'first_name': 'Barbara', 'initials': 'B', 'last_name': 'Vinceti', 'id': 914}, 'first_author': None, 'id': 1495}, {'author': {'first_name': 'Rainer', 'initials': 'R', 'last_name': 'Schumacher', 'id': 915}, 'first_author': None, 'id': 1496}, {'author': {'first_name': 'Thomas', 'initials': 'T', 'last_name': 'Geburek', 'id': 916}, 'first_author': None, 'id': 1497}], 'id': 421}]

>  <classifications>  (647) 
[{'classification': 'Steroids and steroid derivatives (Classyfire)', 'id': 942}]

>  <molecular_mass>  (647) 
412.69

$$$$
SANC00752_minRM1.pdb
     RDKit          3D

 45 47  0  0  0  0  0  0  0  0999 V2000
    3.0440    3.4810    1.0520 C   0  0  0  0  0  0  0  0  0  0  0  0
    3.4110    2.1730    0.6890 O   0  0  0  0  0  0  0  0  0  0  0  0
    2.4170    1.2790    0.4590 C   0  0  0  0  0  0  0  0  0  0  0  0
    1.0690    1.4980    0.6910 C   0  0  0  0  0  0  0  0  0  0  0  0
    0.1500    0.4660    0.4170 C   0  0  0  0  0  0  0  0  0  0  0  0
    0.5880   -0.7520   -0.1190 C   0  0  0  0  0  0  0  0  0  0  0  0
    1.9670   -0.9710   -0.2920 C   0  0  0  0  0  0  0  0  0  0  0  0
    2.3260   -2.2310   -0.6420 O   0  0  0  0  0  0  0  0  0  0  0  0
    3.2960   -2.3490   -1.6620 C   0  0  0  0  0  0  0  0  0  0  0  0
    2.8830    0.0360   -0.0130 C   0  0  0  0  0  0  0  0  0  0  0  0
    4.2160   -0.1200   -0.2750 O   0  0  0  0  0  0  0  0  0  0  0  0
    4.9450   -0.4740    0.8810 C   0  0  0  0  0  0  0  0  0  0  0  0
   -0.3750   -1.7750   -0.5280 C   0  0  0  0  0  0  0  0  0  0  0  0
   -0.1020   -2.6630   -1.3190 O   0  0  0  0  0  0  0  0  0  0  0  0
   -1.7130   -1.6410    0.0620 C   0  0  0  0  0  0  0  0  0  0  0  0
   -2.5900   -2.7270    0.0350 C   0  0  0  0  0  0  0  0  0  0  0  0
   -3.8600   -2.6140    0.5710 C   0  0  0  0  0  0  0  0  0  0  0  0
   -4.2670   -1.4050    1.1330 C   0  0  0  0  0  0  0  0  0  0  0  0
   -3.4110   -0.3200    1.1730 C   0  0  0  0  0  0  0  0  0  0  0  0
   -2.1180   -0.4320    0.6360 C   0  0  0  0  0  0  0  0  0  0  0  0
   -1.2140    0.6540    0.7040 N   0  0  0  0  0  0  0  0  0  0  0  0
   -1.7160    2.0190    0.9240 C   0  0  0  0  0  0  0  0  0  0  0  0
   -1.6630    2.7270   -0.2930 O   0  0  0  0  0  0  0  0  0  0  0  0
   -2.6130    2.4780   -1.2400 C   0  0  0  0  0  0  0  0  0  0  0  0
   -2.3100    3.1780   -2.5220 C   0  0  0  0  0  0  0  0  0  0  0  0
   -3.5670    1.7750   -0.9720 O   0  0  0  0  0  0  0  0  0  0  0  0
    4.0080    4.0110    1.0940 H   0  0  0  0  0  0  0  0  0  0  0  0
    2.3990    3.9790    0.3080 H   0  0  0  0  0  0  0  0  0  0  0  0
    2.5660    3.5360    2.0440 H   0  0  0  0  0  0  0  0  0  0  0  0
    0.7150    2.4540    1.0870 H   0  0  0  0  0  0  0  0  0  0  0  0
    3.3030   -1.5240   -2.3920 H   0  0  0  0  0  0  0  0  0  0  0  0
    4.3040   -2.4530   -1.2300 H   0  0  0  0  0  0  0  0  0  0  0  0
    3.0270   -3.2830   -2.1790 H   0  0  0  0  0  0  0  0  0  0  0  0
    4.8950    0.2840    1.6790 H   0  0  0  0  0  0  0  0  0  0  0  0
    4.6330   -1.4440    1.3010 H   0  0  0  0  0  0  0  0  0  0  0  0
    5.9840   -0.5510    0.5280 H   0  0  0  0  0  0  0  0  0  0  0  0
   -2.2650   -3.6720   -0.4180 H   0  0  0  0  0  0  0  0  0  0  0  0
   -4.5450   -3.4650    0.5500 H   0  0  0  0  0  0  0  0  0  0  0  0
   -5.2760   -1.3130    1.5490 H   0  0  0  0  0  0  0  0  0  0  0  0
   -3.7630    0.6230    1.6080 H   0  0  0  0  0  0  0  0  0  0  0  0
   -2.7320    2.0200    1.3960 H   0  0  0  0  0  0  0  0  0  0  0  0
   -1.0350    2.6130    1.5840 H   0  0  0  0  0  0  0  0  0  0  0  0
   -2.1510    4.2560   -2.3730 H   0  0  0  0  0  0  0  0  0  0  0  0
   -3.1310    3.0560   -3.2450 H   0  0  0  0  0  0  0  0  0  0  0  0
   -1.3960    2.7750   -2.9840 H   0  0  0  0  0  0  0  0  0  0  0  0
  1 28  1  0
  1  2  1  0
  1 27  1  0
  1 29  1  0
  2  3  1  0
  3 10  2  0
  3  4  1  0
  4  5  2  0
  4 30  1  0
  5  6  1  0
  5 21  1  0
  6 13  1  0
  6  7  2  0
  7  8  1  0
  7 10  1  0
  8  9  1  0
  9 31  1  0
  9 33  1  0
  9 32  1  0
 10 11  1  0
 11 12  1  0
 12 36  1  0
 12 35  1  0
 12 34  1  0
 13 14  2  0
 13 15  1  0
 15 16  2  0
 15 20  1  0
 16 37  1  0
 16 17  1  0
 17 38  1  0
 17 18  2  0
 18 19  1  0
 18 39  1  0
 19 20  2  0
 19 40  1  0
 20 21  1  0
 21 22  1  0
 22 23  1  0
 22 41  1  0
 22 42  1  0
 23 24  1  0
 24 25  1  0
 24 26  2  0
 25 44  1  0
 25 45  1  0
 25 43  1  0
M  END
>  <id>  (648) 
752

>  <scaffolds>  (648) 
['c1ccccc1', 'O=c1c2ccccc2[nH]c2ccccc12']

>  <name>  (648) 
Toddaliopsin B

>  <formula>  (648) 
C19H19NO6

>  <SMILES>  (648) 
COc1cc3c(c(OC)c1OC)c(=O)c2ccccc2n3COC(C)=O

>  <ChEMBL_id>  (648) 


>  <ZINC_id>  (648) 


>  <PubChem_id>  (648) 


>  <DrugBank_id>  (648) 


>  <CAS_no>  (648) 
865103-32-8

>  <references>  (648) 
[{'journal': {'name': 'Phytochemistry', 'id': 10}, 'title': 'N-Substituted acridone alkaloids from Toddaliopsis bremekampii (Rutaceae: Toddalioideae) of south-central Africa', 'year': 2005, 'start_page': 1724, 'volume': 66, 'issue': None, 'doi': '10.1016/j.phytochem.2005.04.036', 'isbn': '', 'despositor': {'code': 'AMU', 'first_name': 'Arnold', 'last_name': 'Amusengeri', 'id': 25}, 'refauthors_set': [{'author': {'first_name': 'Dashnie', 'initials': 'D', 'last_name': 'Naidoo', 'id': 899}, 'first_author': True, 'id': 1476}, {'author': {'first_name': '', 'initials': 'PH', 'last_name': 'Coombes', 'id': 795}, 'first_author': None, 'id': 1477}, {'author': {'first_name': 'Dulcie', 'initials': 'DA', 'last_name': 'Mulholland', 'id': 525}, 'first_author': None, 'id': 1478}, {'author': {'first_name': 'Neil', 'initials': 'NR', 'last_name': 'Crouch', 'id': 524}, 'first_author': None, 'id': 1479}, {'author': {'first_name': 'Albert', 'initials': 'AJJ', 'last_name': 'van den Berg', 'id': 728}, 'first_author': None, 'id': 1480}], 'id': 420}]

>  <classifications>  (648) 
[{'classification': 'Quinolines and derivatives (Classyfire)', 'id': 948}]

>  <molecular_mass>  (648) 
357.36

$$$$
SANC00753_minRM1.pdb
     RDKit          3D

 42 44  0  0  0  0  0  0  0  0999 V2000
    4.0590    2.8580    0.5560 C   0  0  0  0  0  0  0  0  0  0  0  0
    2.6950    2.6760    0.2500 O   0  0  0  0  0  0  0  0  0  0  0  0
    2.2020    1.4120    0.2350 C   0  0  0  0  0  0  0  0  0  0  0  0
    0.8360    1.3520    0.5350 C   0  0  0  0  0  0  0  0  0  0  0  0
    0.1730    0.1230    0.5160 C   0  0  0  0  0  0  0  0  0  0  0  0
    0.8780   -1.0540    0.2130 C   0  0  0  0  0  0  0  0  0  0  0  0
    2.2530   -0.9780   -0.0870 C   0  0  0  0  0  0  0  0  0  0  0  0
    2.9170    0.2590   -0.0950 C   0  0  0  0  0  0  0  0  0  0  0  0
    4.2640    0.2860   -0.3270 O   0  0  0  0  0  0  0  0  0  0  0  0
    4.5730    0.1960   -1.7010 C   0  0  0  0  0  0  0  0  0  0  0  0
    2.9890   -2.0450   -0.3970 O   0  0  0  0  0  0  0  0  0  0  0  0
    0.2260   -2.3440    0.1980 C   0  0  0  0  0  0  0  0  0  0  0  0
    0.8740   -3.3620   -0.0820 O   0  0  0  0  0  0  0  0  0  0  0  0
   -1.1940   -2.3780    0.5170 C   0  0  0  0  0  0  0  0  0  0  0  0
   -1.8790   -1.1920    0.8130 C   0  0  0  0  0  0  0  0  0  0  0  0
   -1.1910    0.0410    0.8630 N   0  0  0  0  0  0  0  0  0  0  0  0
   -1.9820    1.2820    0.8960 C   0  0  0  0  0  0  0  0  0  0  0  0
   -2.3350    1.4960   -0.4640 O   0  0  0  0  0  0  0  0  0  0  0  0
   -3.0640    2.6030   -0.7610 C   0  0  0  0  0  0  0  0  0  0  0  0
   -3.4240    3.3480    0.1320 O   0  0  0  0  0  0  0  0  0  0  0  0
   -3.3160    2.7230   -2.2260 C   0  0  0  0  0  0  0  0  0  0  0  0
   -3.2530   -1.2530    1.1160 C   0  0  0  0  0  0  0  0  0  0  0  0
   -3.9060   -2.4700    1.1180 C   0  0  0  0  0  0  0  0  0  0  0  0
   -3.2220   -3.6490    0.8230 C   0  0  0  0  0  0  0  0  0  0  0  0
   -1.8740   -3.6010    0.5260 C   0  0  0  0  0  0  0  0  0  0  0  0
    4.6970    2.7430   -0.3350 H   0  0  0  0  0  0  0  0  0  0  0  0
    4.4350    2.2060    1.3610 H   0  0  0  0  0  0  0  0  0  0  0  0
    4.1080    3.9060    0.8910 H   0  0  0  0  0  0  0  0  0  0  0  0
    0.3140    2.2830    0.7840 H   0  0  0  0  0  0  0  0  0  0  0  0
    4.1700    1.0400   -2.2860 H   0  0  0  0  0  0  0  0  0  0  0  0
    5.6720    0.2300   -1.7280 H   0  0  0  0  0  0  0  0  0  0  0  0
    4.2360   -0.7420   -2.1700 H   0  0  0  0  0  0  0  0  0  0  0  0
    2.4420   -2.8770   -0.3590 H   0  0  0  0  0  0  0  0  0  0  0  0
   -1.3870    2.1390    1.3070 H   0  0  0  0  0  0  0  0  0  0  0  0
   -2.8910    1.1760    1.5430 H   0  0  0  0  0  0  0  0  0  0  0  0
   -3.7700    1.8090   -2.6390 H   0  0  0  0  0  0  0  0  0  0  0  0
   -2.3770    2.8940   -2.7760 H   0  0  0  0  0  0  0  0  0  0  0  0
   -3.9910    3.5630   -2.4460 H   0  0  0  0  0  0  0  0  0  0  0  0
   -3.8200   -0.3470    1.3590 H   0  0  0  0  0  0  0  0  0  0  0  0
   -4.9750   -2.5100    1.3560 H   0  0  0  0  0  0  0  0  0  0  0  0
   -3.7530   -4.6050    0.8290 H   0  0  0  0  0  0  0  0  0  0  0  0
   -1.3280   -4.5240    0.2960 H   0  0  0  0  0  0  0  0  0  0  0  0
  1 26  1  0
  1  2  1  0
  1 28  1  0
  1 27  1  0
  2  3  1  0
  3  8  2  0
  3  4  1  0
  4  5  2  0
  4 29  1  0
  5  6  1  0
  5 16  1  0
  6  7  2  0
  6 12  1  0
  7 11  1  0
  7  8  1  0
  8  9  1  0
  9 10  1  0
 10 30  1  0
 10 32  1  0
 10 31  1  0
 11 33  1  0
 12 13  2  0
 12 14  1  0
 14 25  2  0
 14 15  1  0
 15 16  1  0
 15 22  2  0
 16 17  1  0
 17 18  1  0
 17 34  1  0
 17 35  1  0
 18 19  1  0
 19 21  1  0
 19 20  2  0
 21 37  1  0
 21 36  1  0
 21 38  1  0
 22 23  1  0
 22 39  1  0
 23 24  2  0
 23 40  1  0
 24 25  1  0
 24 41  1  0
 25 42  1  0
M  END
>  <id>  (649) 
753

>  <scaffolds>  (649) 
['c1ccccc1', 'O=c1c2ccccc2[nH]c2ccccc12']

>  <name>  (649) 
Toddaliopsin C

>  <formula>  (649) 
C18H17NO6

>  <SMILES>  (649) 
COc1cc2c(c(c1OC)O)c(=O)c1c(n2COC(=O)C)cccc1

>  <ChEMBL_id>  (649) 


>  <ZINC_id>  (649) 


>  <PubChem_id>  (649) 


>  <DrugBank_id>  (649) 


>  <CAS_no>  (649) 
865103-33-9

>  <references>  (649) 
[{'journal': {'name': 'Phytochemistry', 'id': 10}, 'title': 'N-Substituted acridone alkaloids from Toddaliopsis bremekampii (Rutaceae: Toddalioideae) of south-central Africa', 'year': 2005, 'start_page': 1724, 'volume': 66, 'issue': None, 'doi': '10.1016/j.phytochem.2005.04.036', 'isbn': '', 'despositor': {'code': 'AMU', 'first_name': 'Arnold', 'last_name': 'Amusengeri', 'id': 25}, 'refauthors_set': [{'author': {'first_name': 'Dashnie', 'initials': 'D', 'last_name': 'Naidoo', 'id': 899}, 'first_author': True, 'id': 1476}, {'author': {'first_name': '', 'initials': 'PH', 'last_name': 'Coombes', 'id': 795}, 'first_author': None, 'id': 1477}, {'author': {'first_name': 'Dulcie', 'initials': 'DA', 'last_name': 'Mulholland', 'id': 525}, 'first_author': None, 'id': 1478}, {'author': {'first_name': 'Neil', 'initials': 'NR', 'last_name': 'Crouch', 'id': 524}, 'first_author': None, 'id': 1479}, {'author': {'first_name': 'Albert', 'initials': 'AJJ', 'last_name': 'van den Berg', 'id': 728}, 'first_author': None, 'id': 1480}], 'id': 420}]

>  <classifications>  (649) 
[{'classification': 'Quinolines and derivatives (Classyfire)', 'id': 948}]

>  <molecular_mass>  (649) 
343.33

$$$$
SANC00754_minRM1.pdb
     RDKit          3D

 43 45  0  0  0  0  0  0  0  0999 V2000
   -2.6140    3.5240    1.6210 C   0  0  0  0  0  0  0  0  0  0  0  0
   -1.8930    2.4180    1.1540 O   0  0  0  0  0  0  0  0  0  0  0  0
   -1.8700    2.3080   -0.2540 C   0  0  0  0  0  0  0  0  0  0  0  0
   -1.4350    0.9240   -0.5180 N   0  0  0  0  0  0  0  0  0  0  0  0
   -0.0700    0.6050   -0.3730 C   0  0  0  0  0  0  0  0  0  0  0  0
    0.8930    1.6120   -0.5730 C   0  0  0  0  0  0  0  0  0  0  0  0
    2.2360    1.2770   -0.5240 C   0  0  0  0  0  0  0  0  0  0  0  0
    3.2620    2.1500   -0.6920 O   0  0  0  0  0  0  0  0  0  0  0  0
    2.9480    3.4830   -1.0100 C   0  0  0  0  0  0  0  0  0  0  0  0
    2.6580   -0.0480   -0.2940 C   0  0  0  0  0  0  0  0  0  0  0  0
    1.6970   -1.0410   -0.1190 C   0  0  0  0  0  0  0  0  0  0  0  0
    0.3240   -0.7100   -0.1020 C   0  0  0  0  0  0  0  0  0  0  0  0
   -0.6700   -1.7280    0.2380 C   0  0  0  0  0  0  0  0  0  0  0  0
   -0.3880   -2.7640    0.8190 O   0  0  0  0  0  0  0  0  0  0  0  0
   -2.0530   -1.4080   -0.1410 C   0  0  0  0  0  0  0  0  0  0  0  0
   -2.4140   -0.0970   -0.4630 C   0  0  0  0  0  0  0  0  0  0  0  0
   -3.7490    0.1920   -0.7960 C   0  0  0  0  0  0  0  0  0  0  0  0
   -4.6880   -0.8230   -0.8120 C   0  0  0  0  0  0  0  0  0  0  0  0
   -4.3260   -2.1320   -0.5010 C   0  0  0  0  0  0  0  0  0  0  0  0
   -3.0140   -2.4200   -0.1660 C   0  0  0  0  0  0  0  0  0  0  0  0
    1.9290   -2.3700   -0.0490 O   0  0  0  0  0  0  0  0  0  0  0  0
    3.1600   -2.8280    0.4580 C   0  0  0  0  0  0  0  0  0  0  0  0
    3.9850   -0.3620   -0.3830 O   0  0  0  0  0  0  0  0  0  0  0  0
    4.7400    0.0910    0.7210 C   0  0  0  0  0  0  0  0  0  0  0  0
   -3.6880    3.4820    1.3700 H   0  0  0  0  0  0  0  0  0  0  0  0
   -2.2110    4.4870    1.2640 H   0  0  0  0  0  0  0  0  0  0  0  0
   -2.5070    3.4780    2.7160 H   0  0  0  0  0  0  0  0  0  0  0  0
   -2.8650    2.5090   -0.7330 H   0  0  0  0  0  0  0  0  0  0  0  0
   -1.1530    3.0460   -0.6990 H   0  0  0  0  0  0  0  0  0  0  0  0
    0.5690    2.6370   -0.7710 H   0  0  0  0  0  0  0  0  0  0  0  0
    3.9370    3.9530   -1.1260 H   0  0  0  0  0  0  0  0  0  0  0  0
    2.4000    4.0040   -0.2080 H   0  0  0  0  0  0  0  0  0  0  0  0
    2.3950    3.5870   -1.9580 H   0  0  0  0  0  0  0  0  0  0  0  0
   -4.0550    1.2120   -1.0520 H   0  0  0  0  0  0  0  0  0  0  0  0
   -5.7260   -0.5950   -1.0740 H   0  0  0  0  0  0  0  0  0  0  0  0
   -5.0770   -2.9260   -0.5200 H   0  0  0  0  0  0  0  0  0  0  0  0
   -2.7240   -3.4470    0.0850 H   0  0  0  0  0  0  0  0  0  0  0  0
    3.9580   -2.8020   -0.3010 H   0  0  0  0  0  0  0  0  0  0  0  0
    2.9440   -3.8790    0.7100 H   0  0  0  0  0  0  0  0  0  0  0  0
    3.4950   -2.3080    1.3680 H   0  0  0  0  0  0  0  0  0  0  0  0
    5.6100   -0.5830    0.7550 H   0  0  0  0  0  0  0  0  0  0  0  0
    4.2170    0.0490    1.6890 H   0  0  0  0  0  0  0  0  0  0  0  0
    5.1050    1.1200    0.5730 H   0  0  0  0  0  0  0  0  0  0  0  0
  1  2  1  0
  1 26  1  0
  1 25  1  0
  1 27  1  0
  2  3  1  0
  3 28  1  0
  3 29  1  0
  3  4  1  0
  4 16  1  0
  4  5  1  0
  5  6  2  0
  5 12  1  0
  6 30  1  0
  6  7  1  0
  7  8  1  0
  7 10  2  0
  8  9  1  0
  9 33  1  0
  9 31  1  0
  9 32  1  0
 10 23  1  0
 10 11  1  0
 11 12  2  0
 11 21  1  0
 12 13  1  0
 13 15  1  0
 13 14  2  0
 15 16  2  0
 15 20  1  0
 16 17  1  0
 17 34  1  0
 17 18  2  0
 18 35  1  0
 18 19  1  0
 19 36  1  0
 19 20  2  0
 20 37  1  0
 21 22  1  0
 22 38  1  0
 22 39  1  0
 22 40  1  0
 23 24  1  0
 24 43  1  0
 24 41  1  0
 24 42  1  0
M  END
>  <id>  (650) 
754

>  <scaffolds>  (650) 
['c1ccccc1', 'O=c1c2ccccc2[nH]c2ccccc12']

>  <name>  (650) 
Toddaliopsin D

>  <formula>  (650) 
C18H19NO5

>  <SMILES>  (650) 
COCn1c2cc(OC)c(c(c2c(=O)c2c1cccc2)OC)OC

>  <ChEMBL_id>  (650) 


>  <ZINC_id>  (650) 


>  <PubChem_id>  (650) 


>  <DrugBank_id>  (650) 


>  <CAS_no>  (650) 
865103-34-0

>  <references>  (650) 
[{'journal': {'name': 'Phytochemistry', 'id': 10}, 'title': 'N-Substituted acridone alkaloids from Toddaliopsis bremekampii (Rutaceae: Toddalioideae) of south-central Africa', 'year': 2005, 'start_page': 1724, 'volume': 66, 'issue': None, 'doi': '10.1016/j.phytochem.2005.04.036', 'isbn': '', 'despositor': {'code': 'AMU', 'first_name': 'Arnold', 'last_name': 'Amusengeri', 'id': 25}, 'refauthors_set': [{'author': {'first_name': 'Dashnie', 'initials': 'D', 'last_name': 'Naidoo', 'id': 899}, 'first_author': True, 'id': 1476}, {'author': {'first_name': '', 'initials': 'PH', 'last_name': 'Coombes', 'id': 795}, 'first_author': None, 'id': 1477}, {'author': {'first_name': 'Dulcie', 'initials': 'DA', 'last_name': 'Mulholland', 'id': 525}, 'first_author': None, 'id': 1478}, {'author': {'first_name': 'Neil', 'initials': 'NR', 'last_name': 'Crouch', 'id': 524}, 'first_author': None, 'id': 1479}, {'author': {'first_name': 'Albert', 'initials': 'AJJ', 'last_name': 'van den Berg', 'id': 728}, 'first_author': None, 'id': 1480}], 'id': 420}]

>  <classifications>  (650) 
[{'classification': 'Quinolines and derivatives (Classyfire)', 'id': 948}]

>  <molecular_mass>  (650) 
329.35

$$$$
SANC00755_minRM1.pdb
     RDKit          3D

 22 23  0  0  0  0  0  0  0  0999 V2000
   -3.7880   -1.4020   -0.3380 C   0  0  0  0  0  0  0  0  0  0  0  0
   -3.1730   -0.6400    0.6770 O   0  0  0  0  0  0  0  0  0  0  0  0
   -1.8750   -0.3160    0.3730 C   0  0  0  0  0  0  0  0  0  0  0  0
   -0.8680   -1.2550    0.4770 C   0  0  0  0  0  0  0  0  0  0  0  0
    0.4550   -0.8670    0.2410 C   0  0  0  0  0  0  0  0  0  0  0  0
    1.5530   -1.7930    0.3280 C   0  0  0  0  0  0  0  0  0  0  0  0
    2.7990   -1.3570    0.0880 C   0  0  0  0  0  0  0  0  0  0  0  0
    3.0410    0.0370   -0.2560 C   0  0  0  0  0  0  0  0  0  0  0  0
    4.1070    0.5660   -0.5010 O   0  0  0  0  0  0  0  0  0  0  0  0
    1.9790    0.9210   -0.3340 O   0  0  0  0  0  0  0  0  0  0  0  0
    0.7240    0.4670   -0.0860 C   0  0  0  0  0  0  0  0  0  0  0  0
   -0.2800    1.4360   -0.1800 C   0  0  0  0  0  0  0  0  0  0  0  0
   -1.5890    1.0310    0.0570 C   0  0  0  0  0  0  0  0  0  0  0  0
   -2.5290    1.9910   -0.0440 O   0  0  0  0  0  0  0  0  0  0  0  0
   -4.8040   -1.5870    0.0410 H   0  0  0  0  0  0  0  0  0  0  0  0
   -3.2920   -2.3710   -0.5160 H   0  0  0  0  0  0  0  0  0  0  0  0
   -3.8530   -0.8640   -1.2990 H   0  0  0  0  0  0  0  0  0  0  0  0
   -1.1010   -2.2920    0.7430 H   0  0  0  0  0  0  0  0  0  0  0  0
    1.3450   -2.8360    0.5900 H   0  0  0  0  0  0  0  0  0  0  0  0
    3.6810   -2.0010    0.1360 H   0  0  0  0  0  0  0  0  0  0  0  0
   -0.0420    2.4760   -0.4290 H   0  0  0  0  0  0  0  0  0  0  0  0
   -3.3860    1.6400    0.2310 H   0  0  0  0  0  0  0  0  0  0  0  0
  1 17  1  0
  1 16  1  0
  1 15  1  0
  1  2  1  0
  2  3  1  0
  3 13  2  0
  3  4  1  0
  4  5  2  0
  4 18  1  0
  5 11  1  0
  5  6  1  0
  6  7  2  0
  6 19  1  0
  7  8  1  0
  7 20  1  0
  8  9  2  0
  8 10  1  0
 10 11  1  0
 11 12  2  0
 12 21  1  0
 12 13  1  0
 13 14  1  0
 14 22  1  0
M  END
>  <id>  (651) 
755

>  <scaffolds>  (651) 
['c1ccccc1', 'O=c1ccc2ccccc2o1']

>  <name>  (651) 
Scopoletin

>  <formula>  (651) 
C10H8O4

>  <SMILES>  (651) 
COc1cc2ccc(=O)oc2cc1O

>  <ChEMBL_id>  (651) 
CHEMBL71851

>  <ZINC_id>  (651) 
ZINC00057733

>  <PubChem_id>  (651) 
5280460

>  <DrugBank_id>  (651) 


>  <CAS_no>  (651) 
92-61-5

>  <references>  (651) 
[{'journal': {'name': 'Phytochemistry', 'id': 10}, 'title': 'Coumarins from Olea africana and Olea capensis', 'year': 1984, 'start_page': 699, 'volume': 23, 'issue': None, 'doi': '10.1016/S0031-9422(00)80417-3', 'isbn': '', 'despositor': {'code': 'AMU', 'first_name': 'Arnold', 'last_name': 'Amusengeri', 'id': 25}, 'refauthors_set': [{'author': {'first_name': '', 'initials': 'H', 'last_name': 'Tsukamoto', 'id': 917}, 'first_author': True, 'id': 1498}, {'author': {'first_name': '', 'initials': 'S', 'last_name': 'Hisada', 'id': 918}, 'first_author': None, 'id': 1499}, {'author': {'first_name': '', 'initials': 'S', 'last_name': 'Nishibe', 'id': 919}, 'first_author': None, 'id': 1500}, {'author': {'first_name': 'David', 'initials': 'G', 'last_name': 'Roux', 'id': 920}, 'first_author': None, 'id': 1501}, {'author': {'first_name': 'John', 'initials': 'P', 'last_name': 'Rourke', 'id': 921}, 'first_author': None, 'id': 1502}], 'id': 422}]

>  <classifications>  (651) 
[{'classification': 'Coumarins and derivatives (Classyfire)', 'id': 965}]

>  <molecular_mass>  (651) 
192.17

$$$$
SANC00756_minRM1.pdb
     RDKit          3D

 19 20  0  0  0  0  0  0  0  0999 V2000
    3.7710   -0.9430   -0.0000 O   0  0  0  0  0  0  0  0  0  0  0  0
    2.7470   -0.2890   -0.0000 C   0  0  0  0  0  0  0  0  0  0  0  0
    2.6200    1.1620   -0.0020 C   0  0  0  0  0  0  0  0  0  0  0  0
    1.4090    1.7400    0.0000 C   0  0  0  0  0  0  0  0  0  0  0  0
    0.2340    0.9090    0.0020 C   0  0  0  0  0  0  0  0  0  0  0  0
    0.3940   -0.4740    0.0010 C   0  0  0  0  0  0  0  0  0  0  0  0
    1.6110   -1.0770    0.0010 O   0  0  0  0  0  0  0  0  0  0  0  0
   -0.6980   -1.3570   -0.0000 C   0  0  0  0  0  0  0  0  0  0  0  0
   -1.9680   -0.8080   -0.0010 C   0  0  0  0  0  0  0  0  0  0  0  0
   -2.1510    0.6020    0.0010 C   0  0  0  0  0  0  0  0  0  0  0  0
   -1.0620    1.4500    0.0030 C   0  0  0  0  0  0  0  0  0  0  0  0
   -3.4450    1.0050    0.0010 O   0  0  0  0  0  0  0  0  0  0  0  0
   -3.1050   -1.5320   -0.0030 O   0  0  0  0  0  0  0  0  0  0  0  0
    3.5560    1.7270   -0.0040 H   0  0  0  0  0  0  0  0  0  0  0  0
    1.2870    2.8280    0.0000 H   0  0  0  0  0  0  0  0  0  0  0  0
   -0.5270   -2.4370   -0.0010 H   0  0  0  0  0  0  0  0  0  0  0  0
   -1.1900    2.5360    0.0050 H   0  0  0  0  0  0  0  0  0  0  0  0
   -3.4610    1.9690   -0.0080 H   0  0  0  0  0  0  0  0  0  0  0  0
   -2.8760   -2.4700    0.0020 H   0  0  0  0  0  0  0  0  0  0  0  0
  1  2  2  0
  2  3  1  0
  2  7  1  0
  3 14  1  0
  3  4  2  0
  4 15  1  0
  4  5  1  0
  5  6  2  0
  5 11  1  0
  6  8  1  0
  6  7  1  0
  8  9  2  0
  8 16  1  0
  9 13  1  0
  9 10  1  0
 10 12  1  0
 10 11  2  0
 11 17  1  0
 12 18  1  0
 13 19  1  0
M  END
>  <id>  (652) 
756

>  <scaffolds>  (652) 
['c1ccccc1', 'O=c1ccc2ccccc2o1']

>  <name>  (652) 
Esculetin

>  <formula>  (652) 
C9H6O4

>  <SMILES>  (652) 
O=c1ccc2c(o1)cc(c(c2)O)O

>  <ChEMBL_id>  (652) 
CHEMBL244743

>  <ZINC_id>  (652) 
ZINC57908

>  <PubChem_id>  (652) 
5281416

>  <DrugBank_id>  (652) 


>  <CAS_no>  (652) 
305-01-1

>  <references>  (652) 
[{'journal': {'name': 'Phytochemistry', 'id': 10}, 'title': 'Coumarins from Olea africana and Olea capensis', 'year': 1984, 'start_page': 699, 'volume': 23, 'issue': None, 'doi': '10.1016/S0031-9422(00)80417-3', 'isbn': '', 'despositor': {'code': 'AMU', 'first_name': 'Arnold', 'last_name': 'Amusengeri', 'id': 25}, 'refauthors_set': [{'author': {'first_name': '', 'initials': 'H', 'last_name': 'Tsukamoto', 'id': 917}, 'first_author': True, 'id': 1498}, {'author': {'first_name': '', 'initials': 'S', 'last_name': 'Hisada', 'id': 918}, 'first_author': None, 'id': 1499}, {'author': {'first_name': '', 'initials': 'S', 'last_name': 'Nishibe', 'id': 919}, 'first_author': None, 'id': 1500}, {'author': {'first_name': 'David', 'initials': 'G', 'last_name': 'Roux', 'id': 920}, 'first_author': None, 'id': 1501}, {'author': {'first_name': 'John', 'initials': 'P', 'last_name': 'Rourke', 'id': 921}, 'first_author': None, 'id': 1502}], 'id': 422}]

>  <classifications>  (652) 
[{'classification': 'Coumarins and derivatives (Classyfire)', 'id': 965}]

>  <molecular_mass>  (652) 
178.14

$$$$
SANC00757_minRM1.pdb
     RDKit          3D

 25 26  0  0  0  0  0  0  0  0999 V2000
    2.5680    2.8720    0.0000 C   0  0  0  0  0  0  0  0  0  0  0  0
    2.6560    1.4680    0.0010 O   0  0  0  0  0  0  0  0  0  0  0  0
    1.4900    0.7750    0.0010 C   0  0  0  0  0  0  0  0  0  0  0  0
    0.2230    1.3190   -0.0010 C   0  0  0  0  0  0  0  0  0  0  0  0
   -0.8670    0.4300   -0.0000 C   0  0  0  0  0  0  0  0  0  0  0  0
   -2.0860    1.0310   -0.0030 O   0  0  0  0  0  0  0  0  0  0  0  0
   -3.2200    0.2410   -0.0020 C   0  0  0  0  0  0  0  0  0  0  0  0
   -4.2460    0.8940   -0.0050 O   0  0  0  0  0  0  0  0  0  0  0  0
   -3.0900   -1.2090    0.0000 C   0  0  0  0  0  0  0  0  0  0  0  0
   -1.8770   -1.7840    0.0020 C   0  0  0  0  0  0  0  0  0  0  0  0
   -0.7040   -0.9500    0.0020 C   0  0  0  0  0  0  0  0  0  0  0  0
    0.5950   -1.4900    0.0040 C   0  0  0  0  0  0  0  0  0  0  0  0
    1.6770   -0.6410    0.0030 C   0  0  0  0  0  0  0  0  0  0  0  0
    2.9930   -1.0000    0.0060 O   0  0  0  0  0  0  0  0  0  0  0  0
    3.2720   -2.3770   -0.0030 C   0  0  0  0  0  0  0  0  0  0  0  0
    2.0760    3.2770   -0.8990 H   0  0  0  0  0  0  0  0  0  0  0  0
    2.0750    3.2780    0.8990 H   0  0  0  0  0  0  0  0  0  0  0  0
    3.6230    3.1890    0.0010 H   0  0  0  0  0  0  0  0  0  0  0  0
    0.0290    2.3950   -0.0030 H   0  0  0  0  0  0  0  0  0  0  0  0
   -4.0240   -1.7760    0.0000 H   0  0  0  0  0  0  0  0  0  0  0  0
   -1.7540   -2.8710    0.0040 H   0  0  0  0  0  0  0  0  0  0  0  0
    0.7040   -2.5780    0.0060 H   0  0  0  0  0  0  0  0  0  0  0  0
    2.9030   -2.8930   -0.9040 H   0  0  0  0  0  0  0  0  0  0  0  0
    2.9050   -2.9040    0.8930 H   0  0  0  0  0  0  0  0  0  0  0  0
    4.3730   -2.4100   -0.0040 H   0  0  0  0  0  0  0  0  0  0  0  0
  1 16  1  0
  1  2  1  0
  1 18  1  0
  1 17  1  0
  2  3  1  0
  3  4  2  0
  3 13  1  0
  4 19  1  0
  4  5  1  0
  5  6  1  0
  5 11  2  0
  6  7  1  0
  7  8  2  0
  7  9  1  0
  9 20  1  0
  9 10  2  0
 10 11  1  0
 10 21  1  0
 11 12  1  0
 12 13  2  0
 12 22  1  0
 13 14  1  0
 14 15  1  0
 15 23  1  0
 15 25  1  0
 15 24  1  0
M  END
>  <id>  (653) 
757

>  <scaffolds>  (653) 
['c1ccccc1', 'O=c1ccc2ccccc2o1']

>  <name>  (653) 
Scoparone

>  <formula>  (653) 
C11H10O4

>  <SMILES>  (653) 
COc1cc2oc(=O)ccc2cc1OC

>  <ChEMBL_id>  (653) 
CHEMBL325864

>  <ZINC_id>  (653) 
ZINC2067

>  <PubChem_id>  (653) 
8417

>  <DrugBank_id>  (653) 


>  <CAS_no>  (653) 
120-08-1

>  <references>  (653) 
[{'journal': {'name': 'Phytochemistry', 'id': 10}, 'title': 'Coumarins from Olea africana and Olea capensis', 'year': 1984, 'start_page': 699, 'volume': 23, 'issue': None, 'doi': '10.1016/S0031-9422(00)80417-3', 'isbn': '', 'despositor': {'code': 'AMU', 'first_name': 'Arnold', 'last_name': 'Amusengeri', 'id': 25}, 'refauthors_set': [{'author': {'first_name': '', 'initials': 'H', 'last_name': 'Tsukamoto', 'id': 917}, 'first_author': True, 'id': 1498}, {'author': {'first_name': '', 'initials': 'S', 'last_name': 'Hisada', 'id': 918}, 'first_author': None, 'id': 1499}, {'author': {'first_name': '', 'initials': 'S', 'last_name': 'Nishibe', 'id': 919}, 'first_author': None, 'id': 1500}, {'author': {'first_name': 'David', 'initials': 'G', 'last_name': 'Roux', 'id': 920}, 'first_author': None, 'id': 1501}, {'author': {'first_name': 'John', 'initials': 'P', 'last_name': 'Rourke', 'id': 921}, 'first_author': None, 'id': 1502}], 'id': 422}]

>  <classifications>  (653) 
[{'classification': 'Coumarins and derivatives (Classyfire)', 'id': 965}]

>  <molecular_mass>  (653) 
206.19

$$$$
SANC00758_minRM1.pdb
     RDKit          3D

 22 23  0  0  0  0  0  0  0  0999 V2000
   -3.9850    0.9840   -0.2530 C   0  0  0  0  0  0  0  0  0  0  0  0
   -2.8510    1.2600    0.5410 O   0  0  0  0  0  0  0  0  0  0  0  0
   -1.7550    0.4870    0.3090 C   0  0  0  0  0  0  0  0  0  0  0  0
   -0.5500    1.1670    0.2290 C   0  0  0  0  0  0  0  0  0  0  0  0
    0.6240    0.4120    0.0950 C   0  0  0  0  0  0  0  0  0  0  0  0
    1.7690    1.1430    0.0290 O   0  0  0  0  0  0  0  0  0  0  0  0
    2.9730    0.4830   -0.1120 C   0  0  0  0  0  0  0  0  0  0  0  0
    3.9230    1.2400   -0.1640 O   0  0  0  0  0  0  0  0  0  0  0  0
    2.9980   -0.9740   -0.1830 C   0  0  0  0  0  0  0  0  0  0  0  0
    1.8600   -1.6790   -0.1160 C   0  0  0  0  0  0  0  0  0  0  0  0
    0.6080   -0.9800    0.0280 C   0  0  0  0  0  0  0  0  0  0  0  0
   -0.6170   -1.6530    0.1050 C   0  0  0  0  0  0  0  0  0  0  0  0
   -1.7870   -0.9270    0.2510 C   0  0  0  0  0  0  0  0  0  0  0  0
   -3.0130   -1.5030    0.3370 O   0  0  0  0  0  0  0  0  0  0  0  0
   -4.6830    0.3200    0.2810 H   0  0  0  0  0  0  0  0  0  0  0  0
   -3.7670    0.5530   -1.2430 H   0  0  0  0  0  0  0  0  0  0  0  0
   -4.4670    1.9650   -0.3900 H   0  0  0  0  0  0  0  0  0  0  0  0
   -0.5110    2.2600    0.2810 H   0  0  0  0  0  0  0  0  0  0  0  0
    3.9850   -1.4320   -0.2910 H   0  0  0  0  0  0  0  0  0  0  0  0
    1.8520   -2.7730   -0.1670 H   0  0  0  0  0  0  0  0  0  0  0  0
   -0.6320   -2.7460    0.0580 H   0  0  0  0  0  0  0  0  0  0  0  0
   -2.9010   -2.4600    0.3750 H   0  0  0  0  0  0  0  0  0  0  0  0
  1 16  1  0
  1 17  1  0
  1 15  1  0
  1  2  1  0
  2  3  1  0
  3  4  2  0
  3 13  1  0
  4  5  1  0
  4 18  1  0
  5 11  2  0
  5  6  1  0
  6  7  1  0
  7  9  1  0
  7  8  2  0
  9 19  1  0
  9 10  2  0
 10 20  1  0
 10 11  1  0
 11 12  1  0
 12 21  1  0
 12 13  2  0
 13 14  1  0
 14 22  1  0
M  END
>  <id>  (654) 
758

>  <scaffolds>  (654) 
['c1ccccc1', 'O=c1ccc2ccccc2o1']

>  <name>  (654) 
Isoscopoletin

>  <formula>  (654) 
C10H8O4

>  <SMILES>  (654) 
COc1cc2oc(=O)ccc2cc1O

>  <ChEMBL_id>  (654) 
CHEMBL390320

>  <ZINC_id>  (654) 
ZINC01845692

>  <PubChem_id>  (654) 
69894

>  <DrugBank_id>  (654) 


>  <CAS_no>  (654) 
776-86-3

>  <references>  (654) 
[{'journal': {'name': 'Phytochemistry', 'id': 10}, 'title': 'Coumarins from Olea africana and Olea capensis', 'year': 1984, 'start_page': 699, 'volume': 23, 'issue': None, 'doi': '10.1016/S0031-9422(00)80417-3', 'isbn': '', 'despositor': {'code': 'AMU', 'first_name': 'Arnold', 'last_name': 'Amusengeri', 'id': 25}, 'refauthors_set': [{'author': {'first_name': '', 'initials': 'H', 'last_name': 'Tsukamoto', 'id': 917}, 'first_author': True, 'id': 1498}, {'author': {'first_name': '', 'initials': 'S', 'last_name': 'Hisada', 'id': 918}, 'first_author': None, 'id': 1499}, {'author': {'first_name': '', 'initials': 'S', 'last_name': 'Nishibe', 'id': 919}, 'first_author': None, 'id': 1500}, {'author': {'first_name': 'David', 'initials': 'G', 'last_name': 'Roux', 'id': 920}, 'first_author': None, 'id': 1501}, {'author': {'first_name': 'John', 'initials': 'P', 'last_name': 'Rourke', 'id': 921}, 'first_author': None, 'id': 1502}], 'id': 422}]

>  <classifications>  (654) 
[{'classification': 'Coumarins and derivatives (Classyfire)', 'id': 965}]

>  <molecular_mass>  (654) 
192.17

$$$$
SANC00759_minRM1.pdb
     RDKit          3D

 53 55  0  0  1  0  0  0  0  0999 V2000
    2.3510   -2.7840    0.2960 O   0  0  0  0  0  0  0  0  0  0  0  0
    1.5710   -1.7500   -0.2110 C   0  0  1  0  0  0  0  0  0  0  0  0
    1.4650   -1.8640   -1.7350 C   0  0  0  0  0  0  0  0  0  0  0  0
    0.1920   -1.8250    0.4470 C   0  0  0  0  0  0  0  0  0  0  0  0
   -0.1280   -1.2930    1.4820 O   0  0  0  0  0  0  0  0  0  0  0  0
   -0.6900   -2.7410   -0.0830 O   0  0  0  0  0  0  0  0  0  0  0  0
   -1.6850   -2.2820   -0.9590 C   0  0  0  0  0  0  0  0  0  0  0  0
   -2.7320   -1.3900   -0.4020 C   0  0  0  0  0  0  0  0  0  0  0  0
   -4.0280   -1.5070   -0.7190 C   0  0  0  0  0  0  0  0  0  0  0  0
   -4.8320   -0.3790   -0.1460 C   0  0  0  0  0  0  0  0  0  0  0  0
   -3.8590    0.4880    0.5990 N   0  0  0  0  0  0  0  0  0  0  0  0
   -3.7070    1.8690    0.0610 C   0  0  0  0  0  0  0  0  0  0  0  0
   -2.4140    1.9310   -0.7610 C   0  0  0  0  0  0  0  0  0  0  0  0
   -1.5230    0.8250   -0.1660 C   0  0  1  0  0  0  0  0  0  0  0  0
   -0.7860    1.4140    0.8750 O   0  0  0  0  0  0  0  0  0  0  0  0
    0.5740    1.2810    0.9780 C   0  0  0  0  0  0  0  0  0  0  0  0
    0.9870    1.6880    2.0470 O   0  0  0  0  0  0  0  0  0  0  0  0
    1.4330    0.8020   -0.1690 C   0  0  1  0  0  0  0  0  0  0  0  0
    2.2210    2.0420   -0.7110 C   0  0  2  0  0  0  0  0  0  0  0  0
    3.2650    2.6010    0.2560 C   0  0  0  0  0  0  0  0  0  0  0  0
    1.2060    3.1410   -1.0730 C   0  0  0  0  0  0  0  0  0  0  0  0
    2.9540    1.7120   -1.8520 O   0  0  0  0  0  0  0  0  0  0  0  0
    2.3240   -0.4160    0.2080 C   0  0  1  0  0  0  0  0  0  0  0  0
    2.7540   -0.4630    1.6760 C   0  0  0  0  0  0  0  0  0  0  0  0
    3.4410   -0.3170   -0.6180 O   0  0  0  0  0  0  0  0  0  0  0  0
   -2.5140   -0.1860    0.4730 C   0  0  2  0  0  0  0  0  0  0  0  0
    1.9630   -3.6220    0.0180 H   0  0  0  0  0  0  0  0  0  0  0  0
    0.9240   -2.7630   -2.0630 H   0  0  0  0  0  0  0  0  0  0  0  0
    2.4580   -1.9290   -2.2090 H   0  0  0  0  0  0  0  0  0  0  0  0
    0.9690   -0.9860   -2.1760 H   0  0  0  0  0  0  0  0  0  0  0  0
   -2.1220   -3.2490   -1.3030 H   0  0  0  0  0  0  0  0  0  0  0  0
   -1.2480   -1.7980   -1.8650 H   0  0  0  0  0  0  0  0  0  0  0  0
   -4.5010   -2.2860   -1.3100 H   0  0  0  0  0  0  0  0  0  0  0  0
   -5.5750   -0.7440    0.5980 H   0  0  0  0  0  0  0  0  0  0  0  0
   -5.4290    0.1330   -0.9330 H   0  0  0  0  0  0  0  0  0  0  0  0
   -3.6450    2.5350    0.9510 H   0  0  0  0  0  0  0  0  0  0  0  0
   -4.5870    2.2310   -0.5130 H   0  0  0  0  0  0  0  0  0  0  0  0
   -2.6020    1.7440   -1.8370 H   0  0  0  0  0  0  0  0  0  0  0  0
   -1.9430    2.9330   -0.7220 H   0  0  0  0  0  0  0  0  0  0  0  0
   -0.8840    0.3530   -0.9550 H   0  0  0  0  0  0  0  0  0  0  0  0
    0.7750    0.4660   -1.0210 H   0  0  0  0  0  0  0  0  0  0  0  0
    2.8330    2.9540    1.2000 H   0  0  0  0  0  0  0  0  0  0  0  0
    4.0520    1.8730    0.4960 H   0  0  0  0  0  0  0  0  0  0  0  0
    3.7850    3.4660   -0.1860 H   0  0  0  0  0  0  0  0  0  0  0  0
    0.7200    3.5740   -0.1880 H   0  0  0  0  0  0  0  0  0  0  0  0
    1.6960    3.9760   -1.5950 H   0  0  0  0  0  0  0  0  0  0  0  0
    0.4080    2.7860   -1.7410 H   0  0  0  0  0  0  0  0  0  0  0  0
    2.3920    1.2220   -2.4580 H   0  0  0  0  0  0  0  0  0  0  0  0
    3.2300    0.4780    1.9910 H   0  0  0  0  0  0  0  0  0  0  0  0
    1.9360   -0.6430    2.3850 H   0  0  0  0  0  0  0  0  0  0  0  0
    3.4900   -1.2570    1.8760 H   0  0  0  0  0  0  0  0  0  0  0  0
    4.0960   -0.9640   -0.3330 H   0  0  0  0  0  0  0  0  0  0  0  0
   -2.2450   -0.4760    1.5210 H   0  0  0  0  0  0  0  0  0  0  0  0
  1 27  1  0
  2  1  1  1
  2  3  1  0
  2 23  1  0
  2  4  1  0
  3 29  1  0
  3 30  1  0
  3 28  1  0
  4  6  1  0
  4  5  2  0
  6  7  1  0
  7 32  1  0
  7 31  1  0
  7  8  1  0
  8  9  2  0
  8 26  1  0
  9 33  1  0
  9 10  1  0
 10 35  1  0
 10 34  1  0
 11 10  1  0
 11 12  1  0
 11 26  1  0
 12 13  1  0
 12 37  1  0
 12 36  1  0
 13 38  1  0
 13 39  1  0
 13 14  1  0
 14 40  1  6
 14 26  1  0
 14 15  1  0
 15 16  1  0
 16 18  1  0
 16 17  2  0
 18 41  1  6
 18 19  1  0
 18 23  1  0
 19 22  1  6
 19 21  1  0
 19 20  1  0
 20 44  1  0
 20 43  1  0
 20 42  1  0
 21 47  1  0
 21 46  1  0
 21 45  1  0
 22 48  1  0
 23 25  1  6
 23 24  1  0
 24 51  1  0
 24 49  1  0
 24 50  1  0
 25 52  1  0
 26 53  1  1
M  END
>  <id>  (655) 
759

>  <scaffolds>  (655) 
['O=C1CCCC(=O)OC2CCN3CC=C(CO1)C23', 'C1CCNC1']

>  <name>  (655) 
Globiferine

>  <formula>  (655) 
C18H27NO7

>  <SMILES>  (655) 
[H]OC1(C)C(=O)OCC2=CCN3CCC(OC(=O)C(C(C)(C)O)C1(C)O)C23

>  <ChEMBL_id>  (655) 


>  <ZINC_id>  (655) 


>  <PubChem_id>  (655) 


>  <DrugBank_id>  (655) 


>  <CAS_no>  (655) 
90706-03-9

>  <references>  (655) 
[{'journal': {'name': 'Phytochemistry', 'id': 10}, 'title': 'Globiferine, a pyrrolizidine alkaloid from Crotalaria globifera', 'year': 1984, 'start_page': 457, 'volume': 23, 'issue': 2, 'doi': '0.1016/S0031-9422(00)80352-0', 'isbn': '', 'despositor': {'code': 'GU2', 'first_name': 'Gugu', 'last_name': 'Mahlangu', 'id': 24}, 'refauthors_set': [{'author': {'first_name': 'Kenneth', 'initials': 'K', 'last_name': 'Brown', 'id': 922}, 'first_author': True, 'id': 1503}, {'author': {'first_name': 'Alastair', 'initials': 'JA', 'last_name': 'Devlin', 'id': 923}, 'first_author': None, 'id': 1504}, {'author': {'first_name': 'David', 'initials': 'DJ', 'last_name': 'Robins', 'id': 924}, 'first_author': None, 'id': 1505}], 'id': 423}]

>  <classifications>  (655) 
[{'classification': 'Pyrrolizidine alkaloid', 'id': 875}, {'classification': 'Pyrrolizines (Classyfire)', 'id': 997}]

>  <molecular_mass>  (655) 
369.409

$$$$
SANC00760_minRM1.pdb
     RDKit          3D

 50 53  0  0  1  0  0  0  0  0999 V2000
   -2.0010    1.1930   -0.8600 C   0  0  1  0  0  0  0  0  0  0  0  0
   -2.5910    2.3070    0.0230 C   0  0  0  0  0  0  0  0  0  0  0  0
   -4.0380    1.8780    0.2910 C   0  0  0  0  0  0  0  0  0  0  0  0
   -4.1110    0.3990    0.1650 N   0  0  0  0  0  0  0  0  0  0  0  0
   -3.8360   -0.3340    1.4510 C   0  0  0  0  0  0  0  0  0  0  0  0
   -2.9000   -1.4430    1.0630 C   0  0  0  0  0  0  0  0  0  0  0  0
   -2.4490   -1.2690   -0.1830 C   0  0  0  0  0  0  0  0  0  0  0  0
   -1.6350   -2.2320   -0.9640 C   0  0  0  0  0  0  0  0  0  0  0  0
   -0.2620   -1.9030   -1.0000 O   0  0  0  0  0  0  0  0  0  0  0  0
    0.4600   -2.0070    0.1360 C   0  0  0  0  0  0  0  0  0  0  0  0
   -0.0430   -2.4050    1.1700 O   0  0  0  0  0  0  0  0  0  0  0  0
    1.9410   -1.6580   -0.0490 C   0  0  2  0  0  0  0  0  0  0  0  0
    2.5830   -2.6820   -0.9820 C   0  0  0  0  0  0  0  0  0  0  0  0
    2.5520   -1.6620    1.2020 O   0  0  0  0  0  0  0  0  0  0  0  0
    2.0830   -0.2090   -0.5500 C   0  0  2  0  0  0  0  0  0  0  0  0
    1.8160   -0.0300   -2.0310 C   0  0  0  0  0  0  0  0  0  0  0  0
    3.3670    0.3400   -0.2490 O   0  0  0  0  0  0  0  0  0  0  0  0
    2.8290    1.4360    0.5120 C   0  0  1  0  0  0  0  0  0  0  0  0
    3.3930    1.4420    1.9180 C   0  0  0  0  0  0  0  0  0  0  0  0
    3.0590    2.7540   -0.1930 C   0  0  0  0  0  0  0  0  0  0  0  0
    1.3940    0.8240    0.4010 C   0  0  1  0  0  0  0  0  0  0  0  0
    0.2690    1.5720   -0.2220 C   0  0  0  0  0  0  0  0  0  0  0  0
    0.1850    2.7300   -0.5800 O   0  0  0  0  0  0  0  0  0  0  0  0
   -0.7790    0.7160   -0.3500 O   0  0  0  0  0  0  0  0  0  0  0  0
   -3.0020   -0.0010   -0.7780 C   0  0  2  0  0  0  0  0  0  0  0  0
   -1.8580    1.5350   -1.9170 H   0  0  0  0  0  0  0  0  0  0  0  0
   -2.5280    3.2990   -0.4650 H   0  0  0  0  0  0  0  0  0  0  0  0
   -2.0310    2.4320    0.9720 H   0  0  0  0  0  0  0  0  0  0  0  0
   -4.4220    2.2490    1.2660 H   0  0  0  0  0  0  0  0  0  0  0  0
   -4.7340    2.2970   -0.4700 H   0  0  0  0  0  0  0  0  0  0  0  0
   -4.8050   -0.7180    1.8370 H   0  0  0  0  0  0  0  0  0  0  0  0
   -3.4020    0.2770    2.2750 H   0  0  0  0  0  0  0  0  0  0  0  0
   -2.6690   -2.2570    1.7460 H   0  0  0  0  0  0  0  0  0  0  0  0
   -1.7880   -3.2730   -0.5980 H   0  0  0  0  0  0  0  0  0  0  0  0
   -1.9000   -2.2200   -2.0440 H   0  0  0  0  0  0  0  0  0  0  0  0
    3.6300   -2.4180   -1.1930 H   0  0  0  0  0  0  0  0  0  0  0  0
    2.5900   -3.6940   -0.5510 H   0  0  0  0  0  0  0  0  0  0  0  0
    2.0610   -2.7600   -1.9460 H   0  0  0  0  0  0  0  0  0  0  0  0
    2.4770   -2.5450    1.5830 H   0  0  0  0  0  0  0  0  0  0  0  0
    2.5710   -0.5450   -2.6440 H   0  0  0  0  0  0  0  0  0  0  0  0
    0.8300   -0.3850   -2.3520 H   0  0  0  0  0  0  0  0  0  0  0  0
    1.8710    1.0290   -2.3300 H   0  0  0  0  0  0  0  0  0  0  0  0
    3.3080    0.4640    2.4140 H   0  0  0  0  0  0  0  0  0  0  0  0
    2.8750    2.1770    2.5490 H   0  0  0  0  0  0  0  0  0  0  0  0
    4.4630    1.6960    1.9230 H   0  0  0  0  0  0  0  0  0  0  0  0
    4.1280    3.0130   -0.2210 H   0  0  0  0  0  0  0  0  0  0  0  0
    2.7180    2.7540   -1.2380 H   0  0  0  0  0  0  0  0  0  0  0  0
    2.5340    3.5750    0.3150 H   0  0  0  0  0  0  0  0  0  0  0  0
    1.0400    0.4020    1.3720 H   0  0  0  0  0  0  0  0  0  0  0  0
   -3.4540   -0.1850   -1.7840 H   0  0  0  0  0  0  0  0  0  0  0  0
  1 26  1  6
  1 25  1  0
  1 24  1  0
  1  2  1  0
  2 27  1  0
  2  3  1  0
  2 28  1  0
  3 30  1  0
  3 29  1  0
  4  3  1  0
  4 25  1  0
  4  5  1  0
  5  6  1  0
  5 31  1  0
  5 32  1  0
  6  7  2  0
  6 33  1  0
  7  8  1  0
  7 25  1  0
  8 35  1  0
  8  9  1  0
  8 34  1  0
  9 10  1  0
 10 12  1  0
 10 11  2  0
 12 13  1  0
 12 15  1  0
 12 14  1  1
 13 38  1  0
 13 36  1  0
 13 37  1  0
 14 39  1  0
 15 16  1  6
 15 17  1  0
 15 21  1  0
 16 40  1  0
 16 41  1  0
 16 42  1  0
 17 18  1  0
 18 20  1  6
 18 21  1  0
 18 19  1  0
 19 45  1  0
 19 43  1  0
 19 44  1  0
 20 47  1  0
 20 46  1  0
 20 48  1  0
 21 22  1  0
 21 49  1  1
 22 23  2  0
 22 24  1  0
 25 50  1  6
M  END
>  <id>  (656) 
760

>  <scaffolds>  (656) 
['O=C1CCCC(=O)OC2CCN3CC=C(CO1)C23', 'C1CCNC1', 'O=C1CC2OCC2C(=O)OC2CCN3CC=C(CO1)C23']

>  <name>  (656) 
Grantaline

>  <formula>  (656) 
C18H25NO6

>  <SMILES>  (656) 
[H][C@]24CCN3CC=C(COC(=O)[C@](C)(O)[C@]1(C)OC(C)(C)[C@@]1([H])C(=O)O2)[C@@]34[H]

>  <ChEMBL_id>  (656) 


>  <ZINC_id>  (656) 


>  <PubChem_id>  (656) 
119025712

>  <DrugBank_id>  (656) 


>  <CAS_no>  (656) 
83482-61-5

>  <references>  (656) 
[{'journal': {'name': 'Phytochemistry', 'id': 10}, 'title': 'Globiferine, a pyrrolizidine alkaloid from Crotalaria globifera', 'year': 1984, 'start_page': 457, 'volume': 23, 'issue': 2, 'doi': '0.1016/S0031-9422(00)80352-0', 'isbn': '', 'despositor': {'code': 'GU2', 'first_name': 'Gugu', 'last_name': 'Mahlangu', 'id': 24}, 'refauthors_set': [{'author': {'first_name': 'Kenneth', 'initials': 'K', 'last_name': 'Brown', 'id': 922}, 'first_author': True, 'id': 1503}, {'author': {'first_name': 'Alastair', 'initials': 'JA', 'last_name': 'Devlin', 'id': 923}, 'first_author': None, 'id': 1504}, {'author': {'first_name': 'David', 'initials': 'DJ', 'last_name': 'Robins', 'id': 924}, 'first_author': None, 'id': 1505}], 'id': 423}]

>  <classifications>  (656) 
[{'classification': 'Pyrrolizidine alkaloid', 'id': 875}, {'classification': 'Pyrrolizines (Classyfire)', 'id': 997}]

>  <molecular_mass>  (656) 
351.394

$$$$
SANC00761_minRM1.pdb
     RDKit          3D

 49 52  0  0  1  0  0  0  0  0999 V2000
    3.3200   -2.8110   -0.8600 C   0  0  0  0  0  0  0  0  0  0  0  0
    2.7220   -1.8440    0.1460 C   0  0  1  0  0  0  0  0  0  0  0  0
    3.7710   -0.8680    0.6180 C   0  0  0  0  0  0  0  0  0  0  0  0
    4.8120   -1.0640    1.2010 O   0  0  0  0  0  0  0  0  0  0  0  0
    3.4400    0.4260    0.3320 O   0  0  0  0  0  0  0  0  0  0  0  0
    2.2980    0.4830   -0.5010 C   0  0  1  0  0  0  0  0  0  0  0  0
    2.8110    0.7330   -1.9260 C   0  0  0  0  0  0  0  0  0  0  0  0
    1.6340   -0.9350   -0.4570 C   0  0  2  0  0  0  0  0  0  0  0  0
    0.3910   -1.0620    0.3880 C   0  0  0  0  0  0  0  0  0  0  0  0
    0.3230   -1.0230    1.6040 O   0  0  0  0  0  0  0  0  0  0  0  0
   -0.7040   -1.3320   -0.3620 O   0  0  0  0  0  0  0  0  0  0  0  0
   -1.9860   -1.3080    0.2320 C   0  0  2  0  0  0  0  0  0  0  0  0
   -2.7500   -2.5780   -0.1720 C   0  0  0  0  0  0  0  0  0  0  0  0
   -4.2140   -2.1100   -0.2000 C   0  0  0  0  0  0  0  0  0  0  0  0
   -4.1940   -0.6870   -0.6540 N   0  0  0  0  0  0  0  0  0  0  0  0
   -5.1040    0.2370    0.1020 C   0  0  0  0  0  0  0  0  0  0  0  0
   -4.2130    1.2600    0.7510 C   0  0  0  0  0  0  0  0  0  0  0  0
   -2.9280    1.0270    0.4690 C   0  0  0  0  0  0  0  0  0  0  0  0
   -1.7680    1.7590    1.0350 C   0  0  0  0  0  0  0  0  0  0  0  0
   -0.9380    2.3550    0.0670 O   0  0  0  0  0  0  0  0  0  0  0  0
    0.0090    1.5530   -0.5280 C   0  0  0  0  0  0  0  0  0  0  0  0
   -0.2970    0.9730   -1.5430 O   0  0  0  0  0  0  0  0  0  0  0  0
    1.4400    1.6850    0.0120 C   0  0  1  0  0  0  0  0  0  0  0  0
    1.5080    1.8740    1.5290 C   0  0  0  0  0  0  0  0  0  0  0  0
    1.9600    2.8160   -0.6230 O   0  0  0  0  0  0  0  0  0  0  0  0
   -2.7950   -0.1670   -0.4310 C   0  0  1  0  0  0  0  0  0  0  0  0
    2.5690   -3.5230   -1.2310 H   0  0  0  0  0  0  0  0  0  0  0  0
    3.7480   -2.3110   -1.7410 H   0  0  0  0  0  0  0  0  0  0  0  0
    4.1320   -3.4050   -0.4120 H   0  0  0  0  0  0  0  0  0  0  0  0
    2.3570   -2.4270    1.0310 H   0  0  0  0  0  0  0  0  0  0  0  0
    3.5290    1.5680   -1.9720 H   0  0  0  0  0  0  0  0  0  0  0  0
    3.3510   -0.1350   -2.3330 H   0  0  0  0  0  0  0  0  0  0  0  0
    1.9970    0.9720   -2.6240 H   0  0  0  0  0  0  0  0  0  0  0  0
    1.3790   -1.2480   -1.5050 H   0  0  0  0  0  0  0  0  0  0  0  0
   -1.9740   -1.2110    1.3490 H   0  0  0  0  0  0  0  0  0  0  0  0
   -2.4240   -2.9610   -1.1610 H   0  0  0  0  0  0  0  0  0  0  0  0
   -2.5840   -3.4170    0.5290 H   0  0  0  0  0  0  0  0  0  0  0  0
   -4.7010   -2.2880    0.7870 H   0  0  0  0  0  0  0  0  0  0  0  0
   -4.8260   -2.6820   -0.9300 H   0  0  0  0  0  0  0  0  0  0  0  0
   -5.7820    0.7060   -0.6460 H   0  0  0  0  0  0  0  0  0  0  0  0
   -5.7740   -0.2500    0.8450 H   0  0  0  0  0  0  0  0  0  0  0  0
   -4.6290    2.0580    1.3590 H   0  0  0  0  0  0  0  0  0  0  0  0
   -1.2030    1.0950    1.7320 H   0  0  0  0  0  0  0  0  0  0  0  0
   -2.0960    2.6420    1.6310 H   0  0  0  0  0  0  0  0  0  0  0  0
    2.5020    2.2430    1.8330 H   0  0  0  0  0  0  0  0  0  0  0  0
    0.7840    2.6140    1.8990 H   0  0  0  0  0  0  0  0  0  0  0  0
    1.3540    0.9550    2.1040 H   0  0  0  0  0  0  0  0  0  0  0  0
    1.5740    3.5990   -0.2140 H   0  0  0  0  0  0  0  0  0  0  0  0
   -2.4190    0.1080   -1.4490 H   0  0  0  0  0  0  0  0  0  0  0  0
  1 28  1  0
  1 27  1  0
  1 29  1  0
  1  2  1  0
  2  8  1  0
  2  3  1  0
  2 30  1  1
  3  5  1  0
  3  4  2  0
  5  6  1  0
  6  7  1  6
  6  8  1  0
  6 23  1  0
  7 33  1  0
  7 32  1  0
  7 31  1  0
  8 34  1  6
  8  9  1  0
  9 11  1  0
  9 10  2  0
 11 12  1  0
 12 26  1  0
 12 13  1  0
 12 35  1  1
 13 36  1  0
 13 14  1  0
 13 37  1  0
 14 39  1  0
 14 38  1  0
 15 14  1  0
 15 26  1  0
 15 16  1  0
 16 40  1  0
 16 17  1  0
 16 41  1  0
 17 18  2  0
 17 42  1  0
 18 26  1  0
 18 19  1  0
 19 20  1  0
 19 44  1  0
 19 43  1  0
 20 21  1  0
 21 22  2  0
 21 23  1  0
 23 25  1  6
 23 24  1  0
 24 45  1  0
 24 46  1  0
 24 47  1  0
 25 48  1  0
 26 49  1  6
M  END
>  <id>  (657) 
761

>  <scaffolds>  (657) 
['O=C1CCCC(=O)OC2CCN3CC=C(CO1)C23', 'O=C1CCCO1', 'O=C1CC2OC(=O)CC2C(=O)OC2CCN3CC=C(CO1)C23', 'C1CCNC1']

>  <name>  (657) 
Grantianine

>  <formula>  (657) 
C18H23NO7

>  <SMILES>  (657) 
CC1C(=O)OC2(C)C1C(=O)OC3CCN4CC=C(COC(=O)C2(C)O)C34

>  <ChEMBL_id>  (657) 


>  <ZINC_id>  (657) 


>  <PubChem_id>  (657) 
119026130

>  <DrugBank_id>  (657) 


>  <CAS_no>  (657) 
633-10-3

>  <references>  (657) 
[{'journal': {'name': 'Phytochemistry', 'id': 10}, 'title': 'Globiferine, a pyrrolizidine alkaloid from Crotalaria globifera', 'year': 1984, 'start_page': 457, 'volume': 23, 'issue': 2, 'doi': '0.1016/S0031-9422(00)80352-0', 'isbn': '', 'despositor': {'code': 'GU2', 'first_name': 'Gugu', 'last_name': 'Mahlangu', 'id': 24}, 'refauthors_set': [{'author': {'first_name': 'Kenneth', 'initials': 'K', 'last_name': 'Brown', 'id': 922}, 'first_author': True, 'id': 1503}, {'author': {'first_name': 'Alastair', 'initials': 'JA', 'last_name': 'Devlin', 'id': 923}, 'first_author': None, 'id': 1504}, {'author': {'first_name': 'David', 'initials': 'DJ', 'last_name': 'Robins', 'id': 924}, 'first_author': None, 'id': 1505}], 'id': 423}]

>  <classifications>  (657) 
[{'classification': 'Pyrrolizidine alkaloid', 'id': 875}, {'classification': 'Carboxylic acids and derivatives (Classyfire)', 'id': 950}]

>  <molecular_mass>  (657) 
365.378

$$$$
SANC00762_minRM1.pdb
     RDKit          3D

 52 54  0  0  1  0  0  0  0  0999 V2000
   -1.4290    1.0660   -0.2940 C   0  0  1  0  0  0  0  0  0  0  0  0
   -2.3600    2.3190   -0.2130 C   0  0  0  0  0  0  0  0  0  0  0  0
   -3.8060    1.8360   -0.5100 C   0  0  0  0  0  0  0  0  0  0  0  0
   -3.6850    0.4280   -0.1470 N   0  0  0  0  0  0  0  0  0  0  0  0
   -4.6520   -0.6760   -0.2900 C   0  0  0  0  0  0  0  0  0  0  0  0
   -3.7160   -1.8400   -0.0140 C   0  0  0  0  0  0  0  0  0  0  0  0
   -2.4300   -1.4700   -0.1650 C   0  0  0  0  0  0  0  0  0  0  0  0
   -1.2620   -2.3130    0.1650 C   0  0  0  0  0  0  0  0  0  0  0  0
   -0.0980   -1.6310   -0.2880 O   0  0  0  0  0  0  0  0  0  0  0  0
    1.0820   -2.1180    0.1600 C   0  0  0  0  0  0  0  0  0  0  0  0
    1.1250   -3.1770    0.7620 O   0  0  0  0  0  0  0  0  0  0  0  0
    2.3340   -1.3210   -0.1890 C   0  0  2  0  0  0  0  0  0  0  0  0
    3.0490   -2.1860   -1.2440 C   0  0  0  0  0  0  0  0  0  0  0  0
    3.1270   -1.1850    0.9440 O   0  0  0  0  0  0  0  0  0  0  0  0
    2.1690    0.1600   -0.6950 C   0  0  2  0  0  0  0  0  0  0  0  0
    1.4130    0.1860   -2.0240 C   0  0  0  0  0  0  0  0  0  0  0  0
    3.4620    0.6600   -0.8960 O   0  0  0  0  0  0  0  0  0  0  0  0
    1.5940    1.1090    0.3950 C   0  0  1  0  0  0  0  0  0  0  0  0
    1.2970    2.5430   -0.0770 C   0  0  2  0  0  0  0  0  0  0  0  0
    2.5120    3.2260   -0.7000 C   0  0  0  0  0  0  0  0  0  0  0  0
    0.8690    3.3880    1.1250 C   0  0  0  0  0  0  0  0  0  0  0  0
    0.4230    0.4900    1.1350 C   0  0  0  0  0  0  0  0  0  0  0  0
    0.5880   -0.2800    2.0670 O   0  0  0  0  0  0  0  0  0  0  0  0
   -0.8980    0.8210    0.9770 O   0  0  0  0  0  0  0  0  0  0  0  0
   -2.3930   -0.0660   -0.6960 C   0  0  2  0  0  0  0  0  0  0  0  0
   -0.6410    1.2160   -1.0800 H   0  0  0  0  0  0  0  0  0  0  0  0
   -2.0420    3.0990   -0.9300 H   0  0  0  0  0  0  0  0  0  0  0  0
   -2.3080    2.8020    0.7830 H   0  0  0  0  0  0  0  0  0  0  0  0
   -4.1080    2.0460   -1.5630 H   0  0  0  0  0  0  0  0  0  0  0  0
   -4.5730    2.3340    0.1200 H   0  0  0  0  0  0  0  0  0  0  0  0
   -5.4680   -0.5810    0.4560 H   0  0  0  0  0  0  0  0  0  0  0  0
   -5.1490   -0.7700   -1.2840 H   0  0  0  0  0  0  0  0  0  0  0  0
   -4.0990   -2.8030    0.3050 H   0  0  0  0  0  0  0  0  0  0  0  0
   -1.3240   -3.3140   -0.3210 H   0  0  0  0  0  0  0  0  0  0  0  0
   -1.2310   -2.4860    1.2690 H   0  0  0  0  0  0  0  0  0  0  0  0
    4.0330   -1.7710   -1.5150 H   0  0  0  0  0  0  0  0  0  0  0  0
    2.4640   -2.2660   -2.1730 H   0  0  0  0  0  0  0  0  0  0  0  0
    3.2380   -3.2100   -0.8900 H   0  0  0  0  0  0  0  0  0  0  0  0
    3.2420   -2.0450    1.3660 H   0  0  0  0  0  0  0  0  0  0  0  0
    1.6040    1.1100   -2.5900 H   0  0  0  0  0  0  0  0  0  0  0  0
    0.3220    0.1210   -1.9050 H   0  0  0  0  0  0  0  0  0  0  0  0
    1.6950   -0.6430   -2.6930 H   0  0  0  0  0  0  0  0  0  0  0  0
    3.9430    0.0680   -1.4860 H   0  0  0  0  0  0  0  0  0  0  0  0
    2.4010    1.2030    1.1840 H   0  0  0  0  0  0  0  0  0  0  0  0
    0.4750    2.5310   -0.8400 H   0  0  0  0  0  0  0  0  0  0  0  0
    2.7520    2.8550   -1.7060 H   0  0  0  0  0  0  0  0  0  0  0  0
    2.3510    4.3090   -0.8220 H   0  0  0  0  0  0  0  0  0  0  0  0
    3.4200    3.1120   -0.0900 H   0  0  0  0  0  0  0  0  0  0  0  0
    0.0060    2.9890    1.6750 H   0  0  0  0  0  0  0  0  0  0  0  0
    0.5810    4.4060    0.8220 H   0  0  0  0  0  0  0  0  0  0  0  0
    1.6780    3.4990    1.8620 H   0  0  0  0  0  0  0  0  0  0  0  0
   -2.3540   -0.1490   -1.8240 H   0  0  0  0  0  0  0  0  0  0  0  0
  1 26  1  6
  1 25  1  0
  1  2  1  0
  1 24  1  0
  2 27  1  0
  2  3  1  0
  2 28  1  0
  3 29  1  0
  3 30  1  0
  4  3  1  0
  4 25  1  0
  4  5  1  0
  5 32  1  0
  5  6  1  0
  5 31  1  0
  6  7  2  0
  6 33  1  0
  7 25  1  0
  7  8  1  0
  8 34  1  0
  8  9  1  0
  8 35  1  0
  9 10  1  0
 10 12  1  0
 10 11  2  0
 12 13  1  0
 12 15  1  0
 12 14  1  1
 13 37  1  0
 13 36  1  0
 13 38  1  0
 14 39  1  0
 15 16  1  0
 15 17  1  6
 15 18  1  0
 16 42  1  0
 16 40  1  0
 16 41  1  0
 17 43  1  0
 18 19  1  0
 18 22  1  0
 18 44  1  1
 19 45  1  6
 19 20  1  0
 19 21  1  0
 20 46  1  0
 20 47  1  0
 20 48  1  0
 21 50  1  0
 21 49  1  0
 21 51  1  0
 22 24  1  0
 22 23  2  0
 25 52  1  6
M  END
>  <id>  (658) 
762

>  <scaffolds>  (658) 
['O=C1CCCC(=O)OC2CCN3CC=C(CO1)C23', 'C1CCNC1']

>  <name>  (658) 
Trichodesmine

>  <formula>  (658) 
C18H27NO6

>  <SMILES>  (658) 
[H][C@]13CCN2CC=C(COC(=O)[C@](C)(O)[C@](C)(O)[C@@H](C(C)C)C(=O)O1)[C@@]23[H]

>  <ChEMBL_id>  (658) 
CHEMBL1573073

>  <ZINC_id>  (658) 
ZINC03881681

>  <PubChem_id>  (658) 
119040

>  <DrugBank_id>  (658) 


>  <CAS_no>  (658) 
548-90-3

>  <references>  (658) 
[{'journal': {'name': 'Phytochemistry', 'id': 10}, 'title': 'Globiferine, a pyrrolizidine alkaloid from Crotalaria globifera', 'year': 1984, 'start_page': 457, 'volume': 23, 'issue': 2, 'doi': '0.1016/S0031-9422(00)80352-0', 'isbn': '', 'despositor': {'code': 'GU2', 'first_name': 'Gugu', 'last_name': 'Mahlangu', 'id': 24}, 'refauthors_set': [{'author': {'first_name': 'Kenneth', 'initials': 'K', 'last_name': 'Brown', 'id': 922}, 'first_author': True, 'id': 1503}, {'author': {'first_name': 'Alastair', 'initials': 'JA', 'last_name': 'Devlin', 'id': 923}, 'first_author': None, 'id': 1504}, {'author': {'first_name': 'David', 'initials': 'DJ', 'last_name': 'Robins', 'id': 924}, 'first_author': None, 'id': 1505}], 'id': 423}]

>  <classifications>  (658) 
[{'classification': 'Pyrrolizidine alkaloid', 'id': 875}, {'classification': 'Pyrrolizines (Classyfire)', 'id': 997}]

>  <molecular_mass>  (658) 
353.41

$$$$
SANC00763_minRM1.pdb
     RDKit          3D

 46 45  0  0  1  0  0  0  0  0999 V2000
    7.9960    1.1930   -0.1090 C   0  0  0  0  0  0  0  0  0  0  0  0
    6.4830    1.0750   -0.1940 C   0  0  0  0  0  0  0  0  0  0  0  0
    5.9760   -0.0320    0.7260 C   0  0  0  0  0  0  0  0  0  0  0  0
    4.4520   -0.0350    0.8420 C   0  0  0  0  0  0  0  0  0  0  0  0
    3.7830   -0.2840   -0.5050 C   0  0  0  0  0  0  0  0  0  0  0  0
    2.3060   -0.6940   -0.3760 C   0  0  2  0  0  0  0  0  0  0  0  0
    1.5060    0.3340    0.4660 C   0  0  0  0  0  0  0  0  0  0  0  0
    0.0480    0.1900    0.4270 N   0  0  0  0  0  0  0  0  0  0  0  0
   -0.5860    0.5230   -0.8640 C   0  0  0  0  0  0  0  0  0  0  0  0
   -2.0740    0.4740   -0.6840 C   0  0  0  0  0  0  0  0  0  0  0  0
   -2.8750   -0.1190   -1.5690 C   0  0  0  0  0  0  0  0  0  0  0  0
   -4.3240   -0.1370   -1.4180 C   0  0  0  0  0  0  0  0  0  0  0  0
   -4.9160   -0.3570   -0.2440 C   0  0  0  0  0  0  0  0  0  0  0  0
   -6.3970   -0.3990   -0.0840 C   0  0  0  0  0  0  0  0  0  0  0  0
   -6.8390    0.6120    0.9750 C   0  0  0  0  0  0  0  0  0  0  0  0
   -8.3470    0.5750    1.1560 C   0  0  0  0  0  0  0  0  0  0  0  0
    2.3110   -1.9400    0.2590 O   0  0  0  0  0  0  0  0  0  0  0  0
    8.3860    1.9640   -0.7890 H   0  0  0  0  0  0  0  0  0  0  0  0
    8.3400    1.4620    0.9000 H   0  0  0  0  0  0  0  0  0  0  0  0
    8.5020    0.2530   -0.3760 H   0  0  0  0  0  0  0  0  0  0  0  0
    6.0090    2.0460    0.0640 H   0  0  0  0  0  0  0  0  0  0  0  0
    6.1810    0.8830   -1.2450 H   0  0  0  0  0  0  0  0  0  0  0  0
    6.3420   -1.0200    0.3750 H   0  0  0  0  0  0  0  0  0  0  0  0
    6.4180    0.0810    1.7390 H   0  0  0  0  0  0  0  0  0  0  0  0
    4.1470   -0.8090    1.5780 H   0  0  0  0  0  0  0  0  0  0  0  0
    4.1060    0.9250    1.2800 H   0  0  0  0  0  0  0  0  0  0  0  0
    3.8440    0.6210   -1.1460 H   0  0  0  0  0  0  0  0  0  0  0  0
    4.3280   -1.0710   -1.0690 H   0  0  0  0  0  0  0  0  0  0  0  0
    1.8710   -0.7700   -1.4110 H   0  0  0  0  0  0  0  0  0  0  0  0
    1.7800    1.3670    0.1480 H   0  0  0  0  0  0  0  0  0  0  0  0
    1.8030    0.2660    1.5390 H   0  0  0  0  0  0  0  0  0  0  0  0
   -0.2610   -0.7260    0.7690 H   0  0  0  0  0  0  0  0  0  0  0  0
   -0.2590   -0.1170   -1.7220 H   0  0  0  0  0  0  0  0  0  0  0  0
   -0.2910    1.5570   -1.1640 H   0  0  0  0  0  0  0  0  0  0  0  0
   -2.4610    0.9840    0.2060 H   0  0  0  0  0  0  0  0  0  0  0  0
   -2.4920   -0.6130   -2.4690 H   0  0  0  0  0  0  0  0  0  0  0  0
   -4.8940    0.0300   -2.3390 H   0  0  0  0  0  0  0  0  0  0  0  0
   -4.3370   -0.5380    0.6690 H   0  0  0  0  0  0  0  0  0  0  0  0
   -6.9280   -0.2080   -1.0420 H   0  0  0  0  0  0  0  0  0  0  0  0
   -6.7050   -1.4280    0.2020 H   0  0  0  0  0  0  0  0  0  0  0  0
   -6.3310    0.4110    1.9420 H   0  0  0  0  0  0  0  0  0  0  0  0
   -6.5080    1.6330    0.6900 H   0  0  0  0  0  0  0  0  0  0  0  0
   -8.7040   -0.4130    1.4810 H   0  0  0  0  0  0  0  0  0  0  0  0
   -8.6850    1.2970    1.9150 H   0  0  0  0  0  0  0  0  0  0  0  0
   -8.8860    0.8180    0.2290 H   0  0  0  0  0  0  0  0  0  0  0  0
    1.4340   -2.3200    0.1630 H   0  0  0  0  0  0  0  0  0  0  0  0
  1 18  1  0
  1 20  1  0
  1  2  1  0
  1 19  1  0
  2 22  1  0
  2 21  1  0
  2  3  1  0
  3 23  1  0
  3  4  1  0
  3 24  1  0
  4  5  1  0
  4 26  1  0
  4 25  1  0
  5 27  1  0
  5 28  1  0
  5  6  1  0
  6 29  1  6
  6 17  1  0
  6  7  1  0
  7 30  1  0
  7  8  1  0
  7 31  1  0
  8  9  1  0
  8 32  1  0
  9 33  1  0
  9 34  1  0
  9 10  1  0
 10 11  2  0
 10 35  1  0
 11 36  1  0
 11 12  1  0
 12 37  1  0
 12 13  2  0
 13 14  1  0
 13 38  1  0
 14 39  1  0
 14 40  1  0
 14 15  1  0
 15 42  1  0
 15 16  1  0
 15 41  1  0
 16 45  1  0
 16 43  1  0
 16 44  1  0
 17 46  1  0
M  END
>  <id>  (659) 
763

>  <scaffolds>  (659) 
[]

>  <name>  (659) 
Pseudodistamine

>  <formula>  (659) 
C15H29NO

>  <SMILES>  (659) 
CCCCC[C@H](CNCC=CC=CCCC)O

>  <ChEMBL_id>  (659) 


>  <ZINC_id>  (659) 


>  <PubChem_id>  (659) 


>  <DrugBank_id>  (659) 


>  <CAS_no>  (659) 
356522-64-0

>  <references>  (659) 
[{'journal': {'name': 'Tetrahedron', 'id': 4}, 'title': 'New nitrogenous constituents from the South African marine Ascidian Pseudodistoma sp.', 'year': 2001, 'start_page': 5751, 'volume': None, 'issue': None, 'doi': '10.1016/S0040-4020(01)00518-X', 'isbn': '', 'despositor': {'code': 'AMU', 'first_name': 'Arnold', 'last_name': 'Amusengeri', 'id': 25}, 'refauthors_set': [{'author': {'first_name': 'Mohammad', 'initials': 'A', 'last_name': 'Rashid', 'id': 925}, 'first_author': True, 'id': 1506}, {'author': {'first_name': 'Kirk', 'initials': 'R', 'last_name': 'Gustafson', 'id': 926}, 'first_author': None, 'id': 1507}, {'author': {'first_name': 'Laura', 'initials': 'K', 'last_name': 'Cartner', 'id': 927}, 'first_author': None, 'id': 1508}, {'author': {'first_name': 'Lewis', 'initials': 'K', 'last_name': 'Pannell', 'id': 928}, 'first_author': None, 'id': 1509}, {'author': {'first_name': 'Michael', 'initials': 'R', 'last_name': 'Boyd', 'id': 683}, 'first_author': None, 'id': 1510}], 'id': 425}]

>  <classifications>  (659) 
[{'classification': 'Organonitrogen compounds (Classyfire)', 'id': 987}]

>  <molecular_mass>  (659) 
239.4

$$$$
SANC00764_minRM1.pdb
     RDKit          3D

 42 41  0  0  1  0  0  0  0  0999 V2000
    6.7260    2.0660   -0.1740 C   0  0  0  0  0  0  0  0  0  0  0  0
    5.6250    1.0680   -0.4960 C   0  0  0  0  0  0  0  0  0  0  0  0
    5.5280    0.0020    0.5920 C   0  0  0  0  0  0  0  0  0  0  0  0
    4.5900   -1.1380    0.2030 C   0  0  0  0  0  0  0  0  0  0  0  0
    3.1490   -0.6660    0.0240 C   0  0  0  0  0  0  0  0  0  0  0  0
    2.2050   -1.8610   -0.0890 C   0  0  0  0  0  0  0  0  0  0  0  0
    0.8020   -1.4530   -0.5280 C   0  0  0  0  0  0  0  0  0  0  0  0
    0.1070   -0.5710    0.5080 C   0  0  0  0  0  0  0  0  0  0  0  0
   -1.3240   -0.3780    0.1320 C   0  0  0  0  0  0  0  0  0  0  0  0
   -1.8390    0.8180   -0.1530 C   0  0  0  0  0  0  0  0  0  0  0  0
   -3.2390    0.9960   -0.5150 C   0  0  0  0  0  0  0  0  0  0  0  0
   -4.2270    0.3750    0.1290 C   0  0  0  0  0  0  0  0  0  0  0  0
   -5.6770    0.5620   -0.2380 C   0  0  2  0  0  0  0  0  0  0  0  0
   -6.4660    1.1200    0.8660 N   0  0  0  0  0  0  0  0  0  0  0  0
   -6.2520   -0.7990   -0.6480 C   0  0  0  0  0  0  0  0  0  0  0  0
    6.5710    2.5570    0.7980 H   0  0  0  0  0  0  0  0  0  0  0  0
    7.7190    1.5960   -0.1360 H   0  0  0  0  0  0  0  0  0  0  0  0
    6.7860    2.8660   -0.9260 H   0  0  0  0  0  0  0  0  0  0  0  0
    4.6590    1.6020   -0.6110 H   0  0  0  0  0  0  0  0  0  0  0  0
    5.8100    0.6010   -1.4860 H   0  0  0  0  0  0  0  0  0  0  0  0
    5.2070    0.4610    1.5510 H   0  0  0  0  0  0  0  0  0  0  0  0
    6.5370   -0.4120    0.8090 H   0  0  0  0  0  0  0  0  0  0  0  0
    4.9510   -1.6360   -0.7210 H   0  0  0  0  0  0  0  0  0  0  0  0
    4.6390   -1.9310    0.9810 H   0  0  0  0  0  0  0  0  0  0  0  0
    3.0590   -0.0240   -0.8770 H   0  0  0  0  0  0  0  0  0  0  0  0
    2.8540   -0.0140    0.8720 H   0  0  0  0  0  0  0  0  0  0  0  0
    2.6130   -2.6010   -0.8120 H   0  0  0  0  0  0  0  0  0  0  0  0
    2.1630   -2.4120    0.8750 H   0  0  0  0  0  0  0  0  0  0  0  0
    0.1970   -2.3660   -0.7200 H   0  0  0  0  0  0  0  0  0  0  0  0
    0.8340   -0.9330   -1.5090 H   0  0  0  0  0  0  0  0  0  0  0  0
    0.6360    0.3990    0.6170 H   0  0  0  0  0  0  0  0  0  0  0  0
    0.1590   -1.0310    1.5190 H   0  0  0  0  0  0  0  0  0  0  0  0
   -1.9310   -1.2890    0.0980 H   0  0  0  0  0  0  0  0  0  0  0  0
   -1.2360    1.7330   -0.1440 H   0  0  0  0  0  0  0  0  0  0  0  0
   -3.4250    1.6850   -1.3470 H   0  0  0  0  0  0  0  0  0  0  0  0
   -4.0330   -0.2990    0.9700 H   0  0  0  0  0  0  0  0  0  0  0  0
   -5.7830    1.2770   -1.1020 H   0  0  0  0  0  0  0  0  0  0  0  0
   -6.1310    2.0310    1.1610 H   0  0  0  0  0  0  0  0  0  0  0  0
   -6.5230    0.5030    1.6700 H   0  0  0  0  0  0  0  0  0  0  0  0
   -6.1820   -1.5500    0.1520 H   0  0  0  0  0  0  0  0  0  0  0  0
   -5.7180   -1.2080   -1.5170 H   0  0  0  0  0  0  0  0  0  0  0  0
   -7.3140   -0.7280   -0.9240 H   0  0  0  0  0  0  0  0  0  0  0  0
  1 18  1  0
  1  2  1  0
  1 17  1  0
  1 16  1  0
  2 20  1  0
  2 19  1  0
  2  3  1  0
  3  4  1  0
  3 22  1  0
  3 21  1  0
  4 23  1  0
  4  5  1  0
  4 24  1  0
  5 25  1  0
  5  6  1  0
  5 26  1  0
  6 27  1  0
  6  7  1  0
  6 28  1  0
  7 30  1  0
  7 29  1  0
  7  8  1  0
  8  9  1  0
  8 31  1  0
  8 32  1  0
  9 10  2  0
  9 33  1  0
 10 11  1  0
 10 34  1  0
 11 35  1  0
 11 12  2  0
 12 13  1  0
 12 36  1  0
 13 37  1  6
 13 15  1  0
 13 14  1  0
 14 38  1  0
 14 39  1  0
 15 41  1  0
 15 42  1  0
 15 40  1  0
M  END
>  <id>  (660) 
764

>  <scaffolds>  (660) 
[]

>  <name>  (660) 
(3E,5E)-tetradeca-3,5,-diene-2-amine

>  <formula>  (660) 
C14H27N

>  <SMILES>  (660) 
CCCCCCCCC=CC=C[C@H](N)C

>  <ChEMBL_id>  (660) 


>  <ZINC_id>  (660) 


>  <PubChem_id>  (660) 


>  <DrugBank_id>  (660) 


>  <CAS_no>  (660) 
356073-87-5

>  <references>  (660) 
[{'journal': {'name': 'Tetrahedron', 'id': 4}, 'title': 'New nitrogenous constituents from the South African marine Ascidian Pseudodistoma sp.', 'year': 2001, 'start_page': 5751, 'volume': None, 'issue': None, 'doi': '10.1016/S0040-4020(01)00518-X', 'isbn': '', 'despositor': {'code': 'AMU', 'first_name': 'Arnold', 'last_name': 'Amusengeri', 'id': 25}, 'refauthors_set': [{'author': {'first_name': 'Mohammad', 'initials': 'A', 'last_name': 'Rashid', 'id': 925}, 'first_author': True, 'id': 1506}, {'author': {'first_name': 'Kirk', 'initials': 'R', 'last_name': 'Gustafson', 'id': 926}, 'first_author': None, 'id': 1507}, {'author': {'first_name': 'Laura', 'initials': 'K', 'last_name': 'Cartner', 'id': 927}, 'first_author': None, 'id': 1508}, {'author': {'first_name': 'Lewis', 'initials': 'K', 'last_name': 'Pannell', 'id': 928}, 'first_author': None, 'id': 1509}, {'author': {'first_name': 'Michael', 'initials': 'R', 'last_name': 'Boyd', 'id': 683}, 'first_author': None, 'id': 1510}], 'id': 425}]

>  <classifications>  (660) 
[{'classification': 'Organonitrogen compounds (Classyfire)', 'id': 987}]

>  <molecular_mass>  (660) 
209.37

$$$$
SANC00765_minRM1.pdb
     RDKit          3D

 44 43  0  0  1  0  0  0  0  0999 V2000
    5.8260   -2.5650   -0.2750 C   0  0  0  0  0  0  0  0  0  0  0  0
    6.7880   -1.4460    0.0950 C   0  0  0  0  0  0  0  0  0  0  0  0
    6.0400   -0.1700    0.2870 C   0  0  0  0  0  0  0  0  0  0  0  0
    5.4970    0.4830   -0.7370 C   0  0  0  0  0  0  0  0  0  0  0  0
    4.7370    1.7550   -0.5480 C   0  0  0  0  0  0  0  0  0  0  0  0
    3.4500    1.4580    0.1470 C   0  0  0  0  0  0  0  0  0  0  0  0
    2.2620    1.6420   -0.4220 C   0  0  0  0  0  0  0  0  0  0  0  0
    0.9910    1.3330    0.2990 C   0  0  0  0  0  0  0  0  0  0  0  0
    0.8130   -0.1810    0.3980 C   0  0  0  0  0  0  0  0  0  0  0  0
   -0.5030   -0.5400    1.0840 C   0  0  0  0  0  0  0  0  0  0  0  0
   -1.6910   -0.2160    0.2450 C   0  0  0  0  0  0  0  0  0  0  0  0
   -2.9290   -0.2630    0.7460 C   0  0  0  0  0  0  0  0  0  0  0  0
   -4.1020    0.0160   -0.0670 C   0  0  0  0  0  0  0  0  0  0  0  0
   -5.3400   -0.1440    0.4060 C   0  0  0  0  0  0  0  0  0  0  0  0
   -6.5380    0.1350   -0.4590 C   0  0  2  0  0  0  0  0  0  0  0  0
   -7.7440    0.2200    0.3700 N   0  0  0  0  0  0  0  0  0  0  0  0
   -6.6240   -0.9580   -1.5380 C   0  0  0  0  0  0  0  0  0  0  0  0
    6.3440   -3.5280   -0.3940 H   0  0  0  0  0  0  0  0  0  0  0  0
    5.3030   -2.3680   -1.2220 H   0  0  0  0  0  0  0  0  0  0  0  0
    5.0510   -2.7140    0.4910 H   0  0  0  0  0  0  0  0  0  0  0  0
    7.3560   -1.7130    1.0120 H   0  0  0  0  0  0  0  0  0  0  0  0
    7.5700   -1.3280   -0.6860 H   0  0  0  0  0  0  0  0  0  0  0  0
    5.9570    0.1990    1.3140 H   0  0  0  0  0  0  0  0  0  0  0  0
    5.5760    0.1130   -1.7640 H   0  0  0  0  0  0  0  0  0  0  0  0
    5.3280    2.4840    0.0500 H   0  0  0  0  0  0  0  0  0  0  0  0
    4.5810    2.2700   -1.5200 H   0  0  0  0  0  0  0  0  0  0  0  0
    3.5460    1.0740    1.1690 H   0  0  0  0  0  0  0  0  0  0  0  0
    2.1590    2.0170   -1.4450 H   0  0  0  0  0  0  0  0  0  0  0  0
    0.1250    1.8020   -0.2120 H   0  0  0  0  0  0  0  0  0  0  0  0
    0.9930    1.7950    1.3100 H   0  0  0  0  0  0  0  0  0  0  0  0
    1.6630   -0.6280    0.9560 H   0  0  0  0  0  0  0  0  0  0  0  0
    0.8690   -0.6450   -0.6090 H   0  0  0  0  0  0  0  0  0  0  0  0
   -0.5180   -1.6270    1.3250 H   0  0  0  0  0  0  0  0  0  0  0  0
   -0.5710   -0.0370    2.0740 H   0  0  0  0  0  0  0  0  0  0  0  0
   -1.5060    0.0370   -0.8050 H   0  0  0  0  0  0  0  0  0  0  0  0
   -3.1030   -0.5200    1.7980 H   0  0  0  0  0  0  0  0  0  0  0  0
   -3.9240    0.3670   -1.0910 H   0  0  0  0  0  0  0  0  0  0  0  0
   -5.5260   -0.4780    1.4330 H   0  0  0  0  0  0  0  0  0  0  0  0
   -6.4120    1.1370   -0.9580 H   0  0  0  0  0  0  0  0  0  0  0  0
   -7.9540   -0.6400    0.8660 H   0  0  0  0  0  0  0  0  0  0  0  0
   -8.5590    0.5220   -0.1540 H   0  0  0  0  0  0  0  0  0  0  0  0
   -6.7050   -1.9660   -1.1060 H   0  0  0  0  0  0  0  0  0  0  0  0
   -7.4950   -0.8220   -2.1950 H   0  0  0  0  0  0  0  0  0  0  0  0
   -5.7380   -0.9650   -2.1880 H   0  0  0  0  0  0  0  0  0  0  0  0
  1 19  1  0
  1 18  1  0
  1  2  1  0
  1 20  1  0
  2 22  1  0
  2  3  1  0
  2 21  1  0
  3  4  2  0
  3 23  1  0
  4 24  1  0
  4  5  1  0
  5 26  1  0
  5 25  1  0
  5  6  1  0
  6  7  2  0
  6 27  1  0
  7 28  1  0
  7  8  1  0
  8 29  1  0
  8  9  1  0
  8 30  1  0
  9 32  1  0
  9 31  1  0
  9 10  1  0
 10 11  1  0
 10 33  1  0
 10 34  1  0
 11 35  1  0
 11 12  2  0
 12 13  1  0
 12 36  1  0
 13 37  1  0
 13 14  2  0
 14 15  1  0
 14 38  1  0
 15 17  1  0
 15 39  1  6
 15 16  1  0
 16 41  1  0
 16 40  1  0
 17 43  1  0
 17 44  1  0
 17 42  1  0
M  END
>  <id>  (661) 
765

>  <scaffolds>  (661) 
[]

>  <name>  (661) 
(3E,5E,10Z,13Z)-hexadeca-3,5,10,13-tetraene-2-amine

>  <formula>  (661) 
C16H27N

>  <SMILES>  (661) 
CCC=CCC=CCCCC=CC=C[C@H](N)C

>  <ChEMBL_id>  (661) 


>  <ZINC_id>  (661) 


>  <PubChem_id>  (661) 


>  <DrugBank_id>  (661) 


>  <CAS_no>  (661) 
356073-88-6

>  <references>  (661) 
[{'journal': {'name': 'Tetrahedron', 'id': 4}, 'title': 'New nitrogenous constituents from the South African marine Ascidian Pseudodistoma sp.', 'year': 2001, 'start_page': 5751, 'volume': None, 'issue': None, 'doi': '10.1016/S0040-4020(01)00518-X', 'isbn': '', 'despositor': {'code': 'AMU', 'first_name': 'Arnold', 'last_name': 'Amusengeri', 'id': 25}, 'refauthors_set': [{'author': {'first_name': 'Mohammad', 'initials': 'A', 'last_name': 'Rashid', 'id': 925}, 'first_author': True, 'id': 1506}, {'author': {'first_name': 'Kirk', 'initials': 'R', 'last_name': 'Gustafson', 'id': 926}, 'first_author': None, 'id': 1507}, {'author': {'first_name': 'Laura', 'initials': 'K', 'last_name': 'Cartner', 'id': 927}, 'first_author': None, 'id': 1508}, {'author': {'first_name': 'Lewis', 'initials': 'K', 'last_name': 'Pannell', 'id': 928}, 'first_author': None, 'id': 1509}, {'author': {'first_name': 'Michael', 'initials': 'R', 'last_name': 'Boyd', 'id': 683}, 'first_author': None, 'id': 1510}], 'id': 425}]

>  <classifications>  (661) 
[{'classification': 'Organonitrogen compounds (Classyfire)', 'id': 987}]

>  <molecular_mass>  (661) 
233.39

$$$$
SANC00766_minRM1.pdb
     RDKit          3D

 26 28  0  0  1  0  0  0  0  0999 V2000
   -4.7050    0.6100    0.0320 C   0  0  0  0  0  0  0  0  0  0  0  0
   -3.2760    0.1990    0.0200 N   0  0  0  0  0  0  0  0  0  0  0  0
   -2.9910   -1.1460    0.0080 C   0  0  0  0  0  0  0  0  0  0  0  0
   -1.6780   -1.6110   -0.0060 C   0  0  0  0  0  0  0  0  0  0  0  0
   -0.6500   -0.6860   -0.0050 C   0  0  0  0  0  0  0  0  0  0  0  0
   -0.9710    0.7190    0.0100 C   0  0  0  0  0  0  0  0  0  0  0  0
   -2.2970    1.1520    0.0220 C   0  0  0  0  0  0  0  0  0  0  0  0
    0.1990    1.4580    0.0090 N   0  0  0  0  0  0  0  0  0  0  0  0
    1.2690    0.5480   -0.0060 C   0  0  0  0  0  0  0  0  0  0  0  0
    0.7780   -0.7820   -0.0160 C   0  0  0  0  0  0  0  0  0  0  0  0
    1.6620   -1.8600   -0.0320 C   0  0  0  0  0  0  0  0  0  0  0  0
    3.0180   -1.5910   -0.0340 C   0  0  0  0  0  0  0  0  0  0  0  0
    3.5170   -0.2780   -0.0220 C   0  0  0  0  0  0  0  0  0  0  0  0
    2.6490    0.8030   -0.0100 C   0  0  0  0  0  0  0  0  0  0  0  0
    3.0010    2.1090   -0.0000 O   0  0  0  0  0  0  0  0  0  0  0  0
   -5.2140    0.2190    0.9340 H   0  0  0  0  0  0  0  0  0  0  0  0
   -4.8320    1.7080    0.0310 H   0  0  0  0  0  0  0  0  0  0  0  0
   -5.2290    0.2180   -0.8600 H   0  0  0  0  0  0  0  0  0  0  0  0
   -3.8410   -1.8480    0.0090 H   0  0  0  0  0  0  0  0  0  0  0  0
   -1.4740   -2.6890   -0.0150 H   0  0  0  0  0  0  0  0  0  0  0  0
   -2.5670    2.2190    0.0340 H   0  0  0  0  0  0  0  0  0  0  0  0
    0.2890    2.4660    0.0190 H   0  0  0  0  0  0  0  0  0  0  0  0
    1.2830   -2.8850   -0.0430 H   0  0  0  0  0  0  0  0  0  0  0  0
    3.7340   -2.4210   -0.0450 H   0  0  0  0  0  0  0  0  0  0  0  0
    4.6020   -0.1220   -0.0230 H   0  0  0  0  0  0  0  0  0  0  0  0
    3.9650    2.1750   -0.0140 H   0  0  0  0  0  0  0  0  0  0  0  0
  1 18  1  0
  1  2  1  0
  1 17  1  0
  1 16  1  0
  2  3  1  0
  2  7  1  0
  3  4  2  0
  3 19  1  0
  4 20  1  0
  4  5  1  0
  5 10  2  0
  5  6  1  0
  6  8  1  0
  6  7  2  0
  7 21  1  0
  8  9  1  0
  8 22  1  0
  9 10  1  0
  9 14  1  0
 10 11  1  0
 11 23  1  0
 11 12  2  0
 12 24  1  0
 12 13  1  0
 13 25  1  0
 13 14  2  0
 14 15  1  0
 15 26  1  0
M  END
>  <id>  (662) 
766

>  <scaffolds>  (662) 
['c1ccccc1', 'c1ccc2[nH]ccc2c1', 'c1ccc2c(c1)[nH]c1c[nH+]ccc12']

>  <name>  (662) 
8-hydroxy-2-methyl-b-carbolinium

>  <formula>  (662) 
C12H11N2O+

>  <SMILES>  (662) 
C[n+]1ccc2c(c1)[nH]c1c2cccc1O

>  <ChEMBL_id>  (662) 


>  <ZINC_id>  (662) 


>  <PubChem_id>  (662) 


>  <DrugBank_id>  (662) 


>  <CAS_no>  (662) 
356073-89-7

>  <references>  (662) 
[{'journal': {'name': 'Tetrahedron', 'id': 4}, 'title': 'New nitrogenous constituents from the South African marine Ascidian Pseudodistoma sp.', 'year': 2001, 'start_page': 5751, 'volume': None, 'issue': None, 'doi': '10.1016/S0040-4020(01)00518-X', 'isbn': '', 'despositor': {'code': 'AMU', 'first_name': 'Arnold', 'last_name': 'Amusengeri', 'id': 25}, 'refauthors_set': [{'author': {'first_name': 'Mohammad', 'initials': 'A', 'last_name': 'Rashid', 'id': 925}, 'first_author': True, 'id': 1506}, {'author': {'first_name': 'Kirk', 'initials': 'R', 'last_name': 'Gustafson', 'id': 926}, 'first_author': None, 'id': 1507}, {'author': {'first_name': 'Laura', 'initials': 'K', 'last_name': 'Cartner', 'id': 927}, 'first_author': None, 'id': 1508}, {'author': {'first_name': 'Lewis', 'initials': 'K', 'last_name': 'Pannell', 'id': 928}, 'first_author': None, 'id': 1509}, {'author': {'first_name': 'Michael', 'initials': 'R', 'last_name': 'Boyd', 'id': 683}, 'first_author': None, 'id': 1510}], 'id': 425}]

>  <classifications>  (662) 
[{'classification': 'Indoles and derivatives (Classyfire)', 'id': 947}]

>  <molecular_mass>  (662) 
199.23

$$$$
SANC00767_minRM1.pdb
     RDKit          3D

 52 54  0  0  1  0  0  0  0  0999 V2000
    2.3760    3.2330   -0.4340 C   0  0  0  0  0  0  0  0  0  0  0  0
    2.3610    2.1210    0.5800 C   0  0  1  0  0  0  0  0  0  0  0  0
    1.8320    0.7780    0.0250 C   0  0  1  0  0  0  0  0  0  0  0  0
    2.6400    0.3720   -1.0210 O   0  0  0  0  0  0  0  0  0  0  0  0
    1.8710   -0.3060    1.1210 C   0  0  0  0  0  0  0  0  0  0  0  0
    1.9530   -1.7770    0.6940 C   0  0  2  0  0  0  0  0  0  0  0  0
    3.3530   -2.1000    0.1700 C   0  0  0  0  0  0  0  0  0  0  0  0
    0.8860   -2.2730   -0.3080 C   0  0  2  0  0  0  0  0  0  0  0  0
    1.1570   -3.7350   -0.7070 C   0  0  0  0  0  0  0  0  0  0  0  0
    0.9310   -1.4260   -1.4080 O   0  0  0  0  0  0  0  0  0  0  0  0
   -0.5640   -2.2530    0.2080 C   0  0  0  0  0  0  0  0  0  0  0  0
   -1.5040   -2.7340   -0.4020 O   0  0  0  0  0  0  0  0  0  0  0  0
   -0.7670   -1.6380    1.3930 O   0  0  0  0  0  0  0  0  0  0  0  0
   -2.0930   -1.5440    1.8770 C   0  0  0  0  0  0  0  0  0  0  0  0
   -2.9810   -0.8060    0.9510 C   0  0  0  0  0  0  0  0  0  0  0  0
   -4.2650   -1.0820    0.6650 C   0  0  0  0  0  0  0  0  0  0  0  0
   -4.8360   -0.0730   -0.3150 C   0  0  0  0  0  0  0  0  0  0  0  0
   -3.8560    1.0190   -0.1360 N   0  0  0  0  0  0  0  0  0  0  0  0
   -2.5350    0.3500    0.1040 C   0  0  1  0  0  0  0  0  0  0  0  0
   -1.7610    1.5870    0.5790 C   0  0  1  0  0  0  0  0  0  0  0  0
   -0.3690    1.4440    0.6450 O   0  0  0  0  0  0  0  0  0  0  0  0
    0.3850    1.0600   -0.4100 C   0  0  0  0  0  0  0  0  0  0  0  0
   -0.0540    1.0180   -1.5420 O   0  0  0  0  0  0  0  0  0  0  0  0
   -2.2610    2.6930   -0.3930 C   0  0  0  0  0  0  0  0  0  0  0  0
   -3.5720    2.1470   -1.0330 C   0  0  0  0  0  0  0  0  0  0  0  0
    4.1420    1.8650    1.0510 Cl  0  0  0  0  0  0  0  0  0  0  0  0
    2.9980    2.9990   -1.3110 H   0  0  0  0  0  0  0  0  0  0  0  0
    2.7890    4.1610   -0.0080 H   0  0  0  0  0  0  0  0  0  0  0  0
    1.3670    3.4760   -0.8010 H   0  0  0  0  0  0  0  0  0  0  0  0
    1.8580    2.4040    1.5310 H   0  0  0  0  0  0  0  0  0  0  0  0
    2.2860    0.6840   -1.8620 H   0  0  0  0  0  0  0  0  0  0  0  0
    2.7570   -0.1080    1.7720 H   0  0  0  0  0  0  0  0  0  0  0  0
    1.0220   -0.1510    1.8190 H   0  0  0  0  0  0  0  0  0  0  0  0
    1.7870   -2.3740    1.6330 H   0  0  0  0  0  0  0  0  0  0  0  0
    3.4690   -1.9200   -0.9090 H   0  0  0  0  0  0  0  0  0  0  0  0
    4.1330   -1.4970    0.6570 H   0  0  0  0  0  0  0  0  0  0  0  0
    3.6300   -3.1500    0.3500 H   0  0  0  0  0  0  0  0  0  0  0  0
    0.3370   -4.1840   -1.2890 H   0  0  0  0  0  0  0  0  0  0  0  0
    1.3070   -4.3760    0.1720 H   0  0  0  0  0  0  0  0  0  0  0  0
    2.0490   -3.8320   -1.3420 H   0  0  0  0  0  0  0  0  0  0  0  0
    0.3760   -1.7910   -2.1090 H   0  0  0  0  0  0  0  0  0  0  0  0
   -1.9570   -0.9950    2.8350 H   0  0  0  0  0  0  0  0  0  0  0  0
   -2.4980   -2.5530    2.1190 H   0  0  0  0  0  0  0  0  0  0  0  0
   -4.8730   -1.8940    1.0500 H   0  0  0  0  0  0  0  0  0  0  0  0
   -4.9180   -0.5030   -1.3400 H   0  0  0  0  0  0  0  0  0  0  0  0
   -5.8540    0.2800   -0.0460 H   0  0  0  0  0  0  0  0  0  0  0  0
   -2.0510   -0.0970   -0.8100 H   0  0  0  0  0  0  0  0  0  0  0  0
   -1.9750    1.8350    1.6500 H   0  0  0  0  0  0  0  0  0  0  0  0
   -1.5190    2.9660   -1.1640 H   0  0  0  0  0  0  0  0  0  0  0  0
   -2.4490    3.6350    0.1580 H   0  0  0  0  0  0  0  0  0  0  0  0
   -3.4340    1.8930   -2.1090 H   0  0  0  0  0  0  0  0  0  0  0  0
   -4.4080    2.8760   -1.0040 H   0  0  0  0  0  0  0  0  0  0  0  0
  1 27  1  0
  1 29  1  0
  1 28  1  0
  1  2  1  0
  2  3  1  0
  2 26  1  0
  2 30  1  1
  3  4  1  6
  3 22  1  0
  3  5  1  0
  4 31  1  0
  5  6  1  0
  5 32  1  0
  5 33  1  0
  6  8  1  0
  6  7  1  0
  6 34  1  1
  7 35  1  0
  7 37  1  0
  7 36  1  0
  8 10  1  6
  8  9  1  0
  8 11  1  0
  9 40  1  0
  9 38  1  0
  9 39  1  0
 10 41  1  0
 11 12  2  0
 11 13  1  0
 13 14  1  0
 14 15  1  0
 14 43  1  0
 14 42  1  0
 15 19  1  0
 15 16  2  0
 16 17  1  0
 16 44  1  0
 17 45  1  0
 17 46  1  0
 18 17  1  0
 18 25  1  0
 18 19  1  0
 19 47  1  6
 19 20  1  0
 20 24  1  0
 20 21  1  0
 20 48  1  1
 21 22  1  0
 22 23  2  0
 24 49  1  0
 24 25  1  0
 24 50  1  0
 25 51  1  0
 25 52  1  0
M  END
>  <id>  (663) 
767

>  <scaffolds>  (663) 
['O=C1CCCCC(=O)OC2CCN3CC=C(CO1)C23', 'C1CCNC1']

>  <name>  (663) 
Jaconine

>  <formula>  (663) 
C18H26ClNO6

>  <SMILES>  (663) 
CC(C1(O)CC(C)C(C)(O)C(=O)OCC2=CCN3C2C(OC1=O)CC3)Cl

>  <ChEMBL_id>  (663) 


>  <ZINC_id>  (663) 


>  <PubChem_id>  (663) 
119200

>  <DrugBank_id>  (663) 


>  <CAS_no>  (663) 
480-75-1

>  <references>  (663) 
[{'journal': {'name': 'Phytochemistry', 'id': 10}, 'title': 'Diversity of pyrrolizidine alkaloids in native and invasive Senecio pterophorus (Asteraceae): Implications for toxicity', 'year': 2014, 'start_page': 137, 'volume': 108, 'issue': None, 'doi': '10.1016/j.phytochem.2014.09.006', 'isbn': '', 'despositor': {'code': 'AMU', 'first_name': 'Arnold', 'last_name': 'Amusengeri', 'id': 25}, 'refauthors_set': [{'author': {'first_name': 'Eva', 'initials': 'E', 'last_name': 'Castells', 'id': 929}, 'first_author': True, 'id': 1511}, {'author': {'first_name': 'Patrick', 'initials': 'PJ', 'last_name': 'Mulder', 'id': 930}, 'first_author': None, 'id': 1512}, {'author': {'first_name': 'Míriam', 'initials': 'M', 'last_name': 'Pérez-Trujillo', 'id': 931}, 'first_author': None, 'id': 1513}], 'id': 426}]

>  <classifications>  (663) 
[{'classification': 'Pyrrolizidine alkaloid', 'id': 875}, {'classification': 'Macrolides and analogues (Classyfire)', 'id': 945}]

>  <molecular_mass>  (663) 
387.85

$$$$
SANC00768_minRM1.pdb
     RDKit          3D

 56 60  0  0  0  0  0  0  0  0999 V2000
    5.7510    1.4880    0.3670 O   0  0  0  0  0  0  0  0  0  0  0  0
    4.4370    1.8100    0.4320 C   0  0  0  0  0  0  0  0  0  0  0  0
    4.1490    3.1770    0.4730 C   0  0  0  0  0  0  0  0  0  0  0  0
    2.8280    3.6000    0.5230 C   0  0  0  0  0  0  0  0  0  0  0  0
    1.7900    2.6730    0.5630 C   0  0  0  0  0  0  0  0  0  0  0  0
    2.0710    1.3110    0.5910 C   0  0  0  0  0  0  0  0  0  0  0  0
    3.3880    0.8820    0.4860 C   0  0  0  0  0  0  0  0  0  0  0  0
    3.7410   -0.4480    0.4690 O   0  0  0  0  0  0  0  0  0  0  0  0
    2.7760   -1.2690   -0.0740 C   0  0  0  0  0  0  0  0  0  0  0  0
    2.1370   -0.9580   -1.2730 C   0  0  0  0  0  0  0  0  0  0  0  0
    1.1290   -1.7970   -1.7230 C   0  0  0  0  0  0  0  0  0  0  0  0
    0.7780   -2.9340   -0.9970 C   0  0  0  0  0  0  0  0  0  0  0  0
    1.5060   -3.2820    0.1380 C   0  0  0  0  0  0  0  0  0  0  0  0
    2.5040   -2.4440    0.6220 C   0  0  0  0  0  0  0  0  0  0  0  0
   -0.3830   -3.7520   -1.4540 C   0  0  0  0  0  0  0  0  0  0  0  0
   -1.6890   -2.9660   -1.3050 C   0  0  0  0  0  0  0  0  0  0  0  0
   -1.9820   -2.5250    0.0900 C   0  0  0  0  0  0  0  0  0  0  0  0
   -1.5480   -3.2560    1.1910 C   0  0  0  0  0  0  0  0  0  0  0  0
   -1.8230   -2.8350    2.4880 C   0  0  0  0  0  0  0  0  0  0  0  0
   -2.5760   -1.6970    2.7240 C   0  0  0  0  0  0  0  0  0  0  0  0
   -3.0710   -0.9830    1.6310 C   0  0  0  0  0  0  0  0  0  0  0  0
   -3.7990    0.1200    1.9300 O   0  0  0  0  0  0  0  0  0  0  0  0
   -2.7590   -1.3850    0.3250 C   0  0  0  0  0  0  0  0  0  0  0  0
   -3.3600   -0.7630   -0.7440 O   0  0  0  0  0  0  0  0  0  0  0  0
   -3.0460    0.5710   -0.8840 C   0  0  0  0  0  0  0  0  0  0  0  0
   -4.1140    1.3920   -1.2540 C   0  0  0  0  0  0  0  0  0  0  0  0
   -3.8600    2.7340   -1.4930 C   0  0  0  0  0  0  0  0  0  0  0  0
   -2.5700    3.2430   -1.3740 C   0  0  0  0  0  0  0  0  0  0  0  0
   -1.5170    2.4060   -1.0230 C   0  0  0  0  0  0  0  0  0  0  0  0
   -1.7490    1.0560   -0.7640 C   0  0  0  0  0  0  0  0  0  0  0  0
   -0.1190    2.9270   -0.9590 C   0  0  0  0  0  0  0  0  0  0  0  0
    0.3570    3.0880    0.4930 C   0  0  0  0  0  0  0  0  0  0  0  0
    5.8440    0.5420    0.2080 H   0  0  0  0  0  0  0  0  0  0  0  0
    4.9670    3.9040    0.4520 H   0  0  0  0  0  0  0  0  0  0  0  0
    2.6070    4.6710    0.5250 H   0  0  0  0  0  0  0  0  0  0  0  0
    1.2540    0.5870    0.6850 H   0  0  0  0  0  0  0  0  0  0  0  0
    2.4100   -0.0620   -1.8380 H   0  0  0  0  0  0  0  0  0  0  0  0
    0.6070   -1.5550   -2.6550 H   0  0  0  0  0  0  0  0  0  0  0  0
    1.2960   -4.2130    0.6730 H   0  0  0  0  0  0  0  0  0  0  0  0
    3.0550   -2.6930    1.5320 H   0  0  0  0  0  0  0  0  0  0  0  0
   -0.4410   -4.7270   -0.9260 H   0  0  0  0  0  0  0  0  0  0  0  0
   -0.2440   -4.0420   -2.5200 H   0  0  0  0  0  0  0  0  0  0  0  0
   -1.6740   -2.0950   -1.9960 H   0  0  0  0  0  0  0  0  0  0  0  0
   -2.5450   -3.5840   -1.6600 H   0  0  0  0  0  0  0  0  0  0  0  0
   -0.9940   -4.1890    1.0540 H   0  0  0  0  0  0  0  0  0  0  0  0
   -1.4470   -3.4170    3.3360 H   0  0  0  0  0  0  0  0  0  0  0  0
   -2.7960   -1.3650    3.7420 H   0  0  0  0  0  0  0  0  0  0  0  0
   -4.4290    0.2820    1.2170 H   0  0  0  0  0  0  0  0  0  0  0  0
   -5.1210    0.9810   -1.3650 H   0  0  0  0  0  0  0  0  0  0  0  0
   -4.6820    3.3980   -1.7780 H   0  0  0  0  0  0  0  0  0  0  0  0
   -2.3920    4.3060   -1.5650 H   0  0  0  0  0  0  0  0  0  0  0  0
   -0.9300    0.3890   -0.4790 H   0  0  0  0  0  0  0  0  0  0  0  0
    0.5450    2.2390   -1.5280 H   0  0  0  0  0  0  0  0  0  0  0  0
   -0.0170    3.8910   -1.5010 H   0  0  0  0  0  0  0  0  0  0  0  0
    0.2100    4.1310    0.8420 H   0  0  0  0  0  0  0  0  0  0  0  0
   -0.2600    2.4850    1.1940 H   0  0  0  0  0  0  0  0  0  0  0  0
  1 33  1  0
  1  2  1  0
  2  3  2  0
  2  7  1  0
  3 34  1  0
  3  4  1  0
  4 35  1  0
  4  5  2  0
  5 32  1  0
  5  6  1  0
  6  7  2  0
  6 36  1  0
  7  8  1  0
  8  9  1  0
  9 10  2  0
  9 14  1  0
 10 37  1  0
 10 11  1  0
 11 38  1  0
 11 12  2  0
 12 15  1  0
 12 13  1  0
 13 14  2  0
 13 39  1  0
 14 40  1  0
 15 42  1  0
 15 16  1  0
 15 41  1  0
 16 43  1  0
 16 44  1  0
 16 17  1  0
 17 23  2  0
 17 18  1  0
 18 45  1  0
 18 19  2  0
 19 20  1  0
 19 46  1  0
 20 21  2  0
 20 47  1  0
 21 23  1  0
 21 22  1  0
 22 48  1  0
 23 24  1  0
 24 25  1  0
 25 26  2  0
 25 30  1  0
 26 27  1  0
 26 49  1  0
 27 50  1  0
 27 28  2  0
 28 51  1  0
 28 29  1  0
 29 31  1  0
 29 30  2  0
 30 52  1  0
 31 53  1  0
 31 54  1  0
 31 32  1  0
 32 55  1  0
 32 56  1  0
M  END
>  <id>  (664) 
768

>  <scaffolds>  (664) 
['c1ccccc1', 'c1ccc(CCc2ccccc2)cc1', 'c1cc2cc(c1)Oc1ccc(cc1)CCc1ccccc1Oc1cccc(c1)CC2']

>  <name>  (664) 
Marchantin C

>  <formula>  (664) 
C28H24O4

>  <SMILES>  (664) 
Oc1ccc5cc1Oc2ccc(cc2)CCc3cccc(O)c3Oc4cccc(c4)CC5

>  <ChEMBL_id>  (664) 
CHEMBL1243029

>  <ZINC_id>  (664) 


>  <PubChem_id>  (664) 
5319272

>  <DrugBank_id>  (664) 


>  <CAS_no>  (664) 
88418-47-7

>  <references>  (664) 
[{'journal': {'name': 'Phytochemistry', 'id': 10}, 'title': 'Distribution of cyclic bis(bibenzyls) in the South African liverwort Marchantia polymorpha', 'year': 1988, 'start_page': 161, 'volume': 27, 'issue': 1, 'doi': '10.1016/0031-9422(88)80606-X', 'isbn': '', 'despositor': {'code': 'GU2', 'first_name': 'Gugu', 'last_name': 'Mahlangu', 'id': 24}, 'refauthors_set': [{'author': {'first_name': 'Yoshinori', 'initials': 'Y', 'last_name': 'Asakawa', 'id': 932}, 'first_author': True, 'id': 1514}, {'author': {'first_name': 'Kyoko', 'initials': 'K', 'last_name': 'Okada', 'id': 933}, 'first_author': None, 'id': 1515}, {'author': {'first_name': 'Guido', 'initials': 'GW', 'last_name': 'Perold', 'id': 636}, 'first_author': None, 'id': 1516}], 'id': 427}]

>  <classifications>  (664) 
[{'classification': 'Cyclic bis(bibenzyl)', 'id': 876}]

>  <molecular_mass>  (664) 
424.488

$$$$
SANC00769_minRM1.pdb
     RDKit          3D

 53 55  0  0  1  0  0  0  0  0999 V2000
    2.8760   -3.6050    0.2440 C   0  0  0  0  0  0  0  0  0  0  0  0
    2.9990   -2.0850    0.3450 C   0  0  1  0  0  0  0  0  0  0  0  0
    1.6090   -1.3790    0.4950 C   0  0  1  0  0  0  0  0  0  0  0  0
    0.9330   -1.9530    1.5740 O   0  0  0  0  0  0  0  0  0  0  0  0
    1.7420    0.1540    0.6820 C   0  0  0  0  0  0  0  0  0  0  0  0
    1.8770    0.9640   -0.6150 C   0  0  2  0  0  0  0  0  0  0  0  0
    3.2770    0.8160   -1.1980 C   0  0  0  0  0  0  0  0  0  0  0  0
    1.5670    2.4650   -0.3750 C   0  0  2  0  0  0  0  0  0  0  0  0
    1.3330    3.2170   -1.6910 C   0  0  0  0  0  0  0  0  0  0  0  0
    2.6150    3.1350    0.2470 O   0  0  0  0  0  0  0  0  0  0  0  0
    0.3070    2.6420    0.4740 C   0  0  0  0  0  0  0  0  0  0  0  0
    0.2450    3.2760    1.5130 O   0  0  0  0  0  0  0  0  0  0  0  0
   -0.7870    2.0200   -0.0290 O   0  0  0  0  0  0  0  0  0  0  0  0
   -1.9850    2.1460    0.7210 C   0  0  0  0  0  0  0  0  0  0  0  0
   -2.9390    1.1220    0.2410 C   0  0  0  0  0  0  0  0  0  0  0  0
   -4.2800    1.2270    0.3080 C   0  0  0  0  0  0  0  0  0  0  0  0
   -4.9460   -0.0850   -0.0680 C   0  0  0  0  0  0  0  0  0  0  0  0
   -3.7920   -0.9880    0.1350 N   0  0  0  0  0  0  0  0  0  0  0  0
   -2.5960   -0.2210   -0.3420 C   0  0  2  0  0  0  0  0  0  0  0  0
   -1.4700   -1.1680    0.1200 C   0  0  2  0  0  0  0  0  0  0  0  0
   -0.4750   -1.0490   -0.8700 O   0  0  0  0  0  0  0  0  0  0  0  0
    0.7350   -1.6620   -0.7240 C   0  0  0  0  0  0  0  0  0  0  0  0
    1.1070   -2.2630   -1.7130 O   0  0  0  0  0  0  0  0  0  0  0  0
   -2.1200   -2.5840    0.0230 C   0  0  0  0  0  0  0  0  0  0  0  0
   -3.6180   -2.3670   -0.3250 C   0  0  0  0  0  0  0  0  0  0  0  0
    3.8100   -1.7130    1.4160 O   0  0  0  0  0  0  0  0  0  0  0  0
    3.8600   -4.0880    0.3530 H   0  0  0  0  0  0  0  0  0  0  0  0
    2.4900   -3.9400   -0.7270 H   0  0  0  0  0  0  0  0  0  0  0  0
    2.2200   -4.0410    1.0120 H   0  0  0  0  0  0  0  0  0  0  0  0
    3.5240   -1.6640   -0.5560 H   0  0  0  0  0  0  0  0  0  0  0  0
    1.3510   -1.6550    2.3880 H   0  0  0  0  0  0  0  0  0  0  0  0
    0.8550    0.4930    1.2600 H   0  0  0  0  0  0  0  0  0  0  0  0
    2.5980    0.3750    1.3550 H   0  0  0  0  0  0  0  0  0  0  0  0
    1.1360    0.6240   -1.3810 H   0  0  0  0  0  0  0  0  0  0  0  0
    3.5010   -0.2340   -1.4500 H   0  0  0  0  0  0  0  0  0  0  0  0
    4.0690    1.1500   -0.5120 H   0  0  0  0  0  0  0  0  0  0  0  0
    3.4070    1.3840   -2.1300 H   0  0  0  0  0  0  0  0  0  0  0  0
    0.5180    2.7690   -2.2770 H   0  0  0  0  0  0  0  0  0  0  0  0
    2.2300    3.2290   -2.3260 H   0  0  0  0  0  0  0  0  0  0  0  0
    1.0690    4.2700   -1.5150 H   0  0  0  0  0  0  0  0  0  0  0  0
    2.7510    2.7560    1.1220 H   0  0  0  0  0  0  0  0  0  0  0  0
   -2.3870    3.1800    0.6070 H   0  0  0  0  0  0  0  0  0  0  0  0
   -1.8220    1.9880    1.8150 H   0  0  0  0  0  0  0  0  0  0  0  0
   -4.8670    2.0830    0.6210 H   0  0  0  0  0  0  0  0  0  0  0  0
   -5.7820   -0.3630    0.6070 H   0  0  0  0  0  0  0  0  0  0  0  0
   -5.3750   -0.0550   -1.0960 H   0  0  0  0  0  0  0  0  0  0  0  0
   -2.5340   -0.0750   -1.4620 H   0  0  0  0  0  0  0  0  0  0  0  0
   -1.1180   -0.9170    1.1460 H   0  0  0  0  0  0  0  0  0  0  0  0
   -2.0070   -3.1260    0.9800 H   0  0  0  0  0  0  0  0  0  0  0  0
   -1.6260   -3.2250   -0.7320 H   0  0  0  0  0  0  0  0  0  0  0  0
   -3.8260   -2.5520   -1.4050 H   0  0  0  0  0  0  0  0  0  0  0  0
   -4.3000   -3.0460    0.2280 H   0  0  0  0  0  0  0  0  0  0  0  0
    3.6490   -2.3070    2.1570 H   0  0  0  0  0  0  0  0  0  0  0  0
  1 28  1  0
  1  2  1  0
  1 27  1  0
  1 29  1  0
  2 30  1  6
  2  3  1  0
  2 26  1  0
  3 22  1  0
  3  5  1  0
  3  4  1  1
  4 31  1  0
  5  6  1  0
  5 32  1  0
  5 33  1  0
  6 34  1  6
  6  7  1  0
  6  8  1  0
  7 37  1  0
  7 35  1  0
  7 36  1  0
  8  9  1  0
  8 10  1  1
  8 11  1  0
  9 39  1  0
  9 38  1  0
  9 40  1  0
 10 41  1  0
 11 13  1  0
 11 12  2  0
 13 14  1  0
 14 15  1  0
 14 42  1  0
 14 43  1  0
 15 19  1  0
 15 16  2  0
 16 17  1  0
 16 44  1  0
 17 46  1  0
 17 45  1  0
 18 17  1  0
 18 19  1  0
 18 25  1  0
 19 47  1  6
 19 20  1  0
 20 21  1  0
 20 24  1  0
 20 48  1  1
 21 22  1  0
 22 23  2  0
 24 50  1  0
 24 25  1  0
 24 49  1  0
 25 51  1  0
 25 52  1  0
 26 53  1  0
M  END
>  <id>  (665) 
769

>  <scaffolds>  (665) 
['O=C1CCCCC(=O)OC2CCN3CC=C(CO1)C23', 'C1CCNC1']

>  <name>  (665) 
Jacoline

>  <formula>  (665) 
C18H27NO7

>  <SMILES>  (665) 
CC(C1(O)CC(C)C(C)(O)C(=O)OCC2=CCN3C2C(OC1=O)CC3)O

>  <ChEMBL_id>  (665) 


>  <ZINC_id>  (665) 


>  <PubChem_id>  (665) 
78358487

>  <DrugBank_id>  (665) 


>  <CAS_no>  (665) 
480-76-2

>  <references>  (665) 
[{'journal': {'name': 'Phytochemistry', 'id': 10}, 'title': 'Diversity of pyrrolizidine alkaloids in native and invasive Senecio pterophorus (Asteraceae): Implications for toxicity', 'year': 2014, 'start_page': 137, 'volume': 108, 'issue': None, 'doi': '10.1016/j.phytochem.2014.09.006', 'isbn': '', 'despositor': {'code': 'AMU', 'first_name': 'Arnold', 'last_name': 'Amusengeri', 'id': 25}, 'refauthors_set': [{'author': {'first_name': 'Eva', 'initials': 'E', 'last_name': 'Castells', 'id': 929}, 'first_author': True, 'id': 1511}, {'author': {'first_name': 'Patrick', 'initials': 'PJ', 'last_name': 'Mulder', 'id': 930}, 'first_author': None, 'id': 1512}, {'author': {'first_name': 'Míriam', 'initials': 'M', 'last_name': 'Pérez-Trujillo', 'id': 931}, 'first_author': None, 'id': 1513}], 'id': 426}]

>  <classifications>  (665) 
[{'classification': 'Pyrrolizidine alkaloid', 'id': 875}, {'classification': 'Macrolides and analogues (Classyfire)', 'id': 945}]

>  <molecular_mass>  (665) 
369.41

$$$$
SANC00770_minRM1.pdb
     RDKit          3D

 56 60  0  0  0  0  0  0  0  0999 V2000
    7.0750    0.7230   -0.6960 O   0  0  0  0  0  0  0  0  0  0  0  0
    5.8510    0.1950   -0.4410 C   0  0  0  0  0  0  0  0  0  0  0  0
    5.5220   -1.1350   -0.7110 C   0  0  0  0  0  0  0  0  0  0  0  0
    4.2410   -1.5730   -0.4120 C   0  0  0  0  0  0  0  0  0  0  0  0
    3.3060   -0.7100    0.1570 C   0  0  0  0  0  0  0  0  0  0  0  0
    3.6460    0.6190    0.4160 C   0  0  0  0  0  0  0  0  0  0  0  0
    4.9240    1.0780    0.1140 C   0  0  0  0  0  0  0  0  0  0  0  0
    2.6760    1.6010    0.9870 C   0  0  0  0  0  0  0  0  0  0  0  0
    2.1500    2.5380   -0.1150 C   0  0  0  0  0  0  0  0  0  0  0  0
    0.6590    2.4630   -0.1510 C   0  0  0  0  0  0  0  0  0  0  0  0
    0.0030    1.8460   -1.2120 C   0  0  0  0  0  0  0  0  0  0  0  0
   -1.3740    1.6660   -1.1730 C   0  0  0  0  0  0  0  0  0  0  0  0
   -2.0720    2.1110   -0.0540 C   0  0  0  0  0  0  0  0  0  0  0  0
   -1.4440    2.7890    0.9900 C   0  0  0  0  0  0  0  0  0  0  0  0
   -0.0690    2.9640    0.9260 C   0  0  0  0  0  0  0  0  0  0  0  0
   -3.4370    1.9600    0.0490 O   0  0  0  0  0  0  0  0  0  0  0  0
   -3.8770    0.6800   -0.1760 C   0  0  0  0  0  0  0  0  0  0  0  0
   -3.1290   -0.4580    0.1020 C   0  0  0  0  0  0  0  0  0  0  0  0
   -3.6940   -1.7140   -0.0980 C   0  0  0  0  0  0  0  0  0  0  0  0
   -5.0040   -1.8210   -0.5600 C   0  0  0  0  0  0  0  0  0  0  0  0
   -5.7600   -0.6870   -0.8320 C   0  0  0  0  0  0  0  0  0  0  0  0
   -5.1960    0.5720   -0.6470 C   0  0  0  0  0  0  0  0  0  0  0  0
   -5.8350    1.7390   -0.8990 O   0  0  0  0  0  0  0  0  0  0  0  0
   -2.9040   -2.9610    0.1340 C   0  0  0  0  0  0  0  0  0  0  0  0
   -1.9160   -2.8690    1.2970 C   0  0  0  0  0  0  0  0  0  0  0  0
   -0.5730   -2.3010    0.9600 C   0  0  0  0  0  0  0  0  0  0  0  0
    0.2590   -1.9040    2.0070 C   0  0  0  0  0  0  0  0  0  0  0  0
    1.5240   -1.3920    1.7470 C   0  0  0  0  0  0  0  0  0  0  0  0
    1.9780   -1.2480    0.4400 C   0  0  0  0  0  0  0  0  0  0  0  0
    1.1460   -1.6770   -0.6010 C   0  0  0  0  0  0  0  0  0  0  0  0
    1.6490   -1.5630   -1.8550 O   0  0  0  0  0  0  0  0  0  0  0  0
   -0.1240   -2.2030   -0.3500 C   0  0  0  0  0  0  0  0  0  0  0  0
    7.6300    0.0410   -1.0900 H   0  0  0  0  0  0  0  0  0  0  0  0
    6.2470   -1.8230   -1.1520 H   0  0  0  0  0  0  0  0  0  0  0  0
    3.9610   -2.6080   -0.6300 H   0  0  0  0  0  0  0  0  0  0  0  0
    5.2070    2.1170    0.3050 H   0  0  0  0  0  0  0  0  0  0  0  0
    3.1650    2.1880    1.7950 H   0  0  0  0  0  0  0  0  0  0  0  0
    1.8400    1.0950    1.5130 H   0  0  0  0  0  0  0  0  0  0  0  0
    2.5960    2.2920   -1.1020 H   0  0  0  0  0  0  0  0  0  0  0  0
    2.4770    3.5840    0.0670 H   0  0  0  0  0  0  0  0  0  0  0  0
    0.5680    1.4830   -2.0770 H   0  0  0  0  0  0  0  0  0  0  0  0
   -1.8970    1.1750   -1.9980 H   0  0  0  0  0  0  0  0  0  0  0  0
   -2.0240    3.1660    1.8360 H   0  0  0  0  0  0  0  0  0  0  0  0
    0.4470    3.4830    1.7400 H   0  0  0  0  0  0  0  0  0  0  0  0
   -2.1020   -0.3610    0.4720 H   0  0  0  0  0  0  0  0  0  0  0  0
   -5.4570   -2.8040   -0.7190 H   0  0  0  0  0  0  0  0  0  0  0  0
   -6.7870   -0.7930   -1.1910 H   0  0  0  0  0  0  0  0  0  0  0  0
   -6.7500    1.5380   -1.1250 H   0  0  0  0  0  0  0  0  0  0  0  0
   -2.3840   -3.2330   -0.8140 H   0  0  0  0  0  0  0  0  0  0  0  0
   -3.5890   -3.8180    0.3210 H   0  0  0  0  0  0  0  0  0  0  0  0
   -1.7460   -3.8860    1.7170 H   0  0  0  0  0  0  0  0  0  0  0  0
   -2.3770   -2.2990    2.1330 H   0  0  0  0  0  0  0  0  0  0  0  0
   -0.0790   -1.9960    3.0430 H   0  0  0  0  0  0  0  0  0  0  0  0
    2.1750   -1.1020    2.5790 H   0  0  0  0  0  0  0  0  0  0  0  0
    0.9630   -1.8070   -2.4870 H   0  0  0  0  0  0  0  0  0  0  0  0
   -0.7660   -2.5360   -1.1740 H   0  0  0  0  0  0  0  0  0  0  0  0
  1 33  1  0
  1  2  1  0
  2  3  2  0
  2  7  1  0
  3 34  1  0
  3  4  1  0
  4 35  1  0
  4  5  2  0
  5  6  1  0
  5 29  1  0
  6  7  2  0
  6  8  1  0
  7 36  1  0
  8  9  1  0
  8 38  1  0
  8 37  1  0
  9 39  1  0
  9 10  1  0
  9 40  1  0
 10 11  2  0
 10 15  1  0
 11 41  1  0
 11 12  1  0
 12 42  1  0
 12 13  2  0
 13 16  1  0
 13 14  1  0
 14 15  2  0
 14 43  1  0
 15 44  1  0
 16 17  1  0
 17 22  2  0
 17 18  1  0
 18 19  2  0
 18 45  1  0
 19 20  1  0
 19 24  1  0
 20 21  2  0
 20 46  1  0
 21 47  1  0
 21 22  1  0
 22 23  1  0
 23 48  1  0
 24 49  1  0
 24 50  1  0
 24 25  1  0
 25 26  1  0
 25 51  1  0
 25 52  1  0
 26 32  2  0
 26 27  1  0
 27 28  2  0
 27 53  1  0
 28 29  1  0
 28 54  1  0
 29 30  2  0
 30 31  1  0
 30 32  1  0
 31 55  1  0
 32 56  1  0
M  END
>  <id>  (666) 
770

>  <scaffolds>  (666) 
['c1ccccc1', 'c1ccc(CCc2ccccc2)cc1', 'c1cc2cc(c1)Oc1ccc(cc1)CCc1ccccc1-c1ccc(cc1)CC2']

>  <name>  (666) 
Riccardin C

>  <formula>  (666) 
C28H24O4

>  <SMILES>  (666) 
Oc1ccc4c(c1)CCc2ccc(cc2)Oc3cc(ccc3O)CCc5ccc4c(O)c5

>  <ChEMBL_id>  (666) 
CHEMBL411317

>  <ZINC_id>  (666) 


>  <PubChem_id>  (666) 
10070992

>  <DrugBank_id>  (666) 


>  <CAS_no>  (666) 
84575-08-6

>  <references>  (666) 
[{'journal': {'name': 'Phytochemistry', 'id': 10}, 'title': 'Distribution of cyclic bis(bibenzyls) in the South African liverwort Marchantia polymorpha', 'year': 1988, 'start_page': 161, 'volume': 27, 'issue': 1, 'doi': '10.1016/0031-9422(88)80606-X', 'isbn': '', 'despositor': {'code': 'GU2', 'first_name': 'Gugu', 'last_name': 'Mahlangu', 'id': 24}, 'refauthors_set': [{'author': {'first_name': 'Yoshinori', 'initials': 'Y', 'last_name': 'Asakawa', 'id': 932}, 'first_author': True, 'id': 1514}, {'author': {'first_name': 'Kyoko', 'initials': 'K', 'last_name': 'Okada', 'id': 933}, 'first_author': None, 'id': 1515}, {'author': {'first_name': 'Guido', 'initials': 'GW', 'last_name': 'Perold', 'id': 636}, 'first_author': None, 'id': 1516}], 'id': 427}]

>  <classifications>  (666) 
[{'classification': 'Cyclic bis(bibenzyl)', 'id': 876}]

>  <molecular_mass>  (666) 
424.488

$$$$
SANC00771_minRM1.pdb
     RDKit          3D

 49 51  0  0  1  0  0  0  0  0999 V2000
   -2.1010    3.7510    1.2250 C   0  0  0  0  0  0  0  0  0  0  0  0
   -1.4090    3.0680    0.1060 C   0  0  0  0  0  0  0  0  0  0  0  0
   -1.1500    1.7560    0.0610 C   0  0  0  0  0  0  0  0  0  0  0  0
   -1.5410    0.7750    1.1110 C   0  0  0  0  0  0  0  0  0  0  0  0
   -2.7630   -0.0900    0.7780 C   0  0  1  0  0  0  0  0  0  0  0  0
   -3.9520    0.7820    0.3990 C   0  0  0  0  0  0  0  0  0  0  0  0
   -2.4920   -1.1470   -0.3150 C   0  0  1  0  0  0  0  0  0  0  0  0
   -3.6880   -2.0990   -0.4570 C   0  0  0  0  0  0  0  0  0  0  0  0
   -2.1580   -0.5910   -1.5430 O   0  0  0  0  0  0  0  0  0  0  0  0
   -1.2690   -1.9810    0.0660 C   0  0  0  0  0  0  0  0  0  0  0  0
   -1.2680   -2.9850    0.7520 O   0  0  0  0  0  0  0  0  0  0  0  0
   -0.1320   -1.4540   -0.4400 O   0  0  0  0  0  0  0  0  0  0  0  0
    1.0140   -2.2720   -0.5610 C   0  0  0  0  0  0  0  0  0  0  0  0
    2.2180   -1.4940   -0.1760 C   0  0  0  0  0  0  0  0  0  0  0  0
    3.4640   -1.8600   -0.4960 C   0  0  0  0  0  0  0  0  0  0  0  0
    4.4730   -0.9560    0.1430 C   0  0  0  0  0  0  0  0  0  0  0  0
    3.6850    0.0030    0.9930 N   0  0  0  0  0  0  0  0  0  0  0  0
    2.2230   -0.2820    0.7110 C   0  0  1  0  0  0  0  0  0  0  0  0
    1.6120    1.0190    0.1140 C   0  0  2  0  0  0  0  0  0  0  0  0
    0.8410    0.7200   -1.0180 O   0  0  0  0  0  0  0  0  0  0  0  0
   -0.4000    1.2820   -1.1290 C   0  0  0  0  0  0  0  0  0  0  0  0
   -0.8000    1.3890   -2.2730 O   0  0  0  0  0  0  0  0  0  0  0  0
    2.8210    1.8640   -0.3320 C   0  0  0  0  0  0  0  0  0  0  0  0
    3.9230    1.4320    0.6390 C   0  0  0  0  0  0  0  0  0  0  0  0
   -1.5050    3.7210    2.1500 H   0  0  0  0  0  0  0  0  0  0  0  0
   -3.0810    3.3090    1.4560 H   0  0  0  0  0  0  0  0  0  0  0  0
   -2.2890    4.8150    1.0120 H   0  0  0  0  0  0  0  0  0  0  0  0
   -1.0850    3.7210   -0.7160 H   0  0  0  0  0  0  0  0  0  0  0  0
   -1.7470    1.3070    2.0680 H   0  0  0  0  0  0  0  0  0  0  0  0
   -0.6760    0.1270    1.3750 H   0  0  0  0  0  0  0  0  0  0  0  0
   -3.0250   -0.6620    1.7090 H   0  0  0  0  0  0  0  0  0  0  0  0
   -4.7990    0.1930    0.0130 H   0  0  0  0  0  0  0  0  0  0  0  0
   -3.7130    1.5360   -0.3650 H   0  0  0  0  0  0  0  0  0  0  0  0
   -4.3400    1.3320    1.2700 H   0  0  0  0  0  0  0  0  0  0  0  0
   -4.6210   -1.5540   -0.6730 H   0  0  0  0  0  0  0  0  0  0  0  0
   -3.8640   -2.6860    0.4550 H   0  0  0  0  0  0  0  0  0  0  0  0
   -3.5380   -2.8180   -1.2760 H   0  0  0  0  0  0  0  0  0  0  0  0
   -2.9130   -0.0920   -1.8720 H   0  0  0  0  0  0  0  0  0  0  0  0
    1.0610   -2.5820   -1.6310 H   0  0  0  0  0  0  0  0  0  0  0  0
    0.9840   -3.2100    0.0430 H   0  0  0  0  0  0  0  0  0  0  0  0
    3.7720   -2.6970   -1.1140 H   0  0  0  0  0  0  0  0  0  0  0  0
    5.1530   -1.5160    0.8240 H   0  0  0  0  0  0  0  0  0  0  0  0
    5.1360   -0.4920   -0.6210 H   0  0  0  0  0  0  0  0  0  0  0  0
    1.7360   -0.5290    1.6890 H   0  0  0  0  0  0  0  0  0  0  0  0
    1.0600    1.5730    0.9190 H   0  0  0  0  0  0  0  0  0  0  0  0
    2.6170    2.9500   -0.2940 H   0  0  0  0  0  0  0  0  0  0  0  0
    3.1010    1.6650   -1.3860 H   0  0  0  0  0  0  0  0  0  0  0  0
    3.8730    2.0070    1.5920 H   0  0  0  0  0  0  0  0  0  0  0  0
    4.9420    1.6300    0.2430 H   0  0  0  0  0  0  0  0  0  0  0  0
  1  2  1  0
  1 27  1  0
  1 26  1  0
  1 25  1  0
  2 28  1  0
  2  3  2  0
  3 21  1  0
  3  4  1  0
  4  5  1  0
  4 30  1  0
  4 29  1  0
  5  7  1  0
  5  6  1  0
  5 31  1  1
  6 33  1  0
  6 32  1  0
  6 34  1  0
  7  9  1  6
  7  8  1  0
  7 10  1  0
  8 37  1  0
  8 35  1  0
  8 36  1  0
  9 38  1  0
 10 12  1  0
 10 11  2  0
 12 13  1  0
 13 39  1  0
 13 14  1  0
 13 40  1  0
 14 15  2  0
 14 18  1  0
 15 41  1  0
 15 16  1  0
 16 43  1  0
 16 42  1  0
 17 16  1  0
 17 24  1  0
 17 18  1  0
 18 19  1  0
 18 44  1  1
 19 20  1  0
 19 23  1  0
 19 45  1  1
 20 21  1  0
 21 22  2  0
 23 47  1  0
 23 46  1  0
 23 24  1  0
 24 49  1  0
 24 48  1  0
M  END
>  <id>  (667) 
771

>  <scaffolds>  (667) 
['O=C1CCCCC(=O)OC2CCN3CC=C(CO1)C23', 'C=C1CCCC(=O)OCC2=CCN3CCC(OC1=O)C23', 'C1CCNC1']

>  <name>  (667) 
Integerrimine

>  <formula>  (667) 
C18H25NO5

>  <SMILES>  (667) 
CC=C1C[C@@H](C)[C@@](C)(O)C(=O)OCC2=CCN3[C@H]2[C@H](OC1=O)CC3

>  <ChEMBL_id>  (667) 
CHEMBL488203

>  <ZINC_id>  (667) 


>  <PubChem_id>  (667) 
5281733

>  <DrugBank_id>  (667) 


>  <CAS_no>  (667) 
480-79-5

>  <references>  (667) 
[{'journal': {'name': 'Phytochemistry', 'id': 10}, 'title': 'Diversity of pyrrolizidine alkaloids in native and invasive Senecio pterophorus (Asteraceae): Implications for toxicity', 'year': 2014, 'start_page': 137, 'volume': 108, 'issue': None, 'doi': '10.1016/j.phytochem.2014.09.006', 'isbn': '', 'despositor': {'code': 'AMU', 'first_name': 'Arnold', 'last_name': 'Amusengeri', 'id': 25}, 'refauthors_set': [{'author': {'first_name': 'Eva', 'initials': 'E', 'last_name': 'Castells', 'id': 929}, 'first_author': True, 'id': 1511}, {'author': {'first_name': 'Patrick', 'initials': 'PJ', 'last_name': 'Mulder', 'id': 930}, 'first_author': None, 'id': 1512}, {'author': {'first_name': 'Míriam', 'initials': 'M', 'last_name': 'Pérez-Trujillo', 'id': 931}, 'first_author': None, 'id': 1513}], 'id': 426}]

>  <classifications>  (667) 
[{'classification': 'Pyrrolizidine alkaloid', 'id': 875}, {'classification': 'Macrolides and analogues (Classyfire)', 'id': 945}]

>  <molecular_mass>  (667) 
335.39

$$$$
SANC00772_minRM1.pdb
     RDKit          3D

 57 61  0  0  0  0  0  0  0  0999 V2000
   -5.7890    0.1580   -1.2390 O   0  0  0  0  0  0  0  0  0  0  0  0
   -4.8160    0.5810   -0.3970 C   0  0  0  0  0  0  0  0  0  0  0  0
   -4.8420    1.9410   -0.0740 C   0  0  0  0  0  0  0  0  0  0  0  0
   -3.8900    2.4570    0.7920 C   0  0  0  0  0  0  0  0  0  0  0  0
   -2.9130    1.6340    1.3490 C   0  0  0  0  0  0  0  0  0  0  0  0
   -2.8950    0.2770    1.0510 C   0  0  0  0  0  0  0  0  0  0  0  0
   -3.8380   -0.2450    0.1700 C   0  0  0  0  0  0  0  0  0  0  0  0
   -3.8960   -1.5860   -0.1460 O   0  0  0  0  0  0  0  0  0  0  0  0
   -2.6280   -2.1270   -0.2470 C   0  0  0  0  0  0  0  0  0  0  0  0
   -2.2040   -2.9920    0.7590 C   0  0  0  0  0  0  0  0  0  0  0  0
   -0.8880   -3.4320    0.7310 C   0  0  0  0  0  0  0  0  0  0  0  0
   -0.0240   -3.0060   -0.2780 C   0  0  0  0  0  0  0  0  0  0  0  0
   -0.5110   -2.2570   -1.3450 C   0  0  0  0  0  0  0  0  0  0  0  0
   -1.8220   -1.7980   -1.3320 C   0  0  0  0  0  0  0  0  0  0  0  0
    1.4380   -3.2840   -0.1390 C   0  0  0  0  0  0  0  0  0  0  0  0
    1.9720   -2.5360    1.0950 C   0  0  0  0  0  0  0  0  0  0  0  0
    3.0640   -1.5750    0.7600 C   0  0  0  0  0  0  0  0  0  0  0  0
    4.3390   -1.7460    1.2880 C   0  0  0  0  0  0  0  0  0  0  0  0
    5.3550   -0.8310    1.0380 C   0  0  0  0  0  0  0  0  0  0  0  0
    5.0960    0.2670    0.2230 C   0  0  0  0  0  0  0  0  0  0  0  0
    6.0150    1.2190   -0.0780 O   0  0  0  0  0  0  0  0  0  0  0  0
    3.8270    0.4580   -0.3430 C   0  0  0  0  0  0  0  0  0  0  0  0
    3.5520    1.4470   -1.2270 O   0  0  0  0  0  0  0  0  0  0  0  0
    2.8140   -0.4630   -0.0570 C   0  0  0  0  0  0  0  0  0  0  0  0
    1.5900   -0.4160   -0.6610 O   0  0  0  0  0  0  0  0  0  0  0  0
    0.9740    0.8180   -0.7050 C   0  0  0  0  0  0  0  0  0  0  0  0
    0.7580    1.3620   -1.9700 C   0  0  0  0  0  0  0  0  0  0  0  0
   -0.0250    2.5040   -2.0650 C   0  0  0  0  0  0  0  0  0  0  0  0
   -0.5760    3.0780   -0.9250 C   0  0  0  0  0  0  0  0  0  0  0  0
   -0.3400    2.5230    0.3310 C   0  0  0  0  0  0  0  0  0  0  0  0
    0.4580    1.3880    0.4540 C   0  0  0  0  0  0  0  0  0  0  0  0
   -0.9380    3.1540    1.5460 C   0  0  0  0  0  0  0  0  0  0  0  0
   -1.8890    2.2030    2.2750 C   0  0  0  0  0  0  0  0  0  0  0  0
   -5.6160   -0.7560   -1.4950 H   0  0  0  0  0  0  0  0  0  0  0  0
   -5.6110    2.5870   -0.5080 H   0  0  0  0  0  0  0  0  0  0  0  0
   -3.9110    3.5230    1.0390 H   0  0  0  0  0  0  0  0  0  0  0  0
   -2.1370   -0.3770    1.4940 H   0  0  0  0  0  0  0  0  0  0  0  0
   -2.8850   -3.2910    1.5590 H   0  0  0  0  0  0  0  0  0  0  0  0
   -0.5210   -4.0890    1.5240 H   0  0  0  0  0  0  0  0  0  0  0  0
    0.1450   -1.9850   -2.1780 H   0  0  0  0  0  0  0  0  0  0  0  0
   -2.2020   -1.1600   -2.1350 H   0  0  0  0  0  0  0  0  0  0  0  0
    2.0000   -3.0070   -1.0550 H   0  0  0  0  0  0  0  0  0  0  0  0
    1.6130   -4.3770   -0.0420 H   0  0  0  0  0  0  0  0  0  0  0  0
    1.1660   -1.9670    1.6100 H   0  0  0  0  0  0  0  0  0  0  0  0
    2.3080   -3.2680    1.8610 H   0  0  0  0  0  0  0  0  0  0  0  0
    4.5570   -2.6130    1.9200 H   0  0  0  0  0  0  0  0  0  0  0  0
    6.3450   -0.9870    1.4730 H   0  0  0  0  0  0  0  0  0  0  0  0
    6.8360    1.0090    0.3800 H   0  0  0  0  0  0  0  0  0  0  0  0
    4.0150    2.2440   -0.9390 H   0  0  0  0  0  0  0  0  0  0  0  0
    1.1980    0.8990   -2.8570 H   0  0  0  0  0  0  0  0  0  0  0  0
   -0.2110    2.9530   -3.0450 H   0  0  0  0  0  0  0  0  0  0  0  0
   -1.2020    3.9690   -1.0280 H   0  0  0  0  0  0  0  0  0  0  0  0
    0.6670    0.9430    1.4300 H   0  0  0  0  0  0  0  0  0  0  0  0
   -0.1260    3.4790    2.2320 H   0  0  0  0  0  0  0  0  0  0  0  0
   -1.4700    4.0960    1.2920 H   0  0  0  0  0  0  0  0  0  0  0  0
   -2.3950    2.7390    3.1080 H   0  0  0  0  0  0  0  0  0  0  0  0
   -1.3140    1.4010    2.7860 H   0  0  0  0  0  0  0  0  0  0  0  0
  1 34  1  0
  1  2  1  0
  2  3  2  0
  2  7  1  0
  3 35  1  0
  3  4  1  0
  4 36  1  0
  4  5  2  0
  5  6  1  0
  5 33  1  0
  6  7  2  0
  6 37  1  0
  7  8  1  0
  8  9  1  0
  9 14  2  0
  9 10  1  0
 10 11  2  0
 10 38  1  0
 11 12  1  0
 11 39  1  0
 12 13  2  0
 12 15  1  0
 13 40  1  0
 13 14  1  0
 14 41  1  0
 15 42  1  0
 15 43  1  0
 15 16  1  0
 16 17  1  0
 16 44  1  0
 16 45  1  0
 17 24  2  0
 17 18  1  0
 18 19  2  0
 18 46  1  0
 19 20  1  0
 19 47  1  0
 20 22  2  0
 20 21  1  0
 21 48  1  0
 22 23  1  0
 22 24  1  0
 23 49  1  0
 24 25  1  0
 25 26  1  0
 26 27  2  0
 26 31  1  0
 27 50  1  0
 27 28  1  0
 28 51  1  0
 28 29  2  0
 29 52  1  0
 29 30  1  0
 30 31  2  0
 30 32  1  0
 31 53  1  0
 32 55  1  0
 32 54  1  0
 32 33  1  0
 33 57  1  0
 33 56  1  0
M  END
>  <id>  (668) 
772

>  <scaffolds>  (668) 
['c1ccccc1', 'c1ccc(CCc2ccccc2)cc1', 'c1cc2cc(c1)Oc1ccc(cc1)CCc1ccccc1Oc1cccc(c1)CC2']

>  <name>  (668) 
Marchantin H

>  <formula>  (668) 
C28H24O5

>  <SMILES>  (668) 
Oc1ccc5cc1Oc2ccc(cc2)CCc3ccc(O)c(O)c3Oc4cccc(c4)CC5

>  <ChEMBL_id>  (668) 
CHEMBL462745

>  <ZINC_id>  (668) 


>  <PubChem_id>  (668) 
44584302

>  <DrugBank_id>  (668) 


>  <CAS_no>  (668) 
99481-36-4

>  <references>  (668) 
[{'journal': {'name': 'Phytochemistry', 'id': 10}, 'title': 'Distribution of cyclic bis(bibenzyls) in the South African liverwort Marchantia polymorpha', 'year': 1988, 'start_page': 161, 'volume': 27, 'issue': 1, 'doi': '10.1016/0031-9422(88)80606-X', 'isbn': '', 'despositor': {'code': 'GU2', 'first_name': 'Gugu', 'last_name': 'Mahlangu', 'id': 24}, 'refauthors_set': [{'author': {'first_name': 'Yoshinori', 'initials': 'Y', 'last_name': 'Asakawa', 'id': 932}, 'first_author': True, 'id': 1514}, {'author': {'first_name': 'Kyoko', 'initials': 'K', 'last_name': 'Okada', 'id': 933}, 'first_author': None, 'id': 1515}, {'author': {'first_name': 'Guido', 'initials': 'GW', 'last_name': 'Perold', 'id': 636}, 'first_author': None, 'id': 1516}], 'id': 427}]

>  <classifications>  (668) 
[{'classification': 'Cyclic bis(bibenzyl)', 'id': 876}]

>  <molecular_mass>  (668) 
440.487

$$$$
SANC00773_minRM1.pdb
     RDKit          3D

 37 38  0  0  1  0  0  0  0  0999 V2000
   -4.7140    0.1550   -0.2850 C   0  0  0  0  0  0  0  0  0  0  0  0
   -3.2460    0.0070   -0.1110 C   0  0  0  0  0  0  0  0  0  0  0  0
   -2.4790    1.1210    0.2240 C   0  0  0  0  0  0  0  0  0  0  0  0
   -1.1080    1.0000    0.3860 C   0  0  0  0  0  0  0  0  0  0  0  0
   -0.4650   -0.2250    0.2060 C   0  0  0  0  0  0  0  0  0  0  0  0
    1.0190   -0.3230    0.4310 C   0  0  1  0  0  0  0  0  0  0  0  0
    1.2380   -0.2200    1.9410 C   0  0  0  0  0  0  0  0  0  0  0  0
    1.6200   -1.6530   -0.0610 C   0  0  0  0  0  0  0  0  0  0  0  0
    3.1160   -1.3990   -0.2140 C   0  0  0  0  0  0  0  0  0  0  0  0
    3.2700    0.1050   -0.4300 C   0  0  0  0  0  0  0  0  0  0  0  0
    1.8600    0.7280   -0.3440 C   0  0  1  0  0  0  0  0  0  0  0  0
    1.2980    0.9170   -1.7520 C   0  0  0  0  0  0  0  0  0  0  0  0
    1.9610    2.0960    0.3220 C   0  0  0  0  0  0  0  0  0  0  0  0
   -1.2430   -1.3380   -0.1040 C   0  0  0  0  0  0  0  0  0  0  0  0
   -2.6200   -1.2220   -0.2680 C   0  0  0  0  0  0  0  0  0  0  0  0
   -5.2180   -0.7800   -0.5700 H   0  0  0  0  0  0  0  0  0  0  0  0
   -5.1960    0.5010    0.6420 H   0  0  0  0  0  0  0  0  0  0  0  0
   -4.9560    0.8920   -1.0650 H   0  0  0  0  0  0  0  0  0  0  0  0
   -2.9620    2.0930    0.3630 H   0  0  0  0  0  0  0  0  0  0  0  0
   -0.5340    1.8940    0.6620 H   0  0  0  0  0  0  0  0  0  0  0  0
    2.3020   -0.2440    2.2140 H   0  0  0  0  0  0  0  0  0  0  0  0
    0.8160    0.6990    2.3740 H   0  0  0  0  0  0  0  0  0  0  0  0
    0.7560   -1.0510    2.4790 H   0  0  0  0  0  0  0  0  0  0  0  0
    1.4120   -2.4970    0.6250 H   0  0  0  0  0  0  0  0  0  0  0  0
    1.1850   -1.9650   -1.0330 H   0  0  0  0  0  0  0  0  0  0  0  0
    3.5510   -1.9890   -1.0450 H   0  0  0  0  0  0  0  0  0  0  0  0
    3.6780   -1.7410    0.6790 H   0  0  0  0  0  0  0  0  0  0  0  0
    3.9600    0.5380    0.3230 H   0  0  0  0  0  0  0  0  0  0  0  0
    3.7640    0.3340   -1.3950 H   0  0  0  0  0  0  0  0  0  0  0  0
    1.2070   -0.0290   -2.3030 H   0  0  0  0  0  0  0  0  0  0  0  0
    0.3000    1.3780   -1.7530 H   0  0  0  0  0  0  0  0  0  0  0  0
    1.9330    1.5720   -2.3680 H   0  0  0  0  0  0  0  0  0  0  0  0
    2.5540    2.7950   -0.2870 H   0  0  0  0  0  0  0  0  0  0  0  0
    0.9780    2.5700    0.4690 H   0  0  0  0  0  0  0  0  0  0  0  0
    2.4460    2.0730    1.3080 H   0  0  0  0  0  0  0  0  0  0  0  0
   -0.8070   -2.3340   -0.2180 H   0  0  0  0  0  0  0  0  0  0  0  0
   -3.2060   -2.1110   -0.5190 H   0  0  0  0  0  0  0  0  0  0  0  0
  1 18  1  0
  1 16  1  0
  1  2  1  0
  1 17  1  0
  2 15  2  0
  2  3  1  0
  3 19  1  0
  3  4  2  0
  4  5  1  0
  4 20  1  0
  5 14  2  0
  5  6  1  0
  6 11  1  0
  6  8  1  0
  6  7  1  1
  7 21  1  0
  7 22  1  0
  7 23  1  0
  8 25  1  0
  8  9  1  0
  8 24  1  0
  9 26  1  0
  9 10  1  0
  9 27  1  0
 10 29  1  0
 10 11  1  0
 10 28  1  0
 11 12  1  6
 11 13  1  0
 12 32  1  0
 12 30  1  0
 12 31  1  0
 13 33  1  0
 13 34  1  0
 13 35  1  0
 14 15  1  0
 14 36  1  0
 15 37  1  0
M  END
>  <id>  (669) 
773

>  <scaffolds>  (669) 
['c1ccccc1', 'c1ccc(C2CCCC2)cc1']

>  <name>  (669) 
(-)-Cuparene

>  <formula>  (669) 
C15H22

>  <SMILES>  (669) 
Cc2ccc([C@@]1(C)CCCC1(C)C)cc2

>  <ChEMBL_id>  (669) 


>  <ZINC_id>  (669) 


>  <PubChem_id>  (669) 


>  <DrugBank_id>  (669) 


>  <CAS_no>  (669) 
56324-31-3

>  <references>  (669) 
[{'journal': {'name': 'Phytochemistry', 'id': 10}, 'title': 'Distribution of cyclic bis(bibenzyls) in the South African liverwort Marchantia polymorpha', 'year': 1988, 'start_page': 161, 'volume': 27, 'issue': 1, 'doi': '10.1016/0031-9422(88)80606-X', 'isbn': '', 'despositor': {'code': 'GU2', 'first_name': 'Gugu', 'last_name': 'Mahlangu', 'id': 24}, 'refauthors_set': [{'author': {'first_name': 'Yoshinori', 'initials': 'Y', 'last_name': 'Asakawa', 'id': 932}, 'first_author': True, 'id': 1514}, {'author': {'first_name': 'Kyoko', 'initials': 'K', 'last_name': 'Okada', 'id': 933}, 'first_author': None, 'id': 1515}, {'author': {'first_name': 'Guido', 'initials': 'GW', 'last_name': 'Perold', 'id': 636}, 'first_author': None, 'id': 1516}], 'id': 427}]

>  <classifications>  (669) 
[{'classification': 'Sesquiterpenoid', 'id': 829}, {'classification': 'Phenol lipids (Classyfire)', 'id': 951}]

>  <molecular_mass>  (669) 
202.33

$$$$
SANC00774_minRM1.pdb
     RDKit          3D

 53 54  0  0  1  0  0  0  0  0999 V2000
   -3.8900   -2.1980    1.3100 C   0  0  0  0  0  0  0  0  0  0  0  0
   -2.4750   -2.2900    0.8830 C   0  0  0  0  0  0  0  0  0  0  0  0
   -1.9700   -1.6770   -0.1940 C   0  0  0  0  0  0  0  0  0  0  0  0
   -2.7320   -0.8670   -1.1800 C   0  0  0  0  0  0  0  0  0  0  0  0
   -2.3510    0.6180   -1.2840 C   0  0  1  0  0  0  0  0  0  0  0  0
   -3.1940    1.2340   -2.4020 C   0  0  0  0  0  0  0  0  0  0  0  0
   -2.5750    1.4050    0.0290 C   0  0  1  0  0  0  0  0  0  0  0  0
   -2.4750    2.9280   -0.1510 C   0  0  0  0  0  0  0  0  0  0  0  0
   -3.8670    1.0840    0.4430 O   0  0  0  0  0  0  0  0  0  0  0  0
   -1.5960    0.9740    1.1270 C   0  0  0  0  0  0  0  0  0  0  0  0
   -1.9440    0.2860    2.0710 O   0  0  0  0  0  0  0  0  0  0  0  0
   -0.3280    1.4500    1.2550 O   0  0  0  0  0  0  0  0  0  0  0  0
    0.3850    1.9510    0.1440 C   0  0  0  0  0  0  0  0  0  0  0  0
    1.7430    1.3170    0.2190 C   0  0  0  0  0  0  0  0  0  0  0  0
    2.5530    1.4750    1.2610 C   0  0  0  0  0  0  0  0  0  0  0  0
    3.8900    0.8130    1.3870 C   0  0  0  0  0  0  0  0  0  0  0  0
    4.1410   -0.0720    0.2150 N   0  0  0  0  0  0  0  0  0  0  0  0
    3.7660   -1.4870    0.4880 C   0  0  0  0  0  0  0  0  0  0  0  0
    2.2410   -1.5930    0.5670 C   0  0  0  0  0  0  0  0  0  0  0  0
    1.6150   -1.0230   -0.7080 C   0  0  1  0  0  0  0  0  0  0  0  0
    0.2170   -0.8760   -0.5360 O   0  0  0  0  0  0  0  0  0  0  0  0
   -0.5640   -1.9850   -0.5220 C   0  0  0  0  0  0  0  0  0  0  0  0
   -0.0880   -3.0810   -0.7530 O   0  0  0  0  0  0  0  0  0  0  0  0
    2.0580    0.4310   -0.9200 C   0  0  0  0  0  0  0  0  0  0  0  0
    2.5020    0.8170   -1.9810 O   0  0  0  0  0  0  0  0  0  0  0  0
    5.5330    0.0400   -0.2770 C   0  0  0  0  0  0  0  0  0  0  0  0
   -4.1900   -1.1610    1.5270 H   0  0  0  0  0  0  0  0  0  0  0  0
   -4.5800   -2.5870    0.5450 H   0  0  0  0  0  0  0  0  0  0  0  0
   -4.0870   -2.7740    2.2280 H   0  0  0  0  0  0  0  0  0  0  0  0
   -1.8280   -2.9100    1.5180 H   0  0  0  0  0  0  0  0  0  0  0  0
   -2.5910   -1.3440   -2.1780 H   0  0  0  0  0  0  0  0  0  0  0  0
   -3.8250   -0.9570   -0.9960 H   0  0  0  0  0  0  0  0  0  0  0  0
   -1.2690    0.7210   -1.5600 H   0  0  0  0  0  0  0  0  0  0  0  0
   -2.8540    2.2380   -2.6930 H   0  0  0  0  0  0  0  0  0  0  0  0
   -4.2550    1.3200   -2.1300 H   0  0  0  0  0  0  0  0  0  0  0  0
   -3.1530    0.6360   -3.3260 H   0  0  0  0  0  0  0  0  0  0  0  0
   -2.2510    3.4470    0.7930 H   0  0  0  0  0  0  0  0  0  0  0  0
   -3.4230    3.3540   -0.5180 H   0  0  0  0  0  0  0  0  0  0  0  0
   -1.7130    3.2410   -0.8760 H   0  0  0  0  0  0  0  0  0  0  0  0
   -4.0340    1.5010    1.2950 H   0  0  0  0  0  0  0  0  0  0  0  0
    0.4500    3.0560    0.2620 H   0  0  0  0  0  0  0  0  0  0  0  0
   -0.0910    1.7500   -0.8450 H   0  0  0  0  0  0  0  0  0  0  0  0
    2.2680    2.1140    2.1050 H   0  0  0  0  0  0  0  0  0  0  0  0
    4.6630    1.6160    1.4730 H   0  0  0  0  0  0  0  0  0  0  0  0
    3.9420    0.2860    2.3730 H   0  0  0  0  0  0  0  0  0  0  0  0
    4.2300   -1.9160    1.4090 H   0  0  0  0  0  0  0  0  0  0  0  0
    4.1420   -2.1340   -0.3390 H   0  0  0  0  0  0  0  0  0  0  0  0
    1.8410   -1.0860    1.4710 H   0  0  0  0  0  0  0  0  0  0  0  0
    1.9530   -2.6580    0.7010 H   0  0  0  0  0  0  0  0  0  0  0  0
    1.8610   -1.6580   -1.6000 H   0  0  0  0  0  0  0  0  0  0  0  0
    5.6620   -0.5600   -1.1950 H   0  0  0  0  0  0  0  0  0  0  0  0
    5.7500    1.0840   -0.5640 H   0  0  0  0  0  0  0  0  0  0  0  0
    6.3180   -0.2780    0.4350 H   0  0  0  0  0  0  0  0  0  0  0  0
  1 28  1  0
  1  2  1  0
  1 27  1  0
  1 29  1  0
  2  3  2  0
  2 30  1  0
  3  4  1  0
  3 22  1  0
  4 31  1  0
  4  5  1  0
  4 32  1  0
  5  6  1  0
  5 33  1  6
  5  7  1  0
  6 36  1  0
  6 34  1  0
  6 35  1  0
  7  8  1  0
  7  9  1  1
  7 10  1  0
  8 39  1  0
  8 38  1  0
  8 37  1  0
  9 40  1  0
 10 12  1  0
 10 11  2  0
 12 13  1  0
 13 42  1  0
 13 14  1  0
 13 41  1  0
 14 24  1  0
 14 15  2  0
 15 16  1  0
 15 43  1  0
 16 17  1  0
 16 44  1  0
 16 45  1  0
 17 26  1  0
 17 18  1  0
 18 47  1  0
 18 19  1  0
 18 46  1  0
 19 20  1  0
 19 49  1  0
 19 48  1  0
 20 50  1  6
 20 24  1  0
 20 21  1  0
 21 22  1  0
 22 23  2  0
 24 25  2  0
 26 51  1  0
 26 52  1  0
 26 53  1  0
M  END
>  <id>  (670) 
774

>  <scaffolds>  (670) 
['O=C1CCCCC(=O)OC2CCNCC=C(CO1)C2=O']

>  <name>  (670) 
Senkirkine

>  <formula>  (670) 
C19H27NO6

>  <SMILES>  (670) 
CC=C1C[C@@H](C)[C@@](C)(O)C(=O)OCC2=CCN(CC[C@@H](OC1=O)C2=O)C

>  <ChEMBL_id>  (670) 
CHEMBL469650

>  <ZINC_id>  (670) 


>  <PubChem_id>  (670) 
5281752

>  <DrugBank_id>  (670) 


>  <CAS_no>  (670) 
2318-18-5

>  <references>  (670) 
[{'journal': {'name': 'Phytochemistry', 'id': 10}, 'title': 'Diversity of pyrrolizidine alkaloids in native and invasive Senecio pterophorus (Asteraceae): Implications for toxicity', 'year': 2014, 'start_page': 137, 'volume': 108, 'issue': None, 'doi': '10.1016/j.phytochem.2014.09.006', 'isbn': '', 'despositor': {'code': 'AMU', 'first_name': 'Arnold', 'last_name': 'Amusengeri', 'id': 25}, 'refauthors_set': [{'author': {'first_name': 'Eva', 'initials': 'E', 'last_name': 'Castells', 'id': 929}, 'first_author': True, 'id': 1511}, {'author': {'first_name': 'Patrick', 'initials': 'PJ', 'last_name': 'Mulder', 'id': 930}, 'first_author': None, 'id': 1512}, {'author': {'first_name': 'Míriam', 'initials': 'M', 'last_name': 'Pérez-Trujillo', 'id': 931}, 'first_author': None, 'id': 1513}], 'id': 426}]

>  <classifications>  (670) 
[{'classification': 'Pyrrolizidine alkaloid', 'id': 875}, {'classification': 'Macrolides and analogues (Classyfire)', 'id': 945}]

>  <molecular_mass>  (670) 
365.42

$$$$
SANC00775_minRM1.pdb
     RDKit          3D

 38 39  0  0  1  0  0  0  0  0999 V2000
    4.4220    0.8140    0.2130 C   0  0  0  0  0  0  0  0  0  0  0  0
    2.9760    0.5220    0.0390 C   0  0  0  0  0  0  0  0  0  0  0  0
    2.0650    1.5600   -0.1380 C   0  0  0  0  0  0  0  0  0  0  0  0
    0.7120    1.3050   -0.2920 C   0  0  0  0  0  0  0  0  0  0  0  0
    0.2160   -0.0010   -0.2630 C   0  0  0  0  0  0  0  0  0  0  0  0
   -1.2550   -0.2360   -0.4740 C   0  0  1  0  0  0  0  0  0  0  0  0
   -1.5290    0.0380   -1.9530 C   0  0  0  0  0  0  0  0  0  0  0  0
   -1.6920   -1.6780   -0.1530 C   0  0  0  0  0  0  0  0  0  0  0  0
   -3.2010   -1.6160    0.0540 C   0  0  0  0  0  0  0  0  0  0  0  0
   -3.5120   -0.1810    0.4750 C   0  0  0  0  0  0  0  0  0  0  0  0
   -2.1820    0.6040    0.4480 C   0  0  2  0  0  0  0  0  0  0  0  0
   -2.4540    2.0260   -0.0310 C   0  0  0  0  0  0  0  0  0  0  0  0
   -1.5990    0.6720    1.8590 C   0  0  0  0  0  0  0  0  0  0  0  0
    1.1120   -1.0510   -0.1170 C   0  0  0  0  0  0  0  0  0  0  0  0
    2.4780   -0.7820    0.0390 C   0  0  0  0  0  0  0  0  0  0  0  0
    3.2430   -1.8930    0.1950 O   0  0  0  0  0  0  0  0  0  0  0  0
    4.6430    1.8920    0.2240 H   0  0  0  0  0  0  0  0  0  0  0  0
    5.0320    0.3920   -0.6010 H   0  0  0  0  0  0  0  0  0  0  0  0
    4.8130    0.4190    1.1640 H   0  0  0  0  0  0  0  0  0  0  0  0
    2.4180    2.5970   -0.1580 H   0  0  0  0  0  0  0  0  0  0  0  0
    0.0340    2.1530   -0.4380 H   0  0  0  0  0  0  0  0  0  0  0  0
   -1.2230    1.0460   -2.2680 H   0  0  0  0  0  0  0  0  0  0  0  0
   -2.5920   -0.0700   -2.2100 H   0  0  0  0  0  0  0  0  0  0  0  0
   -0.9770   -0.6580   -2.6040 H   0  0  0  0  0  0  0  0  0  0  0  0
   -1.1970   -2.0620    0.7630 H   0  0  0  0  0  0  0  0  0  0  0  0
   -1.4120   -2.3970   -0.9470 H   0  0  0  0  0  0  0  0  0  0  0  0
   -3.5450   -2.3570    0.8030 H   0  0  0  0  0  0  0  0  0  0  0  0
   -3.7490   -1.8950   -0.8690 H   0  0  0  0  0  0  0  0  0  0  0  0
   -4.2700    0.2680   -0.1980 H   0  0  0  0  0  0  0  0  0  0  0  0
   -3.9940   -0.1390    1.4720 H   0  0  0  0  0  0  0  0  0  0  0  0
   -2.9610    2.0750   -1.0040 H   0  0  0  0  0  0  0  0  0  0  0  0
   -3.1030    2.5680    0.6730 H   0  0  0  0  0  0  0  0  0  0  0  0
   -1.5340    2.6240   -0.1280 H   0  0  0  0  0  0  0  0  0  0  0  0
   -1.3930   -0.3220    2.2800 H   0  0  0  0  0  0  0  0  0  0  0  0
   -2.2800    1.1700    2.5650 H   0  0  0  0  0  0  0  0  0  0  0  0
   -0.6550    1.2340    1.9020 H   0  0  0  0  0  0  0  0  0  0  0  0
    0.7980   -2.0990   -0.1260 H   0  0  0  0  0  0  0  0  0  0  0  0
    4.1730   -1.6470    0.2060 H   0  0  0  0  0  0  0  0  0  0  0  0
  1 18  1  0
  1  2  1  0
  1 17  1  0
  1 19  1  0
  2  3  2  0
  2 15  1  0
  3  4  1  0
  3 20  1  0
  4 21  1  0
  4  5  2  0
  5  6  1  0
  5 14  1  0
  6  7  1  6
  6  8  1  0
  6 11  1  0
  7 24  1  0
  7 22  1  0
  7 23  1  0
  8 26  1  0
  8  9  1  0
  8 25  1  0
  9 28  1  0
  9 10  1  0
  9 27  1  0
 10 29  1  0
 10 11  1  0
 10 30  1  0
 11 12  1  6
 11 13  1  0
 12 31  1  0
 12 33  1  0
 12 32  1  0
 13 36  1  0
 13 34  1  0
 13 35  1  0
 14 37  1  0
 14 15  2  0
 15 16  1  0
 16 38  1  0
M  END
>  <id>  (671) 
775

>  <scaffolds>  (671) 
['c1ccccc1', 'c1ccc(C2CCCC2)cc1']

>  <name>  (671) 
(-)-2-Hydroxycuparene

>  <formula>  (671) 
C15H22O

>  <SMILES>  (671) 
Cc2ccc([C@@]1(C)CCCC1(C)C)cc2O

>  <ChEMBL_id>  (671) 


>  <ZINC_id>  (671) 


>  <PubChem_id>  (671) 


>  <DrugBank_id>  (671) 


>  <CAS_no>  (671) 
38412-84-9

>  <references>  (671) 
[{'journal': {'name': 'Phytochemistry', 'id': 10}, 'title': 'Distribution of cyclic bis(bibenzyls) in the South African liverwort Marchantia polymorpha', 'year': 1988, 'start_page': 161, 'volume': 27, 'issue': 1, 'doi': '10.1016/0031-9422(88)80606-X', 'isbn': '', 'despositor': {'code': 'GU2', 'first_name': 'Gugu', 'last_name': 'Mahlangu', 'id': 24}, 'refauthors_set': [{'author': {'first_name': 'Yoshinori', 'initials': 'Y', 'last_name': 'Asakawa', 'id': 932}, 'first_author': True, 'id': 1514}, {'author': {'first_name': 'Kyoko', 'initials': 'K', 'last_name': 'Okada', 'id': 933}, 'first_author': None, 'id': 1515}, {'author': {'first_name': 'Guido', 'initials': 'GW', 'last_name': 'Perold', 'id': 636}, 'first_author': None, 'id': 1516}], 'id': 427}]

>  <classifications>  (671) 
[{'classification': 'Sesquiterpenoid', 'id': 829}, {'classification': 'Phenol lipids (Classyfire)', 'id': 951}]

>  <molecular_mass>  (671) 
218.33

$$$$
SANC00776_minRM1.pdb
     RDKit          3D

 15 15  0  0  0  0  0  0  0  0999 V2000
    3.2040   -0.5060    0.0000 O   0  0  0  0  0  0  0  0  0  0  0  0
    2.4280    0.4330   -0.0000 C   0  0  0  0  0  0  0  0  0  0  0  0
    0.9670    0.2450   -0.0000 C   0  0  0  0  0  0  0  0  0  0  0  0
    0.1310    1.3580   -0.0000 C   0  0  0  0  0  0  0  0  0  0  0  0
   -1.2470    1.2040   -0.0000 C   0  0  0  0  0  0  0  0  0  0  0  0
   -1.7760   -0.0900    0.0000 C   0  0  0  0  0  0  0  0  0  0  0  0
   -3.1050   -0.3440    0.0000 O   0  0  0  0  0  0  0  0  0  0  0  0
   -0.9510   -1.2200    0.0000 C   0  0  0  0  0  0  0  0  0  0  0  0
    0.4220   -1.0400    0.0000 C   0  0  0  0  0  0  0  0  0  0  0  0
    2.7920    1.4790   -0.0010 H   0  0  0  0  0  0  0  0  0  0  0  0
    0.5550    2.3690   -0.0000 H   0  0  0  0  0  0  0  0  0  0  0  0
   -1.8960    2.0830   -0.0000 H   0  0  0  0  0  0  0  0  0  0  0  0
   -3.5870    0.4910    0.0000 H   0  0  0  0  0  0  0  0  0  0  0  0
   -1.3880   -2.2230    0.0000 H   0  0  0  0  0  0  0  0  0  0  0  0
    1.0830   -1.9150    0.0000 H   0  0  0  0  0  0  0  0  0  0  0  0
  1  2  2  0
  2 10  1  0
  2  3  1  0
  3  4  2  0
  3  9  1  0
  4 11  1  0
  4  5  1  0
  5 12  1  0
  5  6  2  0
  6  8  1  0
  6  7  1  0
  7 13  1  0
  8  9  2  0
  8 14  1  0
  9 15  1  0
M  END
>  <id>  (672) 
776

>  <scaffolds>  (672) 
['c1ccccc1']

>  <name>  (672) 
p-Hydroxybenzaldehyde

>  <formula>  (672) 
C7H6O2

>  <SMILES>  (672) 
O=Cc1ccc(O)cc1

>  <ChEMBL_id>  (672) 
CHEMBL14193

>  <ZINC_id>  (672) 
ZINC00156709

>  <PubChem_id>  (672) 
126

>  <DrugBank_id>  (672) 
DB03560

>  <CAS_no>  (672) 
123-08-0

>  <references>  (672) 
[{'journal': {'name': 'Phytochemistry', 'id': 10}, 'title': 'Distribution of cyclic bis(bibenzyls) in the South African liverwort Marchantia polymorpha', 'year': 1988, 'start_page': 161, 'volume': 27, 'issue': 1, 'doi': '10.1016/0031-9422(88)80606-X', 'isbn': '', 'despositor': {'code': 'GU2', 'first_name': 'Gugu', 'last_name': 'Mahlangu', 'id': 24}, 'refauthors_set': [{'author': {'first_name': 'Yoshinori', 'initials': 'Y', 'last_name': 'Asakawa', 'id': 932}, 'first_author': True, 'id': 1514}, {'author': {'first_name': 'Kyoko', 'initials': 'K', 'last_name': 'Okada', 'id': 933}, 'first_author': None, 'id': 1515}, {'author': {'first_name': 'Guido', 'initials': 'GW', 'last_name': 'Perold', 'id': 636}, 'first_author': None, 'id': 1516}], 'id': 427}]

>  <classifications>  (672) 
[{'classification': 'Sesquiterpenoid', 'id': 829}, {'classification': 'Organooxygen compounds (Classyfire)', 'id': 954}]

>  <molecular_mass>  (672) 
122.121

$$$$
SANC00777_minRM1.pdb
     RDKit          3D

 50 53  0  0  1  0  0  0  0  0999 V2000
   -1.2660   -0.7020    1.9410 O   0  0  0  0  0  0  0  0  0  0  0  0
   -1.0820   -1.3870    0.9550 C   0  0  0  0  0  0  0  0  0  0  0  0
    0.1890   -1.8660    0.8330 O   0  0  0  0  0  0  0  0  0  0  0  0
    0.7820   -1.9550   -0.4440 C   0  0  0  0  0  0  0  0  0  0  0  0
    2.1940   -1.5080   -0.2990 C   0  0  0  0  0  0  0  0  0  0  0  0
    3.2220   -2.0210   -0.9820 C   0  0  0  0  0  0  0  0  0  0  0  0
    4.5080   -1.3570   -0.5860 C   0  0  0  0  0  0  0  0  0  0  0  0
    4.1390   -0.2700    0.3850 N   0  0  0  0  0  0  0  0  0  0  0  0
    2.6590   -0.4510    0.6650 C   0  0  1  0  0  0  0  0  0  0  0  0
    2.0230    0.9550    0.5150 C   0  0  1  0  0  0  0  0  0  0  0  0
    2.9280    1.6800   -0.4880 C   0  0  0  0  0  0  0  0  0  0  0  0
    4.3140    1.1060   -0.1730 C   0  0  0  0  0  0  0  0  0  0  0  0
    0.6990    0.7780    0.0620 O   0  0  0  0  0  0  0  0  0  0  0  0
   -0.0770    1.8770   -0.0920 C   0  0  0  0  0  0  0  0  0  0  0  0
    0.4050    2.9910   -0.1390 O   0  0  0  0  0  0  0  0  0  0  0  0
   -1.5290    1.5210   -0.2030 C   0  0  1  0  0  0  0  0  0  0  0  0
   -1.8730    0.3850   -1.1460 C   0  0  0  0  0  0  0  0  0  0  0  0
   -2.9150   -0.6000   -0.5980 C   0  0  2  0  0  0  0  0  0  0  0  0
   -2.2370   -1.8340    0.0530 C   0  0  2  0  0  0  0  0  0  0  0  0
   -3.2190   -2.5820    0.9680 C   0  0  0  0  0  0  0  0  0  0  0  0
   -1.7120   -2.6850   -0.9150 O   0  0  0  0  0  0  0  0  0  0  0  0
   -3.8410   -1.0240   -1.7350 C   0  0  0  0  0  0  0  0  0  0  0  0
   -2.2070    1.6110    1.0340 O   0  0  0  0  0  0  0  0  0  0  0  0
   -2.5640    2.5910    0.0720 C   0  0  1  0  0  0  0  0  0  0  0  0
   -2.1970    4.0090    0.3990 C   0  0  0  0  0  0  0  0  0  0  0  0
    0.7330   -3.0170   -0.7770 H   0  0  0  0  0  0  0  0  0  0  0  0
    0.2800   -1.3380   -1.2310 H   0  0  0  0  0  0  0  0  0  0  0  0
    3.2030   -2.8170   -1.7180 H   0  0  0  0  0  0  0  0  0  0  0  0
    5.0930   -1.0230   -1.4700 H   0  0  0  0  0  0  0  0  0  0  0  0
    5.1740   -2.0660   -0.0430 H   0  0  0  0  0  0  0  0  0  0  0  0
    2.5440   -0.8280    1.7140 H   0  0  0  0  0  0  0  0  0  0  0  0
    2.0070    1.4890    1.5010 H   0  0  0  0  0  0  0  0  0  0  0  0
    2.6220    1.4850   -1.5340 H   0  0  0  0  0  0  0  0  0  0  0  0
    2.9010    2.7820   -0.3820 H   0  0  0  0  0  0  0  0  0  0  0  0
    4.8240    1.6960    0.6220 H   0  0  0  0  0  0  0  0  0  0  0  0
    4.9960    1.1640   -1.0490 H   0  0  0  0  0  0  0  0  0  0  0  0
   -0.9630   -0.1710   -1.4740 H   0  0  0  0  0  0  0  0  0  0  0  0
   -2.2290    0.8620   -2.0860 H   0  0  0  0  0  0  0  0  0  0  0  0
   -3.5480   -0.1140    0.1880 H   0  0  0  0  0  0  0  0  0  0  0  0
   -4.1230   -2.9180    0.4420 H   0  0  0  0  0  0  0  0  0  0  0  0
   -3.5600   -1.9580    1.8080 H   0  0  0  0  0  0  0  0  0  0  0  0
   -2.7560   -3.4780    1.4090 H   0  0  0  0  0  0  0  0  0  0  0  0
   -2.4250   -3.2290   -1.2650 H   0  0  0  0  0  0  0  0  0  0  0  0
   -4.4500   -0.1790   -2.0940 H   0  0  0  0  0  0  0  0  0  0  0  0
   -3.3000   -1.4070   -2.6130 H   0  0  0  0  0  0  0  0  0  0  0  0
   -4.5590   -1.8000   -1.4350 H   0  0  0  0  0  0  0  0  0  0  0  0
   -3.5690    2.4740   -0.3850 H   0  0  0  0  0  0  0  0  0  0  0  0
   -1.4710    4.0930    1.2220 H   0  0  0  0  0  0  0  0  0  0  0  0
   -3.0810    4.5880    0.7050 H   0  0  0  0  0  0  0  0  0  0  0  0
   -1.7590    4.5130   -0.4740 H   0  0  0  0  0  0  0  0  0  0  0  0
  1  2  2  0
  2 19  1  0
  2  3  1  0
  3  4  1  0
  4 27  1  0
  4 26  1  0
  4  5  1  0
  5  6  2  0
  5  9  1  0
  6 28  1  0
  6  7  1  0
  7 29  1  0
  7 30  1  0
  8  7  1  0
  8 12  1  0
  8  9  1  0
  9 10  1  0
  9 31  1  1
 10 11  1  0
 10 13  1  0
 10 32  1  1
 11 33  1  0
 11 34  1  0
 11 12  1  0
 12 36  1  0
 12 35  1  0
 13 14  1  0
 14 15  2  0
 16 14  1  0
 16 17  1  0
 16 24  1  0
 16 23  1  1
 17 38  1  0
 17 37  1  0
 17 18  1  0
 18 22  1  0
 18 19  1  0
 18 39  1  1
 19 21  1  6
 19 20  1  0
 20 40  1  0
 20 42  1  0
 20 41  1  0
 21 43  1  0
 22 45  1  0
 22 44  1  0
 22 46  1  0
 23 24  1  0
 24 47  1  6
 24 25  1  0
 25 50  1  0
 25 49  1  0
 25 48  1  0
M  END
>  <id>  (673) 
777

>  <scaffolds>  (673) 
['O=C1CCCCC(=O)OC2CCN3CC=C(CO1)C23', 'O=C1CCCC2(CO2)C(=O)OC2CCN3CC=C(CO1)C23', 'C1CCNC1']

>  <name>  (673) 
Jacobine

>  <formula>  (673) 
C18H25NO6

>  <SMILES>  (673) 
O=C1OCC2=CCN3[C@H]2C(CC3)OC(=O)[C@@]2(C[C@H]([C@@]1(C)O)C)O[C@H]2C	

>  <ChEMBL_id>  (673) 


>  <ZINC_id>  (673) 


>  <PubChem_id>  (673) 
442741

>  <DrugBank_id>  (673) 


>  <CAS_no>  (673) 
6870-67-3

>  <references>  (673) 
[{'journal': {'name': 'Phytochemistry', 'id': 10}, 'title': 'Diversity of pyrrolizidine alkaloids in native and invasive Senecio pterophorus (Asteraceae): Implications for toxicity', 'year': 2014, 'start_page': 137, 'volume': 108, 'issue': None, 'doi': '10.1016/j.phytochem.2014.09.006', 'isbn': '', 'despositor': {'code': 'AMU', 'first_name': 'Arnold', 'last_name': 'Amusengeri', 'id': 25}, 'refauthors_set': [{'author': {'first_name': 'Eva', 'initials': 'E', 'last_name': 'Castells', 'id': 929}, 'first_author': True, 'id': 1511}, {'author': {'first_name': 'Patrick', 'initials': 'PJ', 'last_name': 'Mulder', 'id': 930}, 'first_author': None, 'id': 1512}, {'author': {'first_name': 'Míriam', 'initials': 'M', 'last_name': 'Pérez-Trujillo', 'id': 931}, 'first_author': None, 'id': 1513}], 'id': 426}]

>  <classifications>  (673) 
[{'classification': 'Pyrrolizidine alkaloid', 'id': 875}]

>  <molecular_mass>  (673) 
351.39

$$$$
SANC00778_minRM1.pdb
     RDKit          3D

 50 52  0  0  1  0  0  0  0  0999 V2000
   -1.2520    4.3870   -0.6780 C   0  0  0  0  0  0  0  0  0  0  0  0
   -1.9880    3.1610   -0.2930 C   0  0  0  0  0  0  0  0  0  0  0  0
   -1.4340    2.1160    0.3330 C   0  0  0  0  0  0  0  0  0  0  0  0
   -2.2440    0.9210    0.7140 C   0  0  0  0  0  0  0  0  0  0  0  0
   -2.7220    0.1250   -0.5110 C   0  0  1  0  0  0  0  0  0  0  0  0
   -1.6950    0.1460   -1.6360 C   0  0  0  0  0  0  0  0  0  0  0  0
   -3.1130   -1.3200   -0.0890 C   0  0  1  0  0  0  0  0  0  0  0  0
   -4.4250   -1.3200    0.7060 C   0  0  0  0  0  0  0  0  0  0  0  0
   -3.3550   -2.1560   -1.1720 O   0  0  0  0  0  0  0  0  0  0  0  0
   -2.0150   -1.9350    0.7850 C   0  0  0  0  0  0  0  0  0  0  0  0
   -2.1150   -2.3330    1.9290 O   0  0  0  0  0  0  0  0  0  0  0  0
   -0.8270   -2.0060    0.1350 O   0  0  0  0  0  0  0  0  0  0  0  0
    0.3470   -2.1230    0.9220 C   0  0  0  0  0  0  0  0  0  0  0  0
    1.4410   -1.5430    0.0960 C   0  0  0  0  0  0  0  0  0  0  0  0
    1.7130   -1.8330   -1.1790 C   0  0  0  0  0  0  0  0  0  0  0  0
    2.9500   -1.1550   -1.6620 C   0  0  0  0  0  0  0  0  0  0  0  0
    3.6290   -0.6180   -0.3450 N   0  0  2  0  0  4  0  0  0  0  0  0
    4.5950   -1.3440    0.0220 O   0  0  0  0  0  0  0  0  0  0  0  0
    2.4330   -0.6040    0.7020 C   0  0  1  0  0  0  0  0  0  0  0  0
    1.9910    0.8710    0.8270 C   0  0  2  0  0  0  0  0  0  0  0  0
    0.6000    0.9270    0.5900 O   0  0  0  0  0  0  0  0  0  0  0  0
   -0.0110    2.1400    0.7050 C   0  0  0  0  0  0  0  0  0  0  0  0
    0.6270    3.1050    1.0900 O   0  0  0  0  0  0  0  0  0  0  0  0
    2.7580    1.6690   -0.2440 C   0  0  0  0  0  0  0  0  0  0  0  0
    4.0260    0.8750   -0.5070 C   0  0  0  0  0  0  0  0  0  0  0  0
   -1.0350    5.0110    0.2050 H   0  0  0  0  0  0  0  0  0  0  0  0
   -1.8200    5.0160   -1.3800 H   0  0  0  0  0  0  0  0  0  0  0  0
   -0.2840    4.1760   -1.1570 H   0  0  0  0  0  0  0  0  0  0  0  0
   -3.0560    3.1390   -0.5440 H   0  0  0  0  0  0  0  0  0  0  0  0
   -1.6720    0.2950    1.4310 H   0  0  0  0  0  0  0  0  0  0  0  0
   -3.1200    1.2580    1.3130 H   0  0  0  0  0  0  0  0  0  0  0  0
   -3.6540    0.6100   -0.9090 H   0  0  0  0  0  0  0  0  0  0  0  0
   -1.6430    1.1340   -2.1160 H   0  0  0  0  0  0  0  0  0  0  0  0
   -1.9340   -0.5640   -2.4450 H   0  0  0  0  0  0  0  0  0  0  0  0
   -0.6730   -0.0890   -1.3080 H   0  0  0  0  0  0  0  0  0  0  0  0
   -4.3430   -0.7410    1.6350 H   0  0  0  0  0  0  0  0  0  0  0  0
   -5.2570   -0.9050    0.1210 H   0  0  0  0  0  0  0  0  0  0  0  0
   -4.7230   -2.3400    0.9960 H   0  0  0  0  0  0  0  0  0  0  0  0
   -2.6010   -2.1110   -1.7760 H   0  0  0  0  0  0  0  0  0  0  0  0
    0.5380   -3.1970    1.1470 H   0  0  0  0  0  0  0  0  0  0  0  0
    0.2620   -1.6020    1.9040 H   0  0  0  0  0  0  0  0  0  0  0  0
    1.1520   -2.5000   -1.8300 H   0  0  0  0  0  0  0  0  0  0  0  0
    2.7170   -0.3340   -2.3720 H   0  0  0  0  0  0  0  0  0  0  0  0
    3.6410   -1.8470   -2.1910 H   0  0  0  0  0  0  0  0  0  0  0  0
    2.8040   -0.9900    1.6870 H   0  0  0  0  0  0  0  0  0  0  0  0
    2.2250    1.2540    1.8560 H   0  0  0  0  0  0  0  0  0  0  0  0
    2.9850    2.7010    0.0920 H   0  0  0  0  0  0  0  0  0  0  0  0
    2.1560    1.8040   -1.1670 H   0  0  0  0  0  0  0  0  0  0  0  0
    4.8310    1.1160    0.2230 H   0  0  0  0  0  0  0  0  0  0  0  0
    4.4750    1.0600   -1.5040 H   0  0  0  0  0  0  0  0  0  0  0  0
  1 27  1  0
  1 28  1  0
  1  2  1  0
  1 26  1  0
  2 29  1  0
  2  3  2  0
  3 22  1  0
  3  4  1  0
  4  5  1  0
  4 31  1  0
  4 30  1  0
  5  6  1  0
  5 32  1  6
  5  7  1  0
  6 34  1  0
  6 33  1  0
  6 35  1  0
  7  9  1  6
  7  8  1  0
  7 10  1  0
  8 37  1  0
  8 38  1  0
  8 36  1  0
  9 39  1  0
 10 12  1  0
 10 11  2  0
 12 13  1  0
 13 14  1  0
 13 40  1  0
 13 41  1  0
 14 15  2  0
 14 19  1  0
 15 42  1  0
 15 16  1  0
 16 43  1  0
 16 44  1  0
 16 17  1  0
 17 25  1  0
 17 18  1  1
 17 19  1  0
 19 20  1  0
 19 45  1  1
 20 24  1  0
 20 21  1  0
 20 46  1  1
 21 22  1  0
 22 23  2  0
 24 48  1  0
 24 25  1  0
 24 47  1  0
 25 50  1  0
 25 49  1  0
M  END
>  <id>  (674) 
778

>  <scaffolds>  (674) 
['O=C1CCCCC(=O)OC2CCN3CC=C(CO1)C23', 'O=C1CCCCC(=O)OC2CC[NH+]3CC=C(CO1)C23', 'C=C1CCCC(=O)OCC2=CC[NH+]3CCC(OC1=O)C23', 'C=C1CCCC(=O)OCC2=CCN3CCC(OC1=O)C23', 'C1CCNC1']

>  <name>  (674) 
Senecionine N-oxide

>  <formula>  (674) 
C18H25NO6

>  <SMILES>  (674) 
CC=C1C[C@@H](C)[C@@](C)(O)C(=O)OCC2=CCN3(=O)[C@H]2[C@H](OC1=O)CC3

>  <ChEMBL_id>  (674) 
CHEMBL471683

>  <ZINC_id>  (674) 
ZINC4963259

>  <PubChem_id>  (674) 
5380876

>  <DrugBank_id>  (674) 


>  <CAS_no>  (674) 
13268-67-2

>  <references>  (674) 
[{'journal': {'name': 'Phytochemistry', 'id': 10}, 'title': 'Diversity of pyrrolizidine alkaloids in native and invasive Senecio pterophorus (Asteraceae): Implications for toxicity', 'year': 2014, 'start_page': 137, 'volume': 108, 'issue': None, 'doi': '10.1016/j.phytochem.2014.09.006', 'isbn': '', 'despositor': {'code': 'AMU', 'first_name': 'Arnold', 'last_name': 'Amusengeri', 'id': 25}, 'refauthors_set': [{'author': {'first_name': 'Eva', 'initials': 'E', 'last_name': 'Castells', 'id': 929}, 'first_author': True, 'id': 1511}, {'author': {'first_name': 'Patrick', 'initials': 'PJ', 'last_name': 'Mulder', 'id': 930}, 'first_author': None, 'id': 1512}, {'author': {'first_name': 'Míriam', 'initials': 'M', 'last_name': 'Pérez-Trujillo', 'id': 931}, 'first_author': None, 'id': 1513}], 'id': 426}]

>  <classifications>  (674) 
[{'classification': 'Pyrrolizidine alkaloid', 'id': 875}]

>  <molecular_mass>  (674) 
351.39

$$$$
SANC00779_minRM1.pdb
     RDKit          3D

 51 53  0  0  1  0  0  0  0  0999 V2000
   -2.1150   -4.0920   -1.4350 C   0  0  0  0  0  0  0  0  0  0  0  0
   -1.0510   -3.6670   -0.4940 C   0  0  0  0  0  0  0  0  0  0  0  0
   -0.7780   -2.3880   -0.2130 C   0  0  0  0  0  0  0  0  0  0  0  0
   -1.5040   -1.2250   -0.7980 C   0  0  0  0  0  0  0  0  0  0  0  0
   -2.6030   -0.6710    0.1160 C   0  0  1  0  0  0  0  0  0  0  0  0
   -2.3260   -0.8890    1.5970 C   0  0  0  0  0  0  0  0  0  0  0  0
   -2.8390    0.8410   -0.1380 C   0  0  2  0  0  0  0  0  0  0  0  0
   -4.0340    1.2370    0.4670 O   0  0  0  0  0  0  0  0  0  0  0  0
   -2.8720    1.2120   -1.6450 C   0  0  0  0  0  0  0  0  0  0  0  0
   -3.7170    2.2960   -1.8570 O   0  0  0  0  0  0  0  0  0  0  0  0
   -1.8050    1.6880    0.5960 C   0  0  0  0  0  0  0  0  0  0  0  0
   -2.0250    2.4480    1.5150 O   0  0  0  0  0  0  0  0  0  0  0  0
   -0.5400    1.5440    0.1130 O   0  0  0  0  0  0  0  0  0  0  0  0
    0.4950    2.1030    0.9080 C   0  0  0  0  0  0  0  0  0  0  0  0
    1.7860    1.8400    0.2320 C   0  0  0  0  0  0  0  0  0  0  0  0
    2.8750    2.6310    0.3300 C   0  0  0  0  0  0  0  0  0  0  0  0
    4.1050    1.9760   -0.2450 C   0  0  0  0  0  0  0  0  0  0  0  0
    3.6700    0.4680   -0.1070 N   0  0  1  0  0  4  0  0  0  0  0  0
    3.8280    0.0730    1.0770 O   0  0  0  0  0  0  0  0  0  0  0  0
    2.1510    0.6530   -0.5810 C   0  0  1  0  0  0  0  0  0  0  0  0
    1.6290   -0.7750   -0.6060 C   0  0  2  0  0  0  0  0  0  0  0  0
    1.1750   -1.1020    0.6770 O   0  0  0  0  0  0  0  0  0  0  0  0
    0.2640   -2.1160    0.8040 C   0  0  0  0  0  0  0  0  0  0  0  0
    0.3470   -2.7240    1.8550 O   0  0  0  0  0  0  0  0  0  0  0  0
    2.8970   -1.6060   -0.9930 C   0  0  0  0  0  0  0  0  0  0  0  0
    4.0880   -0.6310   -1.1150 C   0  0  0  0  0  0  0  0  0  0  0  0
   -2.2900   -5.1780   -1.4040 H   0  0  0  0  0  0  0  0  0  0  0  0
   -1.8590   -3.8480   -2.4780 H   0  0  0  0  0  0  0  0  0  0  0  0
   -3.0840   -3.6170   -1.2160 H   0  0  0  0  0  0  0  0  0  0  0  0
   -0.4760   -4.4750   -0.0210 H   0  0  0  0  0  0  0  0  0  0  0  0
   -0.7670   -0.4450   -1.0810 H   0  0  0  0  0  0  0  0  0  0  0  0
   -1.9430   -1.5030   -1.7830 H   0  0  0  0  0  0  0  0  0  0  0  0
   -3.5530   -1.2140   -0.1360 H   0  0  0  0  0  0  0  0  0  0  0  0
   -1.3610   -0.4730    1.9240 H   0  0  0  0  0  0  0  0  0  0  0  0
   -3.0960   -0.4210    2.2300 H   0  0  0  0  0  0  0  0  0  0  0  0
   -2.3180   -1.9560    1.8630 H   0  0  0  0  0  0  0  0  0  0  0  0
   -4.7670    0.8850   -0.0520 H   0  0  0  0  0  0  0  0  0  0  0  0
   -3.3270    0.4020   -2.2550 H   0  0  0  0  0  0  0  0  0  0  0  0
   -1.8530    1.3830   -2.0590 H   0  0  0  0  0  0  0  0  0  0  0  0
   -3.4000    3.0410   -1.3320 H   0  0  0  0  0  0  0  0  0  0  0  0
    0.3400    3.1980    1.0600 H   0  0  0  0  0  0  0  0  0  0  0  0
    0.5060    1.6310    1.9210 H   0  0  0  0  0  0  0  0  0  0  0  0
    2.9440    3.5950    0.8240 H   0  0  0  0  0  0  0  0  0  0  0  0
    5.0280    2.1860    0.3310 H   0  0  0  0  0  0  0  0  0  0  0  0
    4.3040    2.2440   -1.3020 H   0  0  0  0  0  0  0  0  0  0  0  0
    2.1290    1.0010   -1.6560 H   0  0  0  0  0  0  0  0  0  0  0  0
    0.8410   -0.8860   -1.3980 H   0  0  0  0  0  0  0  0  0  0  0  0
    3.1090   -2.3790   -0.2270 H   0  0  0  0  0  0  0  0  0  0  0  0
    2.7410   -2.1580   -1.9380 H   0  0  0  0  0  0  0  0  0  0  0  0
    4.2260   -0.2220   -2.1360 H   0  0  0  0  0  0  0  0  0  0  0  0
    5.0550   -1.0920   -0.8270 H   0  0  0  0  0  0  0  0  0  0  0  0
  1 28  1  0
  1 27  1  0
  1 29  1  0
  1  2  1  0
  2  3  2  0
  2 30  1  0
  3  4  1  0
  3 23  1  0
  4 32  1  0
  4 31  1  0
  4  5  1  0
  5  7  1  0
  5 33  1  6
  5  6  1  0
  6 36  1  0
  6 34  1  0
  6 35  1  0
  7  9  1  0
  7  8  1  1
  7 11  1  0
  8 37  1  0
  9 38  1  0
  9 39  1  0
  9 10  1  0
 10 40  1  0
 11 13  1  0
 11 12  2  0
 13 14  1  0
 14 15  1  0
 14 41  1  0
 14 42  1  0
 15 20  1  0
 15 16  2  0
 16 17  1  0
 16 43  1  0
 17 45  1  0
 17 18  1  0
 17 44  1  0
 18 26  1  0
 18 20  1  0
 18 19  1  1
 20 46  1  6
 20 21  1  0
 21 47  1  6
 21 25  1  0
 21 22  1  0
 22 23  1  0
 23 24  2  0
 25 49  1  0
 25 26  1  0
 25 48  1  0
 26 50  1  0
 26 51  1  0
M  END
>  <id>  (675) 
779

>  <scaffolds>  (675) 
['O=C1CCCCC(=O)OC2CCN3CC=C(CO1)C23', 'O=C1CCCCC(=O)OC2CC[NH+]3CC=C(CO1)C23', 'C=C1CCCC(=O)OCC2=CC[NH+]3CCC(OC1=O)C23', 'C=C1CCCC(=O)OCC2=CCN3CCC(OC1=O)C23', 'C1CCNC1']

>  <name>  (675) 
Retrorsine N-oxide

>  <formula>  (675) 
C18H25NO7

>  <SMILES>  (675) 
CC=C1C[C@@H](C)[C@](O)(CO)C(=O)OCC2=CCN3(=O)[C@H]2[C@H](OC1=O)CC3

>  <ChEMBL_id>  (675) 


>  <ZINC_id>  (675) 


>  <PubChem_id>  (675) 
76972338

>  <DrugBank_id>  (675) 


>  <CAS_no>  (675) 
15503-86-3

>  <references>  (675) 
[{'journal': {'name': 'Phytochemistry', 'id': 10}, 'title': 'Diversity of pyrrolizidine alkaloids in native and invasive Senecio pterophorus (Asteraceae): Implications for toxicity', 'year': 2014, 'start_page': 137, 'volume': 108, 'issue': None, 'doi': '10.1016/j.phytochem.2014.09.006', 'isbn': '', 'despositor': {'code': 'AMU', 'first_name': 'Arnold', 'last_name': 'Amusengeri', 'id': 25}, 'refauthors_set': [{'author': {'first_name': 'Eva', 'initials': 'E', 'last_name': 'Castells', 'id': 929}, 'first_author': True, 'id': 1511}, {'author': {'first_name': 'Patrick', 'initials': 'PJ', 'last_name': 'Mulder', 'id': 930}, 'first_author': None, 'id': 1512}, {'author': {'first_name': 'Míriam', 'initials': 'M', 'last_name': 'Pérez-Trujillo', 'id': 931}, 'first_author': None, 'id': 1513}], 'id': 426}]

>  <classifications>  (675) 
[{'classification': 'Pyrrolizidine alkaloid', 'id': 875}]

>  <molecular_mass>  (675) 
367.39

$$$$
SANC00780_minRM1.pdb
     RDKit          3D

 50 52  0  0  1  0  0  0  0  0999 V2000
   -0.5320   -2.7880   -2.4920 C   0  0  0  0  0  0  0  0  0  0  0  0
    0.6960   -2.5900   -1.6840 C   0  0  0  0  0  0  0  0  0  0  0  0
    0.6670   -2.3270   -0.3790 C   0  0  0  0  0  0  0  0  0  0  0  0
    1.8740   -2.1040    0.4720 C   0  0  0  0  0  0  0  0  0  0  0  0
    1.8920   -0.6660    1.0160 C   0  0  1  0  0  0  0  0  0  0  0  0
    2.5760   -0.6390    2.3790 C   0  0  0  0  0  0  0  0  0  0  0  0
    2.5500    0.3380    0.0300 C   0  0  2  0  0  0  0  0  0  0  0  0
    2.2650   -0.0890   -1.2620 O   0  0  0  0  0  0  0  0  0  0  0  0
    4.0930    0.4480    0.2140 C   0  0  0  0  0  0  0  0  0  0  0  0
    4.6170    1.2320   -0.8110 O   0  0  0  0  0  0  0  0  0  0  0  0
    1.9130    1.7110    0.2970 C   0  0  0  0  0  0  0  0  0  0  0  0
    2.5290    2.6400    0.7910 O   0  0  0  0  0  0  0  0  0  0  0  0
    0.5830    1.9580    0.1430 O   0  0  0  0  0  0  0  0  0  0  0  0
   -0.1140    1.3760   -0.9440 C   0  0  0  0  0  0  0  0  0  0  0  0
   -1.5590    1.5310   -0.6270 C   0  0  0  0  0  0  0  0  0  0  0  0
   -2.4500    2.1680   -1.3910 C   0  0  0  0  0  0  0  0  0  0  0  0
   -3.8110    2.1500   -0.7610 C   0  0  0  0  0  0  0  0  0  0  0  0
   -3.6370    1.4820    0.5740 N   0  0  0  0  0  0  0  0  0  0  0  0
   -2.1980    1.0150    0.6340 C   0  0  1  0  0  0  0  0  0  0  0  0
   -2.2340   -0.5300    0.8370 C   0  0  2  0  0  0  0  0  0  0  0  0
   -1.3020   -1.1150   -0.0390 O   0  0  0  0  0  0  0  0  0  0  0  0
   -0.5980   -2.2070    0.3710 C   0  0  0  0  0  0  0  0  0  0  0  0
   -1.0150   -2.9210    1.2610 O   0  0  0  0  0  0  0  0  0  0  0  0
   -3.6580   -0.9660    0.4680 C   0  0  0  0  0  0  0  0  0  0  0  0
   -4.4990    0.2800    0.7630 C   0  0  0  0  0  0  0  0  0  0  0  0
   -1.3560   -3.2570   -1.9330 H   0  0  0  0  0  0  0  0  0  0  0  0
   -0.9100   -1.8210   -2.8620 H   0  0  0  0  0  0  0  0  0  0  0  0
   -0.3540   -3.4210   -3.3730 H   0  0  0  0  0  0  0  0  0  0  0  0
    1.6500   -2.6570   -2.2210 H   0  0  0  0  0  0  0  0  0  0  0  0
    2.8100   -2.3340   -0.0790 H   0  0  0  0  0  0  0  0  0  0  0  0
    1.8610   -2.8420    1.3060 H   0  0  0  0  0  0  0  0  0  0  0  0
    0.8340   -0.3340    1.1890 H   0  0  0  0  0  0  0  0  0  0  0  0
    1.9860   -1.1870    3.1310 H   0  0  0  0  0  0  0  0  0  0  0  0
    3.5690   -1.1100    2.3780 H   0  0  0  0  0  0  0  0  0  0  0  0
    2.6870    0.3820    2.7730 H   0  0  0  0  0  0  0  0  0  0  0  0
    2.8260    0.3860   -1.8880 H   0  0  0  0  0  0  0  0  0  0  0  0
    4.3730    0.8200    1.2230 H   0  0  0  0  0  0  0  0  0  0  0  0
    4.5630   -0.5520    0.0880 H   0  0  0  0  0  0  0  0  0  0  0  0
    4.5690    2.1570   -0.5410 H   0  0  0  0  0  0  0  0  0  0  0  0
    0.1630    1.9260   -1.8730 H   0  0  0  0  0  0  0  0  0  0  0  0
    0.1200    0.3060   -1.1380 H   0  0  0  0  0  0  0  0  0  0  0  0
   -2.2780    2.6670   -2.3400 H   0  0  0  0  0  0  0  0  0  0  0  0
   -4.1830    3.1810   -0.5650 H   0  0  0  0  0  0  0  0  0  0  0  0
   -4.5620    1.6870   -1.4400 H   0  0  0  0  0  0  0  0  0  0  0  0
   -1.7200    1.5090    1.5190 H   0  0  0  0  0  0  0  0  0  0  0  0
   -2.0150   -0.7670    1.9120 H   0  0  0  0  0  0  0  0  0  0  0  0
   -3.7370   -1.2720   -0.5950 H   0  0  0  0  0  0  0  0  0  0  0  0
   -3.9900   -1.8520    1.0420 H   0  0  0  0  0  0  0  0  0  0  0  0
   -5.4390    0.3060    0.1720 H   0  0  0  0  0  0  0  0  0  0  0  0
   -4.8310    0.3000    1.8260 H   0  0  0  0  0  0  0  0  0  0  0  0
  1 28  1  0
  1 27  1  0
  1 26  1  0
  1  2  1  0
  2 29  1  0
  2  3  2  0
  3 22  1  0
  3  4  1  0
  4 30  1  0
  4  5  1  0
  4 31  1  0
  5  7  1  0
  5 32  1  1
  5  6  1  0
  6 34  1  0
  6 35  1  0
  6 33  1  0
  7  8  1  6
  7  9  1  0
  7 11  1  0
  8 36  1  0
  9 10  1  0
  9 38  1  0
  9 37  1  0
 10 39  1  0
 11 13  1  0
 11 12  2  0
 13 14  1  0
 14 40  1  0
 14 41  1  0
 14 15  1  0
 15 16  2  0
 15 19  1  0
 16 42  1  0
 16 17  1  0
 17 44  1  0
 17 43  1  0
 18 17  1  0
 18 19  1  0
 18 25  1  0
 19 20  1  0
 19 45  1  1
 20 21  1  0
 20 24  1  0
 20 46  1  1
 21 22  1  0
 22 23  2  0
 24 47  1  0
 24 25  1  0
 24 48  1  0
 25 49  1  0
 25 50  1  0
M  END
>  <id>  (676) 
780

>  <scaffolds>  (676) 
['O=C1CCCCC(=O)OC2CCN3CC=C(CO1)C23', 'C=C1CCCC(=O)OCC2=CCN3CCC(OC1=O)C23', 'C1CCNC1']

>  <name>  (676) 
Usaramine

>  <formula>  (676) 
C18H25NO6

>  <SMILES>  (676) 
CC=C1C[C@@H](C)[C@](O)(CO)C(=O)OCC2=CCN3[C@H]2[C@H](OC1=O)CC3

>  <ChEMBL_id>  (676) 
CHEMBL520570

>  <ZINC_id>  (676) 
ZINC84811000

>  <PubChem_id>  (676) 
5281756

>  <DrugBank_id>  (676) 


>  <CAS_no>  (676) 
15503-87-4

>  <references>  (676) 
[{'journal': {'name': 'Phytochemistry', 'id': 10}, 'title': 'Diversity of pyrrolizidine alkaloids in native and invasive Senecio pterophorus (Asteraceae): Implications for toxicity', 'year': 2014, 'start_page': 137, 'volume': 108, 'issue': None, 'doi': '10.1016/j.phytochem.2014.09.006', 'isbn': '', 'despositor': {'code': 'AMU', 'first_name': 'Arnold', 'last_name': 'Amusengeri', 'id': 25}, 'refauthors_set': [{'author': {'first_name': 'Eva', 'initials': 'E', 'last_name': 'Castells', 'id': 929}, 'first_author': True, 'id': 1511}, {'author': {'first_name': 'Patrick', 'initials': 'PJ', 'last_name': 'Mulder', 'id': 930}, 'first_author': None, 'id': 1512}, {'author': {'first_name': 'Míriam', 'initials': 'M', 'last_name': 'Pérez-Trujillo', 'id': 931}, 'first_author': None, 'id': 1513}], 'id': 426}]

>  <classifications>  (676) 
[{'classification': 'Pyrrolizidine alkaloid', 'id': 875}, {'classification': 'Macrolides and analogues (Classyfire)', 'id': 945}]

>  <molecular_mass>  (676) 
351.39

$$$$
SANC00781_minRM1.pdb
     RDKit          3D

 54 56  0  0  1  0  0  0  0  0999 V2000
   -5.2700    0.0780    0.9150 C   0  0  0  0  0  0  0  0  0  0  0  0
   -4.1010    0.1740    0.0180 N   0  0  0  0  0  0  0  0  0  0  0  0
   -3.8240    1.5640   -0.4420 C   0  0  0  0  0  0  0  0  0  0  0  0
   -2.3920    1.9270   -0.0130 C   0  0  0  0  0  0  0  0  0  0  0  0
   -1.4650    0.7510   -0.3200 C   0  0  1  0  0  0  0  0  0  0  0  0
   -0.1230    1.0480    0.0120 O   0  0  0  0  0  0  0  0  0  0  0  0
    0.6120    1.7490   -0.8880 C   0  0  0  0  0  0  0  0  0  0  0  0
    0.0900    2.3250   -1.8210 O   0  0  0  0  0  0  0  0  0  0  0  0
    2.0730    1.6400   -0.5760 C   0  0  1  0  0  0  0  0  0  0  0  0
    2.7460    2.8870   -0.5990 O   0  0  0  0  0  0  0  0  0  0  0  0
    2.5950    2.2850    0.6780 C   0  0  1  0  0  0  0  0  0  0  0  0
    1.6370    2.9610    1.6170 C   0  0  0  0  0  0  0  0  0  0  0  0
    2.7170    0.5020   -1.3330 C   0  0  0  0  0  0  0  0  0  0  0  0
    3.3110   -0.6460   -0.5100 C   0  0  2  0  0  0  0  0  0  0  0  0
    2.3350   -1.2900    0.5040 C   0  0  1  0  0  0  0  0  0  0  0  0
    1.0990   -1.8440   -0.2180 C   0  0  0  0  0  0  0  0  0  0  0  0
    0.9160   -1.9890   -1.4090 O   0  0  0  0  0  0  0  0  0  0  0  0
    0.1720   -2.2670    0.6800 O   0  0  0  0  0  0  0  0  0  0  0  0
   -1.0550   -2.7940    0.2280 C   0  0  0  0  0  0  0  0  0  0  0  0
   -2.0380   -1.7030   -0.0550 C   0  0  0  0  0  0  0  0  0  0  0  0
   -3.1090   -1.8900   -0.8230 C   0  0  0  0  0  0  0  0  0  0  0  0
   -4.1370   -0.8290   -1.0800 C   0  0  0  0  0  0  0  0  0  0  0  0
   -1.7900   -0.4120    0.6240 C   0  0  0  0  0  0  0  0  0  0  0  0
   -1.7710   -0.2930    1.8300 O   0  0  0  0  0  0  0  0  0  0  0  0
    2.9910   -2.4810    1.2210 C   0  0  0  0  0  0  0  0  0  0  0  0
    1.9800   -0.3010    1.4080 O   0  0  0  0  0  0  0  0  0  0  0  0
    4.5980   -0.2090    0.1810 C   0  0  0  0  0  0  0  0  0  0  0  0
   -6.2430    0.3560    0.4660 H   0  0  0  0  0  0  0  0  0  0  0  0
   -5.3690   -0.9530    1.2960 H   0  0  0  0  0  0  0  0  0  0  0  0
   -5.1170    0.7260    1.7960 H   0  0  0  0  0  0  0  0  0  0  0  0
   -4.5400    2.3070   -0.0180 H   0  0  0  0  0  0  0  0  0  0  0  0
   -3.9350    1.6950   -1.5450 H   0  0  0  0  0  0  0  0  0  0  0  0
   -2.0630    2.8480   -0.5350 H   0  0  0  0  0  0  0  0  0  0  0  0
   -2.3500    2.1820    1.0680 H   0  0  0  0  0  0  0  0  0  0  0  0
   -1.5570    0.4430   -1.3960 H   0  0  0  0  0  0  0  0  0  0  0  0
    3.5200    1.8980    1.1560 H   0  0  0  0  0  0  0  0  0  0  0  0
    2.1620    3.6250    2.3190 H   0  0  0  0  0  0  0  0  0  0  0  0
    0.8840    3.5790    1.1060 H   0  0  0  0  0  0  0  0  0  0  0  0
    1.0950    2.2100    2.2110 H   0  0  0  0  0  0  0  0  0  0  0  0
    1.9910    0.0950   -2.0720 H   0  0  0  0  0  0  0  0  0  0  0  0
    3.5160    0.9230   -1.9880 H   0  0  0  0  0  0  0  0  0  0  0  0
    3.5740   -1.4530   -1.2480 H   0  0  0  0  0  0  0  0  0  0  0  0
   -0.9360   -3.4890   -0.6340 H   0  0  0  0  0  0  0  0  0  0  0  0
   -1.3920   -3.4000    1.1000 H   0  0  0  0  0  0  0  0  0  0  0  0
   -3.2880   -2.8460   -1.3290 H   0  0  0  0  0  0  0  0  0  0  0  0
   -3.9280   -0.3890   -2.0870 H   0  0  0  0  0  0  0  0  0  0  0  0
   -5.1410   -1.3050   -1.2050 H   0  0  0  0  0  0  0  0  0  0  0  0
    3.4440   -3.1900    0.5150 H   0  0  0  0  0  0  0  0  0  0  0  0
    3.7820   -2.1550    1.9120 H   0  0  0  0  0  0  0  0  0  0  0  0
    2.2810   -3.0540    1.8360 H   0  0  0  0  0  0  0  0  0  0  0  0
    1.3640   -0.6610    2.0580 H   0  0  0  0  0  0  0  0  0  0  0  0
    4.4180    0.4390    1.0540 H   0  0  0  0  0  0  0  0  0  0  0  0
    5.2560    0.3560   -0.4960 H   0  0  0  0  0  0  0  0  0  0  0  0
    5.1990   -1.0600    0.5320 H   0  0  0  0  0  0  0  0  0  0  0  0
  1  2  1  0
  1 28  1  0
  1 29  1  0
  1 30  1  0
  2 22  1  0
  2  3  1  0
  3 32  1  0
  3 31  1  0
  3  4  1  0
  4 33  1  0
  4  5  1  0
  4 34  1  0
  5 35  1  6
  5  6  1  0
  5 23  1  0
  6  7  1  0
  7  8  2  0
  9  7  1  0
  9 13  1  0
  9 10  1  6
  9 11  1  0
 10 11  1  0
 11 36  1  1
 11 12  1  0
 12 38  1  0
 12 39  1  0
 12 37  1  0
 13 40  1  0
 13 41  1  0
 13 14  1  0
 14 42  1  6
 14 27  1  0
 14 15  1  0
 15 16  1  0
 15 25  1  0
 15 26  1  1
 16 17  2  0
 16 18  1  0
 18 19  1  0
 19 43  1  0
 19 20  1  0
 19 44  1  0
 20 21  2  0
 20 23  1  0
 21 45  1  0
 21 22  1  0
 22 46  1  0
 22 47  1  0
 23 24  2  0
 25 48  1  0
 25 50  1  0
 25 49  1  0
 26 51  1  0
 27 53  1  0
 27 54  1  0
 27 52  1  0
M  END
>  <id>  (677) 
781

>  <scaffolds>  (677) 
['O=C1CCCCC(=O)OC2CCNCC=C(CO1)C2=O', 'O=C1CCCC2(CO2)C(=O)OC2CCNCC=C(CO1)C2=O']

>  <name>  (677) 
Otosenine

>  <formula>  (677) 
C19H27NO7

>  <SMILES>  (677) 
CN1CC[C@H]2OC(=O)[C@]3(O[C@H]3C)CC([C@@](C(=O)OCC(=CC1)C2=O)(C)O)C

>  <ChEMBL_id>  (677) 


>  <ZINC_id>  (677) 


>  <PubChem_id>  (677) 
91746991

>  <DrugBank_id>  (677) 


>  <CAS_no>  (677) 
16958-29-5

>  <references>  (677) 
[{'journal': {'name': 'Phytochemistry', 'id': 10}, 'title': 'Diversity of pyrrolizidine alkaloids in native and invasive Senecio pterophorus (Asteraceae): Implications for toxicity', 'year': 2014, 'start_page': 137, 'volume': 108, 'issue': None, 'doi': '10.1016/j.phytochem.2014.09.006', 'isbn': '', 'despositor': {'code': 'AMU', 'first_name': 'Arnold', 'last_name': 'Amusengeri', 'id': 25}, 'refauthors_set': [{'author': {'first_name': 'Eva', 'initials': 'E', 'last_name': 'Castells', 'id': 929}, 'first_author': True, 'id': 1511}, {'author': {'first_name': 'Patrick', 'initials': 'PJ', 'last_name': 'Mulder', 'id': 930}, 'first_author': None, 'id': 1512}, {'author': {'first_name': 'Míriam', 'initials': 'M', 'last_name': 'Pérez-Trujillo', 'id': 931}, 'first_author': None, 'id': 1513}], 'id': 426}]

>  <classifications>  (677) 
[{'classification': 'Pyrrolizidine alkaloid', 'id': 875}, {'classification': 'Azaspirodecane derivatives (Classyfire)', 'id': 998}]

>  <molecular_mass>  (677) 
381.42

$$$$
SANC00782_minRM1.pdb
     RDKit          3D

 59 61  0  0  1  0  0  0  0  0999 V2000
    4.6730    1.5720    2.0380 C   0  0  0  0  0  0  0  0  0  0  0  0
    3.8760    1.2330    0.8360 N   0  0  0  0  0  0  0  0  0  0  0  0
    4.4130    0.0210    0.1750 C   0  0  0  0  0  0  0  0  0  0  0  0
    3.6170   -0.4440   -1.0490 C   0  0  0  0  0  0  0  0  0  0  0  0
    2.0870   -0.3380   -0.9540 C   0  0  1  0  0  0  0  0  0  0  0  0
    1.6490   -0.4900    0.3750 O   0  0  0  0  0  0  0  0  0  0  0  0
    1.3080   -1.7710    0.7370 C   0  0  0  0  0  0  0  0  0  0  0  0
    2.0940   -2.3880    1.4170 O   0  0  0  0  0  0  0  0  0  0  0  0
   -0.0810   -2.2070    0.3740 C   0  0  1  0  0  0  0  0  0  0  0  0
   -0.1860   -2.7650   -0.9190 O   0  0  0  0  0  0  0  0  0  0  0  0
   -0.3620   -3.6730    0.1590 C   0  0  1  0  0  0  0  0  0  0  0  0
    0.7110   -4.7090    0.3300 C   0  0  0  0  0  0  0  0  0  0  0  0
   -1.1590   -1.2760    0.8890 C   0  0  0  0  0  0  0  0  0  0  0  0
   -2.4380   -1.2340    0.0350 C   0  0  2  0  0  0  0  0  0  0  0  0
   -2.6740    0.1790   -0.5500 C   0  0  1  0  0  0  0  0  0  0  0  0
   -1.3880    0.6440   -1.2450 C   0  0  0  0  0  0  0  0  0  0  0  0
   -0.7420   -0.0260   -2.0150 O   0  0  0  0  0  0  0  0  0  0  0  0
   -1.0310    1.9590   -1.0620 O   0  0  0  0  0  0  0  0  0  0  0  0
   -0.1460    2.1830    0.0090 C   0  0  0  0  0  0  0  0  0  0  0  0
    1.2860    2.0570   -0.3920 C   0  0  0  0  0  0  0  0  0  0  0  0
    2.2510    2.7730    0.1850 C   0  0  0  0  0  0  0  0  0  0  0  0
    3.6960    2.4260   -0.0410 C   0  0  0  0  0  0  0  0  0  0  0  0
    1.6620    1.0590   -1.4120 C   0  0  0  0  0  0  0  0  0  0  0  0
    1.7230    1.3410   -2.5920 O   0  0  0  0  0  0  0  0  0  0  0  0
   -3.7560    0.2000   -1.6240 C   0  0  0  0  0  0  0  0  0  0  0  0
   -2.8390    1.1160    0.4880 O   0  0  0  0  0  0  0  0  0  0  0  0
   -4.0490    1.4660    0.9950 C   0  0  0  0  0  0  0  0  0  0  0  0
   -5.0790    0.9060    0.6830 O   0  0  0  0  0  0  0  0  0  0  0  0
   -3.8890    2.5840    1.9780 C   0  0  0  0  0  0  0  0  0  0  0  0
   -3.6290   -1.6880    0.8700 C   0  0  0  0  0  0  0  0  0  0  0  0
    5.7360    1.8280    1.8580 H   0  0  0  0  0  0  0  0  0  0  0  0
    4.6620    0.7320    2.7540 H   0  0  0  0  0  0  0  0  0  0  0  0
    4.2170    2.4310    2.5600 H   0  0  0  0  0  0  0  0  0  0  0  0
    4.3860   -0.7880    0.9440 H   0  0  0  0  0  0  0  0  0  0  0  0
    5.4900    0.1110   -0.1210 H   0  0  0  0  0  0  0  0  0  0  0  0
    3.9590    0.0750   -1.9710 H   0  0  0  0  0  0  0  0  0  0  0  0
    3.8920   -1.5070   -1.2380 H   0  0  0  0  0  0  0  0  0  0  0  0
    1.6140   -1.0890   -1.6500 H   0  0  0  0  0  0  0  0  0  0  0  0
   -1.3950   -4.0480    0.3140 H   0  0  0  0  0  0  0  0  0  0  0  0
    0.9390   -4.8610    1.3950 H   0  0  0  0  0  0  0  0  0  0  0  0
    0.3980   -5.6800   -0.0820 H   0  0  0  0  0  0  0  0  0  0  0  0
    1.6550   -4.4480   -0.1710 H   0  0  0  0  0  0  0  0  0  0  0  0
   -0.7460   -0.2500    1.0430 H   0  0  0  0  0  0  0  0  0  0  0  0
   -1.3770   -1.6080    1.9280 H   0  0  0  0  0  0  0  0  0  0  0  0
   -2.3610   -1.9180   -0.8510 H   0  0  0  0  0  0  0  0  0  0  0  0
   -0.4010    3.2160    0.3330 H   0  0  0  0  0  0  0  0  0  0  0  0
   -0.3330    1.5020    0.8800 H   0  0  0  0  0  0  0  0  0  0  0  0
    2.0390    3.5630    0.9110 H   0  0  0  0  0  0  0  0  0  0  0  0
    4.3610    3.2880    0.2090 H   0  0  0  0  0  0  0  0  0  0  0  0
    3.9270    2.2450   -1.1160 H   0  0  0  0  0  0  0  0  0  0  0  0
   -4.6580   -0.3680   -1.3520 H   0  0  0  0  0  0  0  0  0  0  0  0
   -3.3970   -0.2500   -2.5630 H   0  0  0  0  0  0  0  0  0  0  0  0
   -4.0800    1.2230   -1.8630 H   0  0  0  0  0  0  0  0  0  0  0  0
   -3.3510    3.4380    1.5400 H   0  0  0  0  0  0  0  0  0  0  0  0
   -4.8670    2.9480    2.3240 H   0  0  0  0  0  0  0  0  0  0  0  0
   -3.3210    2.2590    2.8620 H   0  0  0  0  0  0  0  0  0  0  0  0
   -4.5790   -1.6400    0.3180 H   0  0  0  0  0  0  0  0  0  0  0  0
   -3.5150   -2.7350    1.1910 H   0  0  0  0  0  0  0  0  0  0  0  0
   -3.7650   -1.0970    1.7870 H   0  0  0  0  0  0  0  0  0  0  0  0
  1  2  1  0
  1 31  1  0
  1 33  1  0
  1 32  1  0
  2 22  1  0
  2  3  1  0
  3  4  1  0
  3 35  1  0
  3 34  1  0
  4 36  1  0
  4 37  1  0
  4  5  1  0
  5 38  1  6
  5 23  1  0
  5  6  1  0
  6  7  1  0
  7  8  2  0
  9  7  1  0
  9 10  1  6
  9 11  1  0
  9 13  1  0
 10 11  1  0
 11 39  1  6
 11 12  1  0
 12 42  1  0
 12 41  1  0
 12 40  1  0
 13 14  1  0
 13 43  1  0
 13 44  1  0
 14 45  1  6
 14 15  1  0
 14 30  1  0
 15 25  1  0
 15 16  1  0
 15 26  1  1
 16 17  2  0
 16 18  1  0
 18 19  1  0
 19 20  1  0
 19 46  1  0
 19 47  1  0
 20 23  1  0
 20 21  2  0
 21 22  1  0
 21 48  1  0
 22 50  1  0
 22 49  1  0
 23 24  2  0
 25 52  1  0
 25 53  1  0
 25 51  1  0
 26 27  1  0
 27 28  2  0
 27 29  1  0
 29 54  1  0
 29 55  1  0
 29 56  1  0
 30 57  1  0
 30 58  1  0
 30 59  1  0
M  END
>  <id>  (678) 
782

>  <scaffolds>  (678) 
['O=C1CCCCC(=O)OC2CCNCC=C(CO1)C2=O', 'O=C1CCCC2(CO2)C(=O)OC2CCNCC=C(CO1)C2=O']

>  <name>  (678) 
Florosenine

>  <formula>  (678) 
C21H29NO8

>  <SMILES>  (678) 
CN1CC[C@H]2OC(=O)[C@]3(OC3C)C[C@H]([C@@](C(=O)OCC(=CC1)C2=O)(C)OC(=O)C)C	

>  <ChEMBL_id>  (678) 


>  <ZINC_id>  (678) 


>  <PubChem_id>  (678) 
6441404

>  <DrugBank_id>  (678) 


>  <CAS_no>  (678) 
16958-30-8

>  <references>  (678) 
[{'journal': {'name': 'Phytochemistry', 'id': 10}, 'title': 'Diversity of pyrrolizidine alkaloids in native and invasive Senecio pterophorus (Asteraceae): Implications for toxicity', 'year': 2014, 'start_page': 137, 'volume': 108, 'issue': None, 'doi': '10.1016/j.phytochem.2014.09.006', 'isbn': '', 'despositor': {'code': 'AMU', 'first_name': 'Arnold', 'last_name': 'Amusengeri', 'id': 25}, 'refauthors_set': [{'author': {'first_name': 'Eva', 'initials': 'E', 'last_name': 'Castells', 'id': 929}, 'first_author': True, 'id': 1511}, {'author': {'first_name': 'Patrick', 'initials': 'PJ', 'last_name': 'Mulder', 'id': 930}, 'first_author': None, 'id': 1512}, {'author': {'first_name': 'Míriam', 'initials': 'M', 'last_name': 'Pérez-Trujillo', 'id': 931}, 'first_author': None, 'id': 1513}], 'id': 426}]

>  <classifications>  (678) 
[{'classification': 'Pyrrolizidine alkaloid', 'id': 875}, {'classification': 'Azaspirodecane derivatives (Classyfire)', 'id': 998}]

>  <molecular_mass>  (678) 
423.46

$$$$
SANC00783_minRM1.pdb
     RDKit          3D

 62 63  0  0  1  0  0  0  0  0999 V2000
   -5.5950    0.7070    1.0450 C   0  0  0  0  0  0  0  0  0  0  0  0
   -4.1210    0.7070    0.9070 N   0  0  0  0  0  0  0  0  0  0  0  0
   -3.4580    0.1270    2.1050 C   0  0  0  0  0  0  0  0  0  0  0  0
   -1.9940   -0.1640    1.7720 C   0  0  0  0  0  0  0  0  0  0  0  0
   -1.9130   -1.1060    0.5640 C   0  0  2  0  0  0  0  0  0  0  0  0
   -0.5200   -1.3000    0.3930 O   0  0  0  0  0  0  0  0  0  0  0  0
   -0.0670   -1.9820   -0.6810 C   0  0  0  0  0  0  0  0  0  0  0  0
   -0.7900   -2.2370   -1.6240 O   0  0  0  0  0  0  0  0  0  0  0  0
    1.4030   -2.3790   -0.5770 C   0  0  1  0  0  0  0  0  0  0  0  0
    1.6220   -3.4510   -1.4440 O   0  0  0  0  0  0  0  0  0  0  0  0
    2.3170   -1.2040   -0.9800 C   0  0  0  0  0  0  0  0  0  0  0  0
    2.3280   -0.0130   -0.0110 C   0  0  2  0  0  0  0  0  0  0  0  0
    2.2190    1.3300   -0.7760 C   0  0  2  0  0  0  0  0  0  0  0  0
    0.7860    1.6670   -1.1790 C   0  0  0  0  0  0  0  0  0  0  0  0
    0.2610    2.7550   -1.0390 O   0  0  0  0  0  0  0  0  0  0  0  0
    0.1460    0.6500   -1.7960 O   0  0  0  0  0  0  0  0  0  0  0  0
   -1.1820    0.8670   -2.2370 C   0  0  0  0  0  0  0  0  0  0  0  0
   -2.1240    0.8630   -1.0750 C   0  0  0  0  0  0  0  0  0  0  0  0
   -2.5820    1.9840   -0.5240 C   0  0  0  0  0  0  0  0  0  0  0  0
   -3.5900    2.0600    0.5800 C   0  0  0  0  0  0  0  0  0  0  0  0
   -2.5780   -0.4820   -0.6650 C   0  0  0  0  0  0  0  0  0  0  0  0
   -3.4190   -1.0930   -1.2890 O   0  0  0  0  0  0  0  0  0  0  0  0
    3.0720    1.3850   -2.0490 C   0  0  0  0  0  0  0  0  0  0  0  0
    2.7030    2.4130   -0.0120 O   0  0  0  0  0  0  0  0  0  0  0  0
    2.0600    2.7990    1.1240 C   0  0  0  0  0  0  0  0  0  0  0  0
    1.1110    2.1760    1.5570 O   0  0  0  0  0  0  0  0  0  0  0  0
    2.6820    4.0310    1.6970 C   0  0  0  0  0  0  0  0  0  0  0  0
    3.6140   -0.0320    0.8170 C   0  0  0  0  0  0  0  0  0  0  0  0
    1.7240   -2.9620    0.8330 C   0  0  2  0  0  0  0  0  0  0  0  0
    3.0450   -3.3910    0.8760 O   0  0  0  0  0  0  0  0  0  0  0  0
    0.7570   -4.0900    1.1940 C   0  0  0  0  0  0  0  0  0  0  0  0
   -5.9620   -0.3220    1.2060 H   0  0  0  0  0  0  0  0  0  0  0  0
   -6.0620    1.0530    0.1070 H   0  0  0  0  0  0  0  0  0  0  0  0
   -6.0000    1.3300    1.8660 H   0  0  0  0  0  0  0  0  0  0  0  0
   -3.5220    0.7640    3.0210 H   0  0  0  0  0  0  0  0  0  0  0  0
   -3.9770   -0.8190    2.3880 H   0  0  0  0  0  0  0  0  0  0  0  0
   -1.4120    0.7660    1.5930 H   0  0  0  0  0  0  0  0  0  0  0  0
   -1.4970   -0.6250    2.6530 H   0  0  0  0  0  0  0  0  0  0  0  0
   -2.3870   -2.1000    0.7910 H   0  0  0  0  0  0  0  0  0  0  0  0
    1.3780   -3.1960   -2.3410 H   0  0  0  0  0  0  0  0  0  0  0  0
    2.0410   -0.8890   -2.0130 H   0  0  0  0  0  0  0  0  0  0  0  0
    3.3490   -1.6050   -1.1060 H   0  0  0  0  0  0  0  0  0  0  0  0
    1.4610   -0.0740    0.6930 H   0  0  0  0  0  0  0  0  0  0  0  0
   -1.3530    0.0070   -2.9230 H   0  0  0  0  0  0  0  0  0  0  0  0
   -1.2720    1.7920   -2.8510 H   0  0  0  0  0  0  0  0  0  0  0  0
   -2.2370    2.9670   -0.8750 H   0  0  0  0  0  0  0  0  0  0  0  0
   -3.1280    2.5920    1.4510 H   0  0  0  0  0  0  0  0  0  0  0  0
   -4.4010    2.7550    0.2500 H   0  0  0  0  0  0  0  0  0  0  0  0
    4.1340    1.1900   -1.8420 H   0  0  0  0  0  0  0  0  0  0  0  0
    3.0230    2.3680   -2.5410 H   0  0  0  0  0  0  0  0  0  0  0  0
    2.7370    0.6350   -2.7830 H   0  0  0  0  0  0  0  0  0  0  0  0
    2.3760    4.1780    2.7430 H   0  0  0  0  0  0  0  0  0  0  0  0
    3.7810    4.0010    1.6710 H   0  0  0  0  0  0  0  0  0  0  0  0
    2.3660    4.9180    1.1280 H   0  0  0  0  0  0  0  0  0  0  0  0
    3.8040   -1.0160    1.2690 H   0  0  0  0  0  0  0  0  0  0  0  0
    4.5070    0.2150    0.2270 H   0  0  0  0  0  0  0  0  0  0  0  0
    3.5840    0.6770    1.6570 H   0  0  0  0  0  0  0  0  0  0  0  0
    1.6790   -2.1490    1.6030 H   0  0  0  0  0  0  0  0  0  0  0  0
    3.1450   -4.1700    0.3180 H   0  0  0  0  0  0  0  0  0  0  0  0
    1.0430   -4.5650    2.1450 H   0  0  0  0  0  0  0  0  0  0  0  0
   -0.2730   -3.7300    1.3220 H   0  0  0  0  0  0  0  0  0  0  0  0
    0.7240   -4.8910    0.4410 H   0  0  0  0  0  0  0  0  0  0  0  0
  1 33  1  0
  1  2  1  0
  1 32  1  0
  1 34  1  0
  2 20  1  0
  2  3  1  0
  3  4  1  0
  3 36  1  0
  3 35  1  0
  4  5  1  0
  4 37  1  0
  4 38  1  0
  5 21  1  0
  5  6  1  0
  5 39  1  1
  6  7  1  0
  7  8  2  0
  7  9  1  0
  9 10  1  6
  9 11  1  0
  9 29  1  0
 10 40  1  0
 11 41  1  0
 11 42  1  0
 11 12  1  0
 12 13  1  0
 12 43  1  1
 12 28  1  0
 13 23  1  0
 13 14  1  0
 13 24  1  1
 14 16  1  0
 14 15  2  0
 16 17  1  0
 17 44  1  0
 17 45  1  0
 17 18  1  0
 18 21  1  0
 18 19  2  0
 19 46  1  0
 19 20  1  0
 20 48  1  0
 20 47  1  0
 21 22  2  0
 23 51  1  0
 23 50  1  0
 23 49  1  0
 24 25  1  0
 25 26  2  0
 25 27  1  0
 27 54  1  0
 27 53  1  0
 27 52  1  0
 28 56  1  0
 28 55  1  0
 28 57  1  0
 29 30  1  0
 29 31  1  0
 29 58  1  1
 30 59  1  0
 31 62  1  0
 31 61  1  0
 31 60  1  0
M  END
>  <id>  (679) 
783

>  <scaffolds>  (679) 
['O=C1CCCCC(=O)OC2CCNCC=C(CO1)C2=O']

>  <name>  (679) 
Floridanine

>  <formula>  (679) 
C21H31NO9

>  <SMILES>  (679) 
CN1CCC2OC(=O)C(O)(CC(C(C(=O)OCC(=CC1)C2=O)(C)OC(=O)C)C)C(O)C

>  <ChEMBL_id>  (679) 


>  <ZINC_id>  (679) 


>  <PubChem_id>  (679) 
101297605

>  <DrugBank_id>  (679) 


>  <CAS_no>  (679) 
16958-31-9

>  <references>  (679) 
[{'journal': {'name': 'Phytochemistry', 'id': 10}, 'title': 'Diversity of pyrrolizidine alkaloids in native and invasive Senecio pterophorus (Asteraceae): Implications for toxicity', 'year': 2014, 'start_page': 137, 'volume': 108, 'issue': None, 'doi': '10.1016/j.phytochem.2014.09.006', 'isbn': '', 'despositor': {'code': 'AMU', 'first_name': 'Arnold', 'last_name': 'Amusengeri', 'id': 25}, 'refauthors_set': [{'author': {'first_name': 'Eva', 'initials': 'E', 'last_name': 'Castells', 'id': 929}, 'first_author': True, 'id': 1511}, {'author': {'first_name': 'Patrick', 'initials': 'PJ', 'last_name': 'Mulder', 'id': 930}, 'first_author': None, 'id': 1512}, {'author': {'first_name': 'Míriam', 'initials': 'M', 'last_name': 'Pérez-Trujillo', 'id': 931}, 'first_author': None, 'id': 1513}], 'id': 426}]

>  <classifications>  (679) 
[{'classification': 'Pyrrolizidine alkaloid', 'id': 875}, {'classification': 'Carboxylic acids and derivatives (Classyfire)', 'id': 950}]

>  <molecular_mass>  (679) 
441.47

$$$$
SANC00784_minRM1.pdb
     RDKit          3D

 48 50  0  0  1  0  0  0  0  0999 V2000
    0.3800   -4.3560   -0.9970 C   0  0  0  0  0  0  0  0  0  0  0  0
    1.3830   -3.3030   -0.7060 C   0  0  0  0  0  0  0  0  0  0  0  0
    1.1030   -2.1980   -0.0090 C   0  0  0  0  0  0  0  0  0  0  0  0
    2.1230   -1.1590    0.3210 C   0  0  0  0  0  0  0  0  0  0  0  0
    2.2880   -0.1370   -0.7610 C   0  0  0  0  0  0  0  0  0  0  0  0
    2.3090   -0.4740   -2.0470 C   0  0  0  0  0  0  0  0  0  0  0  0
    2.5370    1.2790   -0.3010 C   0  0  2  0  0  0  0  0  0  0  0  0
    2.4020    2.1310   -1.3990 O   0  0  0  0  0  0  0  0  0  0  0  0
    3.9930    1.4020    0.2590 C   0  0  0  0  0  0  0  0  0  0  0  0
    4.2580    0.4800    1.2560 O   0  0  0  0  0  0  0  0  0  0  0  0
    1.5170    1.6950    0.7640 C   0  0  0  0  0  0  0  0  0  0  0  0
    1.8170    1.8880    1.9320 O   0  0  0  0  0  0  0  0  0  0  0  0
    0.2140    1.9400    0.4950 O   0  0  0  0  0  0  0  0  0  0  0  0
   -0.2990    1.7380   -0.8080 C   0  0  0  0  0  0  0  0  0  0  0  0
   -1.7620    1.5310   -0.6510 C   0  0  0  0  0  0  0  0  0  0  0  0
   -2.6800    1.8490   -1.5690 C   0  0  0  0  0  0  0  0  0  0  0  0
   -4.0580    1.5120   -1.0850 C   0  0  0  0  0  0  0  0  0  0  0  0
   -3.8890    0.9660    0.3060 N   0  0  0  0  0  0  0  0  0  0  0  0
   -2.4000    0.9540    0.5810 C   0  0  1  0  0  0  0  0  0  0  0  0
   -2.0130   -0.5070    0.9400 C   0  0  2  0  0  0  0  0  0  0  0  0
   -0.7880   -0.8130    0.3090 O   0  0  0  0  0  0  0  0  0  0  0  0
   -0.2370   -2.0250    0.5780 C   0  0  0  0  0  0  0  0  0  0  0  0
   -0.8330   -2.8450    1.2540 O   0  0  0  0  0  0  0  0  0  0  0  0
   -3.1660   -1.3730    0.4130 C   0  0  0  0  0  0  0  0  0  0  0  0
   -4.3750   -0.4340    0.4670 C   0  0  0  0  0  0  0  0  0  0  0  0
   -0.5910   -3.9490   -1.3190 H   0  0  0  0  0  0  0  0  0  0  0  0
    0.7100   -5.0440   -1.7890 H   0  0  0  0  0  0  0  0  0  0  0  0
    0.1840   -4.9700   -0.1020 H   0  0  0  0  0  0  0  0  0  0  0  0
    2.3980   -3.4840   -1.0810 H   0  0  0  0  0  0  0  0  0  0  0  0
    3.1120   -1.6440    0.4950 H   0  0  0  0  0  0  0  0  0  0  0  0
    1.8770   -0.7040    1.3040 H   0  0  0  0  0  0  0  0  0  0  0  0
    2.4710    0.2160   -2.8700 H   0  0  0  0  0  0  0  0  0  0  0  0
    2.1590   -1.4880   -2.4050 H   0  0  0  0  0  0  0  0  0  0  0  0
    2.7030    3.0090   -1.1390 H   0  0  0  0  0  0  0  0  0  0  0  0
    4.1960    2.4530    0.5740 H   0  0  0  0  0  0  0  0  0  0  0  0
    4.7160    1.1610   -0.5520 H   0  0  0  0  0  0  0  0  0  0  0  0
    3.8790    0.7950    2.0850 H   0  0  0  0  0  0  0  0  0  0  0  0
    0.1380    0.8670   -1.3480 H   0  0  0  0  0  0  0  0  0  0  0  0
   -0.0840    2.6440   -1.4210 H   0  0  0  0  0  0  0  0  0  0  0  0
   -2.5200    2.3030   -2.5420 H   0  0  0  0  0  0  0  0  0  0  0  0
   -4.6950    2.4210   -1.0030 H   0  0  0  0  0  0  0  0  0  0  0  0
   -4.5860    0.8450   -1.8030 H   0  0  0  0  0  0  0  0  0  0  0  0
   -2.2150    1.6300    1.4550 H   0  0  0  0  0  0  0  0  0  0  0  0
   -1.9040   -0.6140    2.0520 H   0  0  0  0  0  0  0  0  0  0  0  0
   -2.9710   -1.7360   -0.6160 H   0  0  0  0  0  0  0  0  0  0  0  0
   -3.3210   -2.2890    1.0140 H   0  0  0  0  0  0  0  0  0  0  0  0
   -4.8730   -0.4750    1.4630 H   0  0  0  0  0  0  0  0  0  0  0  0
   -5.1670   -0.7240   -0.2570 H   0  0  0  0  0  0  0  0  0  0  0  0
  1 27  1  0
  1 26  1  0
  1  2  1  0
  1 28  1  0
  2 29  1  0
  2  3  2  0
  3  4  1  0
  3 22  1  0
  4  5  1  0
  4 30  1  0
  4 31  1  0
  5  6  2  0
  5  7  1  0
  6 32  1  0
  6 33  1  0
  7  8  1  6
  7  9  1  0
  7 11  1  0
  8 34  1  0
  9 36  1  0
  9 35  1  0
  9 10  1  0
 10 37  1  0
 11 13  1  0
 11 12  2  0
 13 14  1  0
 14 39  1  0
 14 38  1  0
 14 15  1  0
 15 16  2  0
 15 19  1  0
 16 40  1  0
 16 17  1  0
 17 42  1  0
 17 41  1  0
 18 17  1  0
 18 25  1  0
 18 19  1  0
 19 20  1  0
 19 43  1  1
 20 21  1  0
 20 24  1  0
 20 44  1  1
 21 22  1  0
 22 23  2  0
 24 45  1  0
 24 25  1  0
 24 46  1  0
 25 48  1  0
 25 47  1  0
M  END
>  <id>  (680) 
784

>  <scaffolds>  (680) 
['O=C1CCCCC(=O)OC2CCN3CC=C(CO1)C23', 'C=C1CCCC(=O)OCC2=CCN3CCC(OC1=O)C23', 'C1CCNC1']

>  <name>  (680) 
Ridelliine

>  <formula>  (680) 
C18H23NO6

>  <SMILES>  (680) 
CC=C1CC(=C)[C@](O)(CO)C(=O)OCC2=CCN3[C@H]2[C@H](OC1=O)CC3

>  <ChEMBL_id>  (680) 


>  <ZINC_id>  (680) 


>  <PubChem_id>  (680) 
5281744

>  <DrugBank_id>  (680) 


>  <CAS_no>  (680) 
23246-96-0

>  <references>  (680) 
[{'journal': {'name': 'Phytochemistry', 'id': 10}, 'title': 'Diversity of pyrrolizidine alkaloids in native and invasive Senecio pterophorus (Asteraceae): Implications for toxicity', 'year': 2014, 'start_page': 137, 'volume': 108, 'issue': None, 'doi': '10.1016/j.phytochem.2014.09.006', 'isbn': '', 'despositor': {'code': 'AMU', 'first_name': 'Arnold', 'last_name': 'Amusengeri', 'id': 25}, 'refauthors_set': [{'author': {'first_name': 'Eva', 'initials': 'E', 'last_name': 'Castells', 'id': 929}, 'first_author': True, 'id': 1511}, {'author': {'first_name': 'Patrick', 'initials': 'PJ', 'last_name': 'Mulder', 'id': 930}, 'first_author': None, 'id': 1512}, {'author': {'first_name': 'Míriam', 'initials': 'M', 'last_name': 'Pérez-Trujillo', 'id': 931}, 'first_author': None, 'id': 1513}], 'id': 426}]

>  <classifications>  (680) 
[{'classification': 'Pyrrolizidine alkaloid', 'id': 875}]

>  <molecular_mass>  (680) 
349.38

$$$$
SANC00785_minRM1.pdb
     RDKit          3D

 51 54  0  0  1  0  0  0  0  0999 V2000
    1.3580    1.4580   -2.4240 O   0  0  0  0  0  0  0  0  0  0  0  0
    0.8190    1.4920   -1.3370 C   0  0  0  0  0  0  0  0  0  0  0  0
   -0.5380    1.3420   -1.4040 O   0  0  0  0  0  0  0  0  0  0  0  0
   -1.3250    1.4320   -0.2480 C   0  0  1  0  0  0  0  0  0  0  0  0
   -2.6740    2.0280   -0.6850 C   0  0  0  0  0  0  0  0  0  0  0  0
   -3.6470    1.6070    0.4070 C   0  0  0  0  0  0  0  0  0  0  0  0
   -3.0760    0.2960    1.0550 N   0  0  2  0  0  4  0  0  0  0  0  0
   -2.9520    0.4030    2.3080 O   0  0  0  0  0  0  0  0  0  0  0  0
   -1.6910    0.0500    0.3170 C   0  0  1  0  0  0  0  0  0  0  0  0
   -1.9920   -1.0230   -0.6780 C   0  0  0  0  0  0  0  0  0  0  0  0
   -3.2080   -1.5500   -0.5090 C   0  0  0  0  0  0  0  0  0  0  0  0
   -3.9480   -0.9400    0.6300 C   0  0  0  0  0  0  0  0  0  0  0  0
   -1.0120   -1.4690   -1.7020 C   0  0  0  0  0  0  0  0  0  0  0  0
    0.3100   -1.3590   -1.2180 O   0  0  0  0  0  0  0  0  0  0  0  0
    0.7130   -2.2270   -0.2610 C   0  0  0  0  0  0  0  0  0  0  0  0
   -0.0250   -3.1110    0.1320 O   0  0  0  0  0  0  0  0  0  0  0  0
    2.1530   -2.0110    0.2240 C   0  0  2  0  0  0  0  0  0  0  0  0
    2.6420   -0.5630   -0.0070 C   0  0  1  0  0  0  0  0  0  0  0  0
    1.7470    0.4220    0.7600 C   0  0  0  0  0  0  0  0  0  0  0  0
    1.5320    1.6890   -0.0320 C   0  0  1  0  0  0  0  0  0  0  0  0
    2.6380    2.5650   -0.1310 O   0  0  0  0  0  0  0  0  0  0  0  0
    1.5240    3.0670    0.5880 C   0  0  2  0  0  0  0  0  0  0  0  0
    1.7020    3.2470    2.0690 C   0  0  0  0  0  0  0  0  0  0  0  0
    4.0920   -0.4020    0.4350 C   0  0  0  0  0  0  0  0  0  0  0  0
    3.0100   -3.0380   -0.5220 C   0  0  0  0  0  0  0  0  0  0  0  0
    2.1740   -2.2160    1.5990 O   0  0  0  0  0  0  0  0  0  0  0  0
   -0.8650    2.0630    0.5590 H   0  0  0  0  0  0  0  0  0  0  0  0
   -2.9810    1.6530   -1.6840 H   0  0  0  0  0  0  0  0  0  0  0  0
   -2.6250    3.1280   -0.8030 H   0  0  0  0  0  0  0  0  0  0  0  0
   -4.6760    1.4530    0.0230 H   0  0  0  0  0  0  0  0  0  0  0  0
   -3.7480    2.3860    1.1970 H   0  0  0  0  0  0  0  0  0  0  0  0
   -0.9260   -0.3120    1.0580 H   0  0  0  0  0  0  0  0  0  0  0  0
   -3.6540   -2.3610   -1.0820 H   0  0  0  0  0  0  0  0  0  0  0  0
   -4.0310   -1.6480    1.4860 H   0  0  0  0  0  0  0  0  0  0  0  0
   -4.9890   -0.6470    0.3800 H   0  0  0  0  0  0  0  0  0  0  0  0
   -1.0080   -0.8050   -2.5960 H   0  0  0  0  0  0  0  0  0  0  0  0
   -1.2370   -2.5000   -2.0630 H   0  0  0  0  0  0  0  0  0  0  0  0
    2.5980   -0.3680   -1.1110 H   0  0  0  0  0  0  0  0  0  0  0  0
    0.7530   -0.0100    1.0150 H   0  0  0  0  0  0  0  0  0  0  0  0
    2.1850    0.6410    1.7570 H   0  0  0  0  0  0  0  0  0  0  0  0
    0.9630    3.8840    0.0890 H   0  0  0  0  0  0  0  0  0  0  0  0
    0.8920    2.7540    2.6260 H   0  0  0  0  0  0  0  0  0  0  0  0
    2.6560    2.8470    2.4450 H   0  0  0  0  0  0  0  0  0  0  0  0
    1.6860    4.3110    2.3490 H   0  0  0  0  0  0  0  0  0  0  0  0
    4.7910   -0.9490   -0.2140 H   0  0  0  0  0  0  0  0  0  0  0  0
    4.2690   -0.7480    1.4630 H   0  0  0  0  0  0  0  0  0  0  0  0
    4.4050    0.6530    0.3950 H   0  0  0  0  0  0  0  0  0  0  0  0
    2.5640   -4.0440   -0.5160 H   0  0  0  0  0  0  0  0  0  0  0  0
    3.1570   -2.7610   -1.5750 H   0  0  0  0  0  0  0  0  0  0  0  0
    4.0070   -3.1430   -0.0700 H   0  0  0  0  0  0  0  0  0  0  0  0
    1.9440   -3.1350    1.7820 H   0  0  0  0  0  0  0  0  0  0  0  0
  1  2  2  0
  2  3  1  0
  3  4  1  0
  4  5  1  0
  4  9  1  0
  4 27  1  1
  5 28  1  0
  5 29  1  0
  5  6  1  0
  6 30  1  0
  6  7  1  0
  6 31  1  0
  7  9  1  0
  7 12  1  0
  7  8  1  1
  9 10  1  0
  9 32  1  1
 10 13  1  0
 10 11  2  0
 11 33  1  0
 11 12  1  0
 12 35  1  0
 12 34  1  0
 13 36  1  0
 13 37  1  0
 13 14  1  0
 14 15  1  0
 15 16  2  0
 15 17  1  0
 17 25  1  0
 17 18  1  0
 17 26  1  1
 18 38  1  6
 18 24  1  0
 18 19  1  0
 19 20  1  0
 19 39  1  0
 19 40  1  0
 20  2  1  0
 20 21  1  6
 20 22  1  0
 21 22  1  0
 22 41  1  6
 22 23  1  0
 23 44  1  0
 23 43  1  0
 23 42  1  0
 24 45  1  0
 24 47  1  0
 24 46  1  0
 25 49  1  0
 25 48  1  0
 25 50  1  0
 26 51  1  0
M  END
>  <id>  (681) 
785

>  <scaffolds>  (681) 
['O=C1CCCCC(=O)OC2CCN3CC=C(CO1)C23', 'O=C1CCCCC(=O)OC2CC[NH+]3CC=C(CO1)C23', 'O=C1CCCC2(CO2)C(=O)OC2CCN3CC=C(CO1)C23', 'O=C1CCCC2(CO2)C(=O)OC2CC[NH+]3CC=C(CO1)C23', 'C1CCNC1']

>  <name>  (681) 
Jacobine N-oxide

>  <formula>  (681) 
C18H25NO7

>  <SMILES>  (681) 
O=C1OC2CCN3(=O)C2C(=CC3)COC(=O)C(C(CC21OC2C)C)(C)O

>  <ChEMBL_id>  (681) 


>  <ZINC_id>  (681) 


>  <PubChem_id>  (681) 


>  <DrugBank_id>  (681) 


>  <CAS_no>  (681) 
38710-25-7

>  <references>  (681) 
[{'journal': {'name': 'Phytochemistry', 'id': 10}, 'title': 'Diversity of pyrrolizidine alkaloids in native and invasive Senecio pterophorus (Asteraceae): Implications for toxicity', 'year': 2014, 'start_page': 137, 'volume': 108, 'issue': None, 'doi': '10.1016/j.phytochem.2014.09.006', 'isbn': '', 'despositor': {'code': 'AMU', 'first_name': 'Arnold', 'last_name': 'Amusengeri', 'id': 25}, 'refauthors_set': [{'author': {'first_name': 'Eva', 'initials': 'E', 'last_name': 'Castells', 'id': 929}, 'first_author': True, 'id': 1511}, {'author': {'first_name': 'Patrick', 'initials': 'PJ', 'last_name': 'Mulder', 'id': 930}, 'first_author': None, 'id': 1512}, {'author': {'first_name': 'Míriam', 'initials': 'M', 'last_name': 'Pérez-Trujillo', 'id': 931}, 'first_author': None, 'id': 1513}], 'id': 426}]

>  <classifications>  (681) 
[{'classification': 'Pyrrolizidine alkaloid', 'id': 875}]

>  <molecular_mass>  (681) 
367.39

$$$$
SANC00786_minRM1.pdb
     RDKit          3D

 48 50  0  0  1  0  0  0  0  0999 V2000
    1.1670    4.3030    1.0110 C   0  0  0  0  0  0  0  0  0  0  0  0
    2.0630    3.1800    0.6420 C   0  0  0  0  0  0  0  0  0  0  0  0
    1.6550    2.1120   -0.0490 C   0  0  0  0  0  0  0  0  0  0  0  0
    2.5720    1.0050   -0.4520 C   0  0  0  0  0  0  0  0  0  0  0  0
    2.6610   -0.0680    0.5880 C   0  0  0  0  0  0  0  0  0  0  0  0
    2.6970    0.2100    1.8860 C   0  0  0  0  0  0  0  0  0  0  0  0
    2.8070   -1.4730    0.0510 C   0  0  1  0  0  0  0  0  0  0  0  0
    4.1720   -1.5930   -0.6410 C   0  0  0  0  0  0  0  0  0  0  0  0
    2.6600   -2.4500    1.0360 O   0  0  0  0  0  0  0  0  0  0  0  0
    1.6890   -1.7770   -0.9540 C   0  0  0  0  0  0  0  0  0  0  0  0
    1.8880   -1.8950   -2.1500 O   0  0  0  0  0  0  0  0  0  0  0  0
    0.3890   -1.9390   -0.6060 O   0  0  0  0  0  0  0  0  0  0  0  0
   -0.0210   -1.8170    0.7390 C   0  0  0  0  0  0  0  0  0  0  0  0
   -1.4560   -1.4170    0.7110 C   0  0  0  0  0  0  0  0  0  0  0  0
   -2.3010   -1.6090    1.7270 C   0  0  0  0  0  0  0  0  0  0  0  0
   -3.6740   -1.1150    1.4380 C   0  0  0  0  0  0  0  0  0  0  0  0
   -3.6360   -0.6740   -0.0750 N   0  0  2  0  0  4  0  0  0  0  0  0
   -4.3760   -1.3990   -0.7990 O   0  0  0  0  0  0  0  0  0  0  0  0
   -2.0940   -0.7690   -0.4720 C   0  0  1  0  0  0  0  0  0  0  0  0
   -1.6550    0.6820   -0.7590 C   0  0  2  0  0  0  0  0  0  0  0  0
   -0.3500    0.8630   -0.2470 O   0  0  0  0  0  0  0  0  0  0  0  0
    0.2660    2.0400   -0.5350 C   0  0  0  0  0  0  0  0  0  0  0  0
   -0.3220    2.9190   -1.1400 O   0  0  0  0  0  0  0  0  0  0  0  0
   -2.6700    1.5800   -0.0370 C   0  0  0  0  0  0  0  0  0  0  0  0
   -3.9880    0.8400   -0.1970 C   0  0  0  0  0  0  0  0  0  0  0  0
    0.9800    4.9560    0.1430 H   0  0  0  0  0  0  0  0  0  0  0  0
    1.5920    4.9370    1.8020 H   0  0  0  0  0  0  0  0  0  0  0  0
    0.1820    3.9700    1.3710 H   0  0  0  0  0  0  0  0  0  0  0  0
    3.1100    3.2740    0.9560 H   0  0  0  0  0  0  0  0  0  0  0  0
    3.5980    1.4000   -0.6380 H   0  0  0  0  0  0  0  0  0  0  0  0
    2.2590    0.6120   -1.4440 H   0  0  0  0  0  0  0  0  0  0  0  0
    2.6270    1.2160    2.2890 H   0  0  0  0  0  0  0  0  0  0  0  0
    2.7830   -0.5270    2.6790 H   0  0  0  0  0  0  0  0  0  0  0  0
    4.2500   -0.9470   -1.5270 H   0  0  0  0  0  0  0  0  0  0  0  0
    4.9970   -1.3150    0.0300 H   0  0  0  0  0  0  0  0  0  0  0  0
    4.3600   -2.6190   -0.9900 H   0  0  0  0  0  0  0  0  0  0  0  0
    3.4840   -2.5150    1.5290 H   0  0  0  0  0  0  0  0  0  0  0  0
    0.5410   -1.0600    1.3290 H   0  0  0  0  0  0  0  0  0  0  0  0
    0.1170   -2.8010    1.2440 H   0  0  0  0  0  0  0  0  0  0  0  0
   -2.0800   -2.0860    2.6790 H   0  0  0  0  0  0  0  0  0  0  0  0
   -3.9560   -0.2760    2.1080 H   0  0  0  0  0  0  0  0  0  0  0  0
   -4.4470   -1.9030    1.5820 H   0  0  0  0  0  0  0  0  0  0  0  0
   -1.9890   -1.4150   -1.3840 H   0  0  0  0  0  0  0  0  0  0  0  0
   -1.6690    0.8710   -1.8670 H   0  0  0  0  0  0  0  0  0  0  0  0
   -2.4000    1.7300    1.0290 H   0  0  0  0  0  0  0  0  0  0  0  0
   -2.7210    2.6000   -0.4650 H   0  0  0  0  0  0  0  0  0  0  0  0
   -4.7640    1.1370    0.5380 H   0  0  0  0  0  0  0  0  0  0  0  0
   -4.4500    1.0250   -1.1930 H   0  0  0  0  0  0  0  0  0  0  0  0
  1 26  1  0
  1  2  1  0
  1 28  1  0
  1 27  1  0
  2  3  2  0
  2 29  1  0
  3 22  1  0
  3  4  1  0
  4 31  1  0
  4 30  1  0
  4  5  1  0
  5  7  1  0
  5  6  2  0
  6 32  1  0
  6 33  1  0
  7 10  1  0
  7  8  1  0
  7  9  1  1
  8 34  1  0
  8 36  1  0
  8 35  1  0
  9 37  1  0
 10 11  2  0
 10 12  1  0
 12 13  1  0
 13 14  1  0
 13 39  1  0
 13 38  1  0
 14 19  1  0
 14 15  2  0
 15 16  1  0
 15 40  1  0
 16 17  1  0
 16 42  1  0
 16 41  1  0
 17 18  1  6
 17 19  1  0
 17 25  1  0
 19 43  1  6
 19 20  1  0
 20 44  1  6
 20 21  1  0
 20 24  1  0
 21 22  1  0
 22 23  2  0
 24 46  1  0
 24 25  1  0
 24 45  1  0
 25 48  1  0
 25 47  1  0
M  END
>  <id>  (682) 
786

>  <scaffolds>  (682) 
['O=C1CCCCC(=O)OC2CCN3CC=C(CO1)C23', 'O=C1CCCCC(=O)OC2CC[NH+]3CC=C(CO1)C23', 'C=C1CCCC(=O)OCC2=CC[NH+]3CCC(OC1=O)C23', 'C=C1CCCC(=O)OCC2=CCN3CCC(OC1=O)C23', 'C1CCNC1']

>  <name>  (682) 
Seneciphylline N-oxide

>  <formula>  (682) 
C18H23NO6

>  <SMILES>  (682) 
CC=C1CC(=C)[C@@](C)(O)C(=O)OCC2=CCN3(=O)[C@H]2[C@H](OC1=O)CC3

>  <ChEMBL_id>  (682) 


>  <ZINC_id>  (682) 


>  <PubChem_id>  (682) 
6442619

>  <DrugBank_id>  (682) 


>  <CAS_no>  (682) 
38710-26-8

>  <references>  (682) 
[{'journal': {'name': 'Phytochemistry', 'id': 10}, 'title': 'Diversity of pyrrolizidine alkaloids in native and invasive Senecio pterophorus (Asteraceae): Implications for toxicity', 'year': 2014, 'start_page': 137, 'volume': 108, 'issue': None, 'doi': '10.1016/j.phytochem.2014.09.006', 'isbn': '', 'despositor': {'code': 'AMU', 'first_name': 'Arnold', 'last_name': 'Amusengeri', 'id': 25}, 'refauthors_set': [{'author': {'first_name': 'Eva', 'initials': 'E', 'last_name': 'Castells', 'id': 929}, 'first_author': True, 'id': 1511}, {'author': {'first_name': 'Patrick', 'initials': 'PJ', 'last_name': 'Mulder', 'id': 930}, 'first_author': None, 'id': 1512}, {'author': {'first_name': 'Míriam', 'initials': 'M', 'last_name': 'Pérez-Trujillo', 'id': 931}, 'first_author': None, 'id': 1513}], 'id': 426}]

>  <classifications>  (682) 
[{'classification': 'Pyrrolizidine alkaloid', 'id': 875}]

>  <molecular_mass>  (682) 
349.38

$$$$
SANC00787_minRM1.pdb
     RDKit          3D

 57 58  0  0  1  0  0  0  0  0999 V2000
    5.3950   -0.4070   -1.4750 C   0  0  0  0  0  0  0  0  0  0  0  0
    4.3470   -0.2110   -0.4520 N   0  0  0  0  0  0  0  0  0  0  0  0
    4.2400   -1.3730    0.4760 C   0  0  0  0  0  0  0  0  0  0  0  0
    2.9170   -2.1100    0.1960 C   0  0  0  0  0  0  0  0  0  0  0  0
    1.7800   -1.1180   -0.0680 C   0  0  1  0  0  0  0  0  0  0  0  0
    0.5530   -1.7430    0.2580 O   0  0  0  0  0  0  0  0  0  0  0  0
   -0.4510   -1.6750   -0.6610 C   0  0  0  0  0  0  0  0  0  0  0  0
   -0.2370   -1.9220   -1.8280 O   0  0  0  0  0  0  0  0  0  0  0  0
   -1.7840   -1.3180   -0.0100 C   0  0  1  0  0  0  0  0  0  0  0  0
   -1.5850   -0.4600    1.0590 O   0  0  0  0  0  0  0  0  0  0  0  0
   -2.6250   -0.5000   -1.0080 C   0  0  0  0  0  0  0  0  0  0  0  0
   -1.9370    0.7910   -1.4790 C   0  0  2  0  0  0  0  0  0  0  0  0
   -2.2060    2.0100   -0.5550 C   0  0  2  0  0  0  0  0  0  0  0  0
   -1.5190    1.8740    0.8140 C   0  0  0  0  0  0  0  0  0  0  0  0
   -2.1320    1.8500    1.8640 O   0  0  0  0  0  0  0  0  0  0  0  0
   -0.1690    1.7870    0.9840 O   0  0  0  0  0  0  0  0  0  0  0  0
    0.7290    2.0840   -0.0610 C   0  0  0  0  0  0  0  0  0  0  0  0
    2.0090    1.3820    0.2830 C   0  0  0  0  0  0  0  0  0  0  0  0
    3.2080    1.8730   -0.0190 C   0  0  0  0  0  0  0  0  0  0  0  0
    4.4720    1.1030    0.2460 C   0  0  0  0  0  0  0  0  0  0  0  0
    1.8760    0.0530    0.9180 C   0  0  0  0  0  0  0  0  0  0  0  0
    1.8660   -0.1190    2.1160 O   0  0  0  0  0  0  0  0  0  0  0  0
   -3.7070    2.2210   -0.3300 C   0  0  0  0  0  0  0  0  0  0  0  0
   -1.6100    3.1560   -1.0920 O   0  0  0  0  0  0  0  0  0  0  0  0
   -2.3970    1.0910   -2.9050 C   0  0  0  0  0  0  0  0  0  0  0  0
   -2.4450   -2.6440    0.4770 C   0  0  1  0  0  0  0  0  0  0  0  0
   -3.2640   -2.3920    1.5700 O   0  0  0  0  0  0  0  0  0  0  0  0
   -3.1920   -3.3800   -0.6300 C   0  0  0  0  0  0  0  0  0  0  0  0
    5.2060   -1.3460   -2.0250 H   0  0  0  0  0  0  0  0  0  0  0  0
    6.4360   -0.4520   -1.1020 H   0  0  0  0  0  0  0  0  0  0  0  0
    5.3510    0.4080   -2.2190 H   0  0  0  0  0  0  0  0  0  0  0  0
    4.2820   -1.0730    1.5510 H   0  0  0  0  0  0  0  0  0  0  0  0
    5.0880   -2.0940    0.3820 H   0  0  0  0  0  0  0  0  0  0  0  0
    2.6790   -2.7740    1.0550 H   0  0  0  0  0  0  0  0  0  0  0  0
    3.0200   -2.7940   -0.6720 H   0  0  0  0  0  0  0  0  0  0  0  0
    1.8300   -0.7510   -1.1280 H   0  0  0  0  0  0  0  0  0  0  0  0
   -1.1870   -0.9210    1.8100 H   0  0  0  0  0  0  0  0  0  0  0  0
   -2.8440   -1.1400   -1.8890 H   0  0  0  0  0  0  0  0  0  0  0  0
   -3.6180   -0.2740   -0.5610 H   0  0  0  0  0  0  0  0  0  0  0  0
   -0.8240    0.6420   -1.5190 H   0  0  0  0  0  0  0  0  0  0  0  0
    0.4030    1.7210   -1.0670 H   0  0  0  0  0  0  0  0  0  0  0  0
    0.8530    3.1870   -0.1350 H   0  0  0  0  0  0  0  0  0  0  0  0
    3.3250    2.8570   -0.4840 H   0  0  0  0  0  0  0  0  0  0  0  0
    4.6240    1.0190    1.3510 H   0  0  0  0  0  0  0  0  0  0  0  0
    5.3590    1.6900   -0.0920 H   0  0  0  0  0  0  0  0  0  0  0  0
   -3.9060    3.0770    0.3330 H   0  0  0  0  0  0  0  0  0  0  0  0
   -4.2580    2.4060   -1.2620 H   0  0  0  0  0  0  0  0  0  0  0  0
   -4.1670    1.3410    0.1470 H   0  0  0  0  0  0  0  0  0  0  0  0
   -2.2280    3.5810   -1.6940 H   0  0  0  0  0  0  0  0  0  0  0  0
   -3.4850    1.2230   -2.9900 H   0  0  0  0  0  0  0  0  0  0  0  0
   -2.1300    0.2740   -3.5960 H   0  0  0  0  0  0  0  0  0  0  0  0
   -1.9250    1.9860   -3.3330 H   0  0  0  0  0  0  0  0  0  0  0  0
   -1.6550   -3.3120    0.9180 H   0  0  0  0  0  0  0  0  0  0  0  0
   -3.9440   -1.7590    1.3150 H   0  0  0  0  0  0  0  0  0  0  0  0
   -4.1090   -2.8660   -0.9530 H   0  0  0  0  0  0  0  0  0  0  0  0
   -2.5610   -3.5330   -1.5170 H   0  0  0  0  0  0  0  0  0  0  0  0
   -3.5110   -4.3780   -0.2910 H   0  0  0  0  0  0  0  0  0  0  0  0
  1 31  1  0
  1 29  1  0
  1 30  1  0
  1  2  1  0
  2 20  1  0
  2  3  1  0
  3  4  1  0
  3 33  1  0
  3 32  1  0
  4 35  1  0
  4  5  1  0
  4 34  1  0
  5 36  1  6
  5  6  1  0
  5 21  1  0
  6  7  1  0
  7  8  2  0
  7  9  1  0
  9 11  1  0
  9 26  1  0
  9 10  1  1
 10 37  1  0
 11 38  1  0
 11 12  1  0
 11 39  1  0
 12 25  1  0
 12 40  1  6
 12 13  1  0
 13 24  1  6
 13 23  1  0
 13 14  1  0
 14 16  1  0
 14 15  2  0
 16 17  1  0
 17 41  1  0
 17 42  1  0
 17 18  1  0
 18 19  2  0
 18 21  1  0
 19 43  1  0
 19 20  1  0
 20 45  1  0
 20 44  1  0
 21 22  2  0
 23 47  1  0
 23 48  1  0
 23 46  1  0
 24 49  1  0
 25 51  1  0
 25 52  1  0
 25 50  1  0
 26 28  1  0
 26 53  1  1
 26 27  1  0
 27 54  1  0
 28 56  1  0
 28 55  1  0
 28 57  1  0
M  END
>  <id>  (683) 
787

>  <scaffolds>  (683) 
['O=C1CCCCC(=O)OC2CCNCC=C(CO1)C2=O']

>  <name>  (683) 
Onetine

>  <formula>  (683) 
C19H29NO8

>  <SMILES>  (683) 
CN1CCC2OC(=O)C(O)(CC(C(C(=O)OCC(=CC1)C2=O)(C)O)C)C(O)C

>  <ChEMBL_id>  (683) 


>  <ZINC_id>  (683) 


>  <PubChem_id>  (683) 
102059844

>  <DrugBank_id>  (683) 


>  <CAS_no>  (683) 
41451-67-6

>  <references>  (683) 
[{'journal': {'name': 'Phytochemistry', 'id': 10}, 'title': 'Diversity of pyrrolizidine alkaloids in native and invasive Senecio pterophorus (Asteraceae): Implications for toxicity', 'year': 2014, 'start_page': 137, 'volume': 108, 'issue': None, 'doi': '10.1016/j.phytochem.2014.09.006', 'isbn': '', 'despositor': {'code': 'AMU', 'first_name': 'Arnold', 'last_name': 'Amusengeri', 'id': 25}, 'refauthors_set': [{'author': {'first_name': 'Eva', 'initials': 'E', 'last_name': 'Castells', 'id': 929}, 'first_author': True, 'id': 1511}, {'author': {'first_name': 'Patrick', 'initials': 'PJ', 'last_name': 'Mulder', 'id': 930}, 'first_author': None, 'id': 1512}, {'author': {'first_name': 'Míriam', 'initials': 'M', 'last_name': 'Pérez-Trujillo', 'id': 931}, 'first_author': None, 'id': 1513}], 'id': 426}]

>  <classifications>  (683) 
[{'classification': 'Pyrrolizidine alkaloid', 'id': 875}, {'classification': 'Macrolides and analogues (Classyfire)', 'id': 945}]

>  <molecular_mass>  (683) 
399.43

$$$$
SANC00788_minRM1.pdb
     RDKit          3D

 61 62  0  0  1  0  0  0  0  0999 V2000
   -5.8880   -1.2580   -1.2730 C   0  0  0  0  0  0  0  0  0  0  0  0
   -4.7480   -0.9930   -0.3640 N   0  0  0  0  0  0  0  0  0  0  0  0
   -4.7650    0.4030    0.1480 C   0  0  0  0  0  0  0  0  0  0  0  0
   -3.3720    0.7630    0.6730 C   0  0  0  0  0  0  0  0  0  0  0  0
   -2.3250    0.4960   -0.4130 C   0  0  1  0  0  0  0  0  0  0  0  0
   -1.0280    0.7320    0.1160 O   0  0  0  0  0  0  0  0  0  0  0  0
   -0.6280    2.0240    0.2200 C   0  0  0  0  0  0  0  0  0  0  0  0
   -1.3580    2.9280   -0.1280 O   0  0  0  0  0  0  0  0  0  0  0  0
    0.7560    2.1680    0.8630 C   0  0  1  0  0  0  0  0  0  0  0  0
    0.4440    2.2280    2.2190 O   0  0  0  0  0  0  0  0  0  0  0  0
    1.7160    1.0170    0.4780 C   0  0  0  0  0  0  0  0  0  0  0  0
    1.6650   -0.1820    1.4300 C   0  0  1  0  0  0  0  0  0  0  0  0
    2.0740   -1.4940    0.7030 C   0  0  2  0  0  0  0  0  0  0  0  0
    1.1840   -1.7810   -0.5090 C   0  0  0  0  0  0  0  0  0  0  0  0
    1.5660   -1.5880   -1.6470 O   0  0  0  0  0  0  0  0  0  0  0  0
   -0.0370   -2.3740   -0.4330 O   0  0  0  0  0  0  0  0  0  0  0  0
   -0.7990   -2.2980    0.7490 C   0  0  0  0  0  0  0  0  0  0  0  0
   -2.1960   -1.9240    0.3490 C   0  0  0  0  0  0  0  0  0  0  0  0
   -3.2520   -2.3610    1.0280 C   0  0  0  0  0  0  0  0  0  0  0  0
   -4.6730   -1.9940    0.7350 C   0  0  0  0  0  0  0  0  0  0  0  0
   -2.3110   -0.9920   -0.7930 C   0  0  0  0  0  0  0  0  0  0  0  0
   -2.3530   -1.3410   -1.9490 O   0  0  0  0  0  0  0  0  0  0  0  0
    2.0980   -2.6940    1.6500 C   0  0  0  0  0  0  0  0  0  0  0  0
    3.3610   -1.2130    0.1990 O   0  0  0  0  0  0  0  0  0  0  0  0
    4.0340   -2.1460   -0.5370 C   0  0  0  0  0  0  0  0  0  0  0  0
    3.6290   -3.2860   -0.6230 O   0  0  0  0  0  0  0  0  0  0  0  0
    5.2630   -1.5550   -1.1440 C   0  0  0  0  0  0  0  0  0  0  0  0
    2.5960    0.0410    2.6220 C   0  0  0  0  0  0  0  0  0  0  0  0
    1.3990    3.5030    0.4300 C   0  0  1  0  0  0  0  0  0  0  0  0
    1.5500    3.3480   -1.4090 Cl  0  0  0  0  0  0  0  0  0  0  0  0
    0.6110    4.7520    0.7220 C   0  0  0  0  0  0  0  0  0  0  0  0
   -6.8910   -1.1990   -0.8100 H   0  0  0  0  0  0  0  0  0  0  0  0
   -5.8750   -0.5470   -2.1170 H   0  0  0  0  0  0  0  0  0  0  0  0
   -5.7880   -2.2620   -1.7210 H   0  0  0  0  0  0  0  0  0  0  0  0
   -5.5330    0.5970    0.9360 H   0  0  0  0  0  0  0  0  0  0  0  0
   -5.0390    1.0990   -0.6800 H   0  0  0  0  0  0  0  0  0  0  0  0
   -3.1330    0.2160    1.6080 H   0  0  0  0  0  0  0  0  0  0  0  0
   -3.3610    1.8320    0.9750 H   0  0  0  0  0  0  0  0  0  0  0  0
   -2.5240    1.1200   -1.3270 H   0  0  0  0  0  0  0  0  0  0  0  0
    1.2720    2.2050    2.7190 H   0  0  0  0  0  0  0  0  0  0  0  0
    2.7650    1.3810    0.4090 H   0  0  0  0  0  0  0  0  0  0  0  0
    1.4950    0.7290   -0.5740 H   0  0  0  0  0  0  0  0  0  0  0  0
    0.6150   -0.3180    1.8050 H   0  0  0  0  0  0  0  0  0  0  0  0
   -0.7500   -3.2980    1.2340 H   0  0  0  0  0  0  0  0  0  0  0  0
   -0.4500   -1.5460    1.4970 H   0  0  0  0  0  0  0  0  0  0  0  0
   -3.1340   -3.0560    1.8700 H   0  0  0  0  0  0  0  0  0  0  0  0
   -5.1650   -1.6620    1.6840 H   0  0  0  0  0  0  0  0  0  0  0  0
   -5.2130   -2.9360    0.4680 H   0  0  0  0  0  0  0  0  0  0  0  0
    3.0810   -2.8170    2.1300 H   0  0  0  0  0  0  0  0  0  0  0  0
    1.8870   -3.6460    1.1380 H   0  0  0  0  0  0  0  0  0  0  0  0
    1.3700   -2.6160    2.4690 H   0  0  0  0  0  0  0  0  0  0  0  0
    5.9130   -2.3380   -1.5620 H   0  0  0  0  0  0  0  0  0  0  0  0
    5.8550   -0.9780   -0.4190 H   0  0  0  0  0  0  0  0  0  0  0  0
    4.9930   -0.8720   -1.9650 H   0  0  0  0  0  0  0  0  0  0  0  0
    3.6610    0.0130    2.3490 H   0  0  0  0  0  0  0  0  0  0  0  0
    2.4370    1.0190    3.1050 H   0  0  0  0  0  0  0  0  0  0  0  0
    2.4540   -0.7050    3.4160 H   0  0  0  0  0  0  0  0  0  0  0  0
    2.4440    3.5850    0.8070 H   0  0  0  0  0  0  0  0  0  0  0  0
    1.2670    5.6240    0.8620 H   0  0  0  0  0  0  0  0  0  0  0  0
   -0.0040    4.6610    1.6310 H   0  0  0  0  0  0  0  0  0  0  0  0
   -0.0770    5.0230   -0.0950 H   0  0  0  0  0  0  0  0  0  0  0  0
  1 33  1  0
  1 34  1  0
  1 32  1  0
  1  2  1  0
  2  3  1  0
  2 20  1  0
  3 36  1  0
  3  4  1  0
  3 35  1  0
  4  5  1  0
  4 38  1  0
  4 37  1  0
  5 39  1  6
  5 21  1  0
  5  6  1  0
  6  7  1  0
  7  8  2  0
  7  9  1  0
  9 29  1  0
  9 11  1  0
  9 10  1  1
 10 40  1  0
 11 42  1  0
 11 41  1  0
 11 12  1  0
 12 13  1  0
 12 43  1  1
 12 28  1  0
 13 14  1  0
 13 24  1  6
 13 23  1  0
 14 15  2  0
 14 16  1  0
 16 17  1  0
 17 18  1  0
 17 44  1  0
 17 45  1  0
 18 21  1  0
 18 19  2  0
 19 20  1  0
 19 46  1  0
 20 48  1  0
 20 47  1  0
 21 22  2  0
 23 50  1  0
 23 49  1  0
 23 51  1  0
 24 25  1  0
 25 27  1  0
 25 26  2  0
 27 54  1  0
 27 52  1  0
 27 53  1  0
 28 55  1  0
 28 56  1  0
 28 57  1  0
 29 30  1  0
 29 31  1  0
 29 58  1  1
 31 61  1  0
 31 59  1  0
 31 60  1  0
M  END
>  <id>  (684) 
788

>  <scaffolds>  (684) 
['O=C1CCCCC(=O)OC2CCNCC=C(CO1)C2=O']

>  <name>  (684) 
Doronine

>  <formula>  (684) 
C21H30ClNO8

>  <SMILES>  (684) 
CN1CCC2OC(=O)C(O)(CC(C(C(=O)OCC(=CC1)C2=O)(C)OC(=O)C)C)C(Cl)C

>  <ChEMBL_id>  (684) 


>  <ZINC_id>  (684) 


>  <PubChem_id>  (684) 
5281726

>  <DrugBank_id>  (684) 


>  <CAS_no>  (684) 
60367-00-2

>  <references>  (684) 
[{'journal': {'name': 'Phytochemistry', 'id': 10}, 'title': 'Diversity of pyrrolizidine alkaloids in native and invasive Senecio pterophorus (Asteraceae): Implications for toxicity', 'year': 2014, 'start_page': 137, 'volume': 108, 'issue': None, 'doi': '10.1016/j.phytochem.2014.09.006', 'isbn': '', 'despositor': {'code': 'AMU', 'first_name': 'Arnold', 'last_name': 'Amusengeri', 'id': 25}, 'refauthors_set': [{'author': {'first_name': 'Eva', 'initials': 'E', 'last_name': 'Castells', 'id': 929}, 'first_author': True, 'id': 1511}, {'author': {'first_name': 'Patrick', 'initials': 'PJ', 'last_name': 'Mulder', 'id': 930}, 'first_author': None, 'id': 1512}, {'author': {'first_name': 'Míriam', 'initials': 'M', 'last_name': 'Pérez-Trujillo', 'id': 931}, 'first_author': None, 'id': 1513}], 'id': 426}]

>  <classifications>  (684) 
[{'classification': 'Pyrrolizidine alkaloid', 'id': 875}, {'classification': 'Carboxylic acids and derivatives (Classyfire)', 'id': 950}]

>  <molecular_mass>  (684) 
459.92

$$$$
SANC00789_minRM1.pdb
     RDKit          3D

 49 51  0  0  1  0  0  0  0  0999 V2000
   -1.5720    3.4550   -0.2830 C   0  0  0  0  0  0  0  0  0  0  0  0
   -0.9420    2.2800   -0.3100 C   0  0  0  0  0  0  0  0  0  0  0  0
    0.3500    2.1870    0.4010 C   0  0  0  0  0  0  0  0  0  0  0  0
    0.8530    3.0630    1.0910 O   0  0  0  0  0  0  0  0  0  0  0  0
    0.9880    0.9990    0.2550 O   0  0  0  0  0  0  0  0  0  0  0  0
    2.2030    0.8150    0.9430 C   0  0  2  0  0  0  0  0  0  0  0  0
    3.3660    1.6490    0.3260 C   0  0  0  0  0  0  0  0  0  0  0  0
    4.2540    0.6700   -0.4960 C   0  0  0  0  0  0  0  0  0  0  0  0
    3.3370   -0.4570   -0.6470 N   0  0  0  0  0  0  0  0  0  0  0  0
    2.6400   -0.6320    0.6580 C   0  0  2  0  0  0  0  0  0  0  0  0
    1.7570   -1.7990    0.3220 C   0  0  0  0  0  0  0  0  0  0  0  0
    2.3150   -2.4960   -0.6820 C   0  0  0  0  0  0  0  0  0  0  0  0
    3.5740   -1.8090   -1.1860 C   0  0  0  0  0  0  0  0  0  0  0  0
    0.4990   -2.1060    1.0430 C   0  0  0  0  0  0  0  0  0  0  0  0
   -0.5250   -1.6560    0.1680 O   0  0  0  0  0  0  0  0  0  0  0  0
   -1.8000   -1.7300    0.6060 C   0  0  0  0  0  0  0  0  0  0  0  0
   -2.0690   -2.3180    1.6390 O   0  0  0  0  0  0  0  0  0  0  0  0
   -2.8070   -1.0580   -0.3290 C   0  0  1  0  0  0  0  0  0  0  0  0
   -2.7030    0.4920   -0.2290 C   0  0  2  0  0  0  0  0  0  0  0  0
   -1.5100    1.0800   -1.0170 C   0  0  1  0  0  0  0  0  0  0  0  0
   -1.9260    1.5210   -2.4250 C   0  0  0  0  0  0  0  0  0  0  0  0
   -2.6550    0.8660    1.2530 C   0  0  0  0  0  0  0  0  0  0  0  0
   -2.6430   -1.6260   -1.7390 C   0  0  0  0  0  0  0  0  0  0  0  0
   -4.0970   -1.3370    0.1310 O   0  0  0  0  0  0  0  0  0  0  0  0
   -1.1810    4.3430    0.2110 H   0  0  0  0  0  0  0  0  0  0  0  0
   -2.5390    3.6330   -0.7430 H   0  0  0  0  0  0  0  0  0  0  0  0
    2.0710    1.0200    2.0350 H   0  0  0  0  0  0  0  0  0  0  0  0
    2.9890    2.4700   -0.3130 H   0  0  0  0  0  0  0  0  0  0  0  0
    3.9510    2.1520    1.1190 H   0  0  0  0  0  0  0  0  0  0  0  0
    4.5380    1.0680   -1.4920 H   0  0  0  0  0  0  0  0  0  0  0  0
    5.2170    0.4490    0.0200 H   0  0  0  0  0  0  0  0  0  0  0  0
    3.2990   -0.9530    1.5190 H   0  0  0  0  0  0  0  0  0  0  0  0
    1.9560   -3.4130   -1.1360 H   0  0  0  0  0  0  0  0  0  0  0  0
    4.4960   -2.3280   -0.8310 H   0  0  0  0  0  0  0  0  0  0  0  0
    3.6460   -1.7790   -2.2930 H   0  0  0  0  0  0  0  0  0  0  0  0
    0.3930   -3.1960    1.2500 H   0  0  0  0  0  0  0  0  0  0  0  0
    0.4440   -1.5890    2.0280 H   0  0  0  0  0  0  0  0  0  0  0  0
   -3.6520    0.9110   -0.6580 H   0  0  0  0  0  0  0  0  0  0  0  0
   -0.7130    0.3070   -1.1470 H   0  0  0  0  0  0  0  0  0  0  0  0
   -2.8090    2.1750   -2.4430 H   0  0  0  0  0  0  0  0  0  0  0  0
   -1.1170    2.0740   -2.9250 H   0  0  0  0  0  0  0  0  0  0  0  0
   -2.1660    0.6760   -3.0830 H   0  0  0  0  0  0  0  0  0  0  0  0
   -1.6750    0.6670    1.7110 H   0  0  0  0  0  0  0  0  0  0  0  0
   -2.8720    1.9320    1.4190 H   0  0  0  0  0  0  0  0  0  0  0  0
   -3.4000    0.3210    1.8520 H   0  0  0  0  0  0  0  0  0  0  0  0
   -3.3880   -1.1990   -2.4270 H   0  0  0  0  0  0  0  0  0  0  0  0
   -2.7890   -2.7170   -1.7610 H   0  0  0  0  0  0  0  0  0  0  0  0
   -1.6470   -1.4470   -2.1660 H   0  0  0  0  0  0  0  0  0  0  0  0
   -4.1980   -2.2900    0.2330 H   0  0  0  0  0  0  0  0  0  0  0  0
  1 26  1  0
  1  2  2  0
  1 25  1  0
  2 20  1  0
  2  3  1  0
  3  5  1  0
  3  4  2  0
  5  6  1  0
  6  7  1  0
  6 10  1  0
  6 27  1  1
  7  8  1  0
  7 28  1  0
  7 29  1  0
  8 30  1  0
  8 31  1  0
  9  8  1  0
  9 13  1  0
  9 10  1  0
 10 11  1  0
 10 32  1  1
 11 12  2  0
 11 14  1  0
 12 13  1  0
 12 33  1  0
 13 35  1  0
 13 34  1  0
 14 15  1  0
 14 36  1  0
 14 37  1  0
 15 16  1  0
 16 18  1  0
 16 17  2  0
 18 23  1  0
 18 19  1  0
 18 24  1  1
 19 20  1  0
 19 38  1  6
 19 22  1  0
 20 21  1  0
 20 39  1  6
 21 42  1  0
 21 41  1  0
 21 40  1  0
 22 44  1  0
 22 43  1  0
 22 45  1  0
 23 46  1  0
 23 48  1  0
 23 47  1  0
 24 49  1  0
M  END
>  <id>  (685) 
789

>  <scaffolds>  (685) 
['O=C1CCCCC(=O)OC2CCN3CC=C(CO1)C23', 'C=C1CCCC(=O)OCC2=CCN3CCC(OC1=O)C23', 'C1CCNC1']

>  <name>  (685) 
Senecivernine

>  <formula>  (685) 
C18H25NO5

>  <SMILES>  (685) 
C=C1C(=O)OC2CCN3C2C(=CC3)COC(=O)C(C(C1C)C)(C)O

>  <ChEMBL_id>  (685) 
CHEMBL3349185

>  <ZINC_id>  (685) 
ZINC56871325

>  <PubChem_id>  (685) 
442764

>  <DrugBank_id>  (685) 


>  <CAS_no>  (685) 
72755-25-0

>  <references>  (685) 
[{'journal': {'name': 'Phytochemistry', 'id': 10}, 'title': 'Diversity of pyrrolizidine alkaloids in native and invasive Senecio pterophorus (Asteraceae): Implications for toxicity', 'year': 2014, 'start_page': 137, 'volume': 108, 'issue': None, 'doi': '10.1016/j.phytochem.2014.09.006', 'isbn': '', 'despositor': {'code': 'AMU', 'first_name': 'Arnold', 'last_name': 'Amusengeri', 'id': 25}, 'refauthors_set': [{'author': {'first_name': 'Eva', 'initials': 'E', 'last_name': 'Castells', 'id': 929}, 'first_author': True, 'id': 1511}, {'author': {'first_name': 'Patrick', 'initials': 'PJ', 'last_name': 'Mulder', 'id': 930}, 'first_author': None, 'id': 1512}, {'author': {'first_name': 'Míriam', 'initials': 'M', 'last_name': 'Pérez-Trujillo', 'id': 931}, 'first_author': None, 'id': 1513}], 'id': 426}]

>  <classifications>  (685) 
[{'classification': 'Pyrrolizidine alkaloid', 'id': 875}, {'classification': 'Macrolides and analogues (Classyfire)', 'id': 945}]

>  <molecular_mass>  (685) 
335.39

$$$$
SANC00790_minRM1.pdb
     RDKit          3D

 49 51  0  0  1  0  0  0  0  0999 V2000
    0.0780    4.5620   -1.0870 C   0  0  0  0  0  0  0  0  0  0  0  0
    1.0290    3.4710   -1.4110 C   0  0  0  0  0  0  0  0  0  0  0  0
    1.0310    2.3050   -0.7650 C   0  0  0  0  0  0  0  0  0  0  0  0
    1.9770    1.1890   -1.0620 C   0  0  0  0  0  0  0  0  0  0  0  0
    2.4760    0.5550    0.2000 C   0  0  0  0  0  0  0  0  0  0  0  0
    2.8050    1.3160    1.2410 C   0  0  0  0  0  0  0  0  0  0  0  0
    2.6520   -0.9380    0.2000 C   0  0  2  0  0  0  0  0  0  0  0  0
    3.3880   -1.3910    1.2940 O   0  0  0  0  0  0  0  0  0  0  0  0
    3.5120   -1.3920   -1.0180 C   0  0  0  0  0  0  0  0  0  0  0  0
    3.6180   -2.7760   -1.0510 O   0  0  0  0  0  0  0  0  0  0  0  0
    1.3070   -1.6640    0.1980 C   0  0  0  0  0  0  0  0  0  0  0  0
    0.8640   -2.3160    1.1220 O   0  0  0  0  0  0  0  0  0  0  0  0
    0.6500   -1.5860   -0.9850 O   0  0  0  0  0  0  0  0  0  0  0  0
   -0.4440   -2.4520   -1.1810 C   0  0  0  0  0  0  0  0  0  0  0  0
   -1.6890   -1.9400   -0.5620 C   0  0  0  0  0  0  0  0  0  0  0  0
   -2.6250   -2.6800    0.0610 C   0  0  0  0  0  0  0  0  0  0  0  0
   -3.8280   -1.8650    0.4590 C   0  0  0  0  0  0  0  0  0  0  0  0
   -3.1750   -0.4380    0.5320 N   0  0  1  0  0  4  0  0  0  0  0  0
   -2.6050   -0.2740    1.6400 O   0  0  0  0  0  0  0  0  0  0  0  0
   -2.2100   -0.5620   -0.7380 C   0  0  1  0  0  0  0  0  0  0  0  0
   -1.5470    0.8040   -0.7420 C   0  0  2  0  0  0  0  0  0  0  0  0
   -0.6060    0.8510    0.2960 O   0  0  0  0  0  0  0  0  0  0  0  0
    0.0940    2.0380    0.3430 C   0  0  0  0  0  0  0  0  0  0  0  0
   -0.0510    2.7240    1.3310 O   0  0  0  0  0  0  0  0  0  0  0  0
   -2.7770    1.7290   -0.4330 C   0  0  0  0  0  0  0  0  0  0  0  0
   -3.9310    0.8470    0.0970 C   0  0  0  0  0  0  0  0  0  0  0  0
   -0.9550    4.2040   -0.9470 H   0  0  0  0  0  0  0  0  0  0  0  0
    0.0390    5.3350   -1.8680 H   0  0  0  0  0  0  0  0  0  0  0  0
    0.3640    5.0680   -0.1500 H   0  0  0  0  0  0  0  0  0  0  0  0
    1.7500    3.6730   -2.2120 H   0  0  0  0  0  0  0  0  0  0  0  0
    1.4580    0.4800   -1.7410 H   0  0  0  0  0  0  0  0  0  0  0  0
    2.8540    1.5440   -1.6490 H   0  0  0  0  0  0  0  0  0  0  0  0
    2.7140    2.4000    1.2430 H   0  0  0  0  0  0  0  0  0  0  0  0
    3.1950    0.9550    2.1880 H   0  0  0  0  0  0  0  0  0  0  0  0
    2.8580   -1.3130    2.0980 H   0  0  0  0  0  0  0  0  0  0  0  0
    3.0310   -1.1320   -1.9840 H   0  0  0  0  0  0  0  0  0  0  0  0
    4.4980   -0.8730   -0.9920 H   0  0  0  0  0  0  0  0  0  0  0  0
    4.1490   -3.0650   -0.3000 H   0  0  0  0  0  0  0  0  0  0  0  0
   -0.2220   -3.4960   -0.8570 H   0  0  0  0  0  0  0  0  0  0  0  0
   -0.5410   -2.4700   -2.2910 H   0  0  0  0  0  0  0  0  0  0  0  0
   -2.5650   -3.7350    0.3140 H   0  0  0  0  0  0  0  0  0  0  0  0
   -4.6440   -1.9020   -0.2910 H   0  0  0  0  0  0  0  0  0  0  0  0
   -4.2600   -2.1590    1.4370 H   0  0  0  0  0  0  0  0  0  0  0  0
   -2.8220   -0.6080   -1.6880 H   0  0  0  0  0  0  0  0  0  0  0  0
   -1.0790    1.0470   -1.7320 H   0  0  0  0  0  0  0  0  0  0  0  0
   -3.0890    2.2800   -1.3400 H   0  0  0  0  0  0  0  0  0  0  0  0
   -2.5180    2.5090    0.3110 H   0  0  0  0  0  0  0  0  0  0  0  0
   -4.7050    0.6270   -0.6660 H   0  0  0  0  0  0  0  0  0  0  0  0
   -4.4620    1.3030    0.9580 H   0  0  0  0  0  0  0  0  0  0  0  0
  1 28  1  0
  1  2  1  0
  1 27  1  0
  1 29  1  0
  2 30  1  0
  2  3  2  0
  3  4  1  0
  3 23  1  0
  4 31  1  0
  4 32  1  0
  4  5  1  0
  5  7  1  0
  5  6  2  0
  6 33  1  0
  6 34  1  0
  7  9  1  0
  7 11  1  0
  7  8  1  1
  8 35  1  0
  9 36  1  0
  9 10  1  0
  9 37  1  0
 10 38  1  0
 11 13  1  0
 11 12  2  0
 13 14  1  0
 14 40  1  0
 14 39  1  0
 14 15  1  0
 15 20  1  0
 15 16  2  0
 16 41  1  0
 16 17  1  0
 17 42  1  0
 17 18  1  0
 17 43  1  0
 18 20  1  0
 18 26  1  0
 18 19  1  1
 20 44  1  6
 20 21  1  0
 21 45  1  6
 21 25  1  0
 21 22  1  0
 22 23  1  0
 23 24  2  0
 25 46  1  0
 25 26  1  0
 25 47  1  0
 26 48  1  0
 26 49  1  0
M  END
>  <id>  (686) 
790

>  <scaffolds>  (686) 
['O=C1CCCCC(=O)OC2CCN3CC=C(CO1)C23', 'O=C1CCCCC(=O)OC2CC[NH+]3CC=C(CO1)C23', 'C=C1CCCC(=O)OCC2=CC[NH+]3CCC(OC1=O)C23', 'C=C1CCCC(=O)OCC2=CCN3CCC(OC1=O)C23', 'C1CCNC1']

>  <name>  (686) 
Riddelline N-oxide

>  <formula>  (686) 
C18H23NO7

>  <SMILES>  (686) 
CC=C1CC(=C)[C@](O)(CO)C(=O)OCC2=CCN3(=O)[C@H]2[C@H](OC1=O)CC3

>  <ChEMBL_id>  (686) 


>  <ZINC_id>  (686) 


>  <PubChem_id>  (686) 
6440301

>  <DrugBank_id>  (686) 


>  <CAS_no>  (686) 
75056-11-0

>  <references>  (686) 
[{'journal': {'name': 'Phytochemistry', 'id': 10}, 'title': 'Diversity of pyrrolizidine alkaloids in native and invasive Senecio pterophorus (Asteraceae): Implications for toxicity', 'year': 2014, 'start_page': 137, 'volume': 108, 'issue': None, 'doi': '10.1016/j.phytochem.2014.09.006', 'isbn': '', 'despositor': {'code': 'AMU', 'first_name': 'Arnold', 'last_name': 'Amusengeri', 'id': 25}, 'refauthors_set': [{'author': {'first_name': 'Eva', 'initials': 'E', 'last_name': 'Castells', 'id': 929}, 'first_author': True, 'id': 1511}, {'author': {'first_name': 'Patrick', 'initials': 'PJ', 'last_name': 'Mulder', 'id': 930}, 'first_author': None, 'id': 1512}, {'author': {'first_name': 'Míriam', 'initials': 'M', 'last_name': 'Pérez-Trujillo', 'id': 931}, 'first_author': None, 'id': 1513}], 'id': 426}]

>  <classifications>  (686) 
[{'classification': 'Pyrrolizidine alkaloid', 'id': 875}]

>  <molecular_mass>  (686) 
365.38

$$$$
SANC00791_minRM1.pdb
     RDKit          3D

 50 52  0  0  1  0  0  0  0  0999 V2000
   -3.7520    3.0140   -1.5470 C   0  0  0  0  0  0  0  0  0  0  0  0
   -2.4150    3.0010   -0.9070 C   0  0  0  0  0  0  0  0  0  0  0  0
   -1.8150    1.8900   -0.4670 C   0  0  0  0  0  0  0  0  0  0  0  0
   -2.3700    0.5110   -0.5590 C   0  0  0  0  0  0  0  0  0  0  0  0
   -2.3620   -0.1740    0.8180 C   0  0  1  0  0  0  0  0  0  0  0  0
   -3.5120    0.3710    1.6550 C   0  0  0  0  0  0  0  0  0  0  0  0
   -2.4470   -1.7140    0.6890 C   0  0  1  0  0  0  0  0  0  0  0  0
   -2.1200   -2.4260    2.0040 C   0  0  0  0  0  0  0  0  0  0  0  0
   -3.7190   -2.1530    0.3370 O   0  0  0  0  0  0  0  0  0  0  0  0
   -1.4460   -2.1810   -0.3670 C   0  0  0  0  0  0  0  0  0  0  0  0
   -1.7020   -2.8510   -1.3500 O   0  0  0  0  0  0  0  0  0  0  0  0
   -0.1840   -1.7420   -0.1330 O   0  0  0  0  0  0  0  0  0  0  0  0
    0.7260   -1.8620   -1.2120 C   0  0  0  0  0  0  0  0  0  0  0  0
    1.9520   -1.0920   -0.8740 C   0  0  0  0  0  0  0  0  0  0  0  0
    2.9950   -1.0090   -1.7070 C   0  0  0  0  0  0  0  0  0  0  0  0
    4.1570   -0.2980   -1.1080 C   0  0  0  0  0  0  0  0  0  0  0  0
    3.7680   -0.1170    0.4070 N   0  0  2  0  0  4  0  0  0  0  0  0
    4.4400   -0.8700    1.1670 O   0  0  0  0  0  0  0  0  0  0  0  0
    2.2040   -0.4400    0.4430 C   0  0  1  0  0  0  0  0  0  0  0  0
    1.5190    0.9200    0.6990 C   0  0  2  0  0  0  0  0  0  0  0  0
    0.3790    1.0230   -0.1270 O   0  0  0  0  0  0  0  0  0  0  0  0
   -0.4920    2.0300    0.1680 C   0  0  0  0  0  0  0  0  0  0  0  0
   -0.1470    2.9460    0.8960 O   0  0  0  0  0  0  0  0  0  0  0  0
    2.5560    2.0030    0.3640 C   0  0  0  0  0  0  0  0  0  0  0  0
    3.8750    1.3860    0.7970 C   0  0  0  0  0  0  0  0  0  0  0  0
   -4.5360    2.6370   -0.8710 H   0  0  0  0  0  0  0  0  0  0  0  0
   -4.0640    4.0260   -1.8460 H   0  0  0  0  0  0  0  0  0  0  0  0
   -3.7820    2.3990   -2.4590 H   0  0  0  0  0  0  0  0  0  0  0  0
   -1.9220    3.9780   -0.8050 H   0  0  0  0  0  0  0  0  0  0  0  0
   -1.7660   -0.0300   -1.3190 H   0  0  0  0  0  0  0  0  0  0  0  0
   -3.3970    0.5050   -0.9800 H   0  0  0  0  0  0  0  0  0  0  0  0
   -1.4030    0.0430    1.3540 H   0  0  0  0  0  0  0  0  0  0  0  0
   -3.4820    1.4700    1.7080 H   0  0  0  0  0  0  0  0  0  0  0  0
   -4.5010    0.1010    1.2580 H   0  0  0  0  0  0  0  0  0  0  0  0
   -3.4820    0.0110    2.6930 H   0  0  0  0  0  0  0  0  0  0  0  0
   -2.1200   -3.5200    1.8830 H   0  0  0  0  0  0  0  0  0  0  0  0
   -2.8580   -2.2050    2.7880 H   0  0  0  0  0  0  0  0  0  0  0  0
   -1.1310   -2.1410    2.3880 H   0  0  0  0  0  0  0  0  0  0  0  0
   -3.9310   -1.8210   -0.5410 H   0  0  0  0  0  0  0  0  0  0  0  0
    0.2850   -1.4790   -2.1640 H   0  0  0  0  0  0  0  0  0  0  0  0
    0.9740   -2.9360   -1.3830 H   0  0  0  0  0  0  0  0  0  0  0  0
    3.0640   -1.4230   -2.7100 H   0  0  0  0  0  0  0  0  0  0  0  0
    4.3430    0.6760   -1.6100 H   0  0  0  0  0  0  0  0  0  0  0  0
    5.1010   -0.8800   -1.1920 H   0  0  0  0  0  0  0  0  0  0  0  0
    1.9930   -1.1570    1.2790 H   0  0  0  0  0  0  0  0  0  0  0  0
    1.2230    0.9840    1.7820 H   0  0  0  0  0  0  0  0  0  0  0  0
    2.5440    2.2640   -0.7140 H   0  0  0  0  0  0  0  0  0  0  0  0
    2.3600    2.9590    0.8880 H   0  0  0  0  0  0  0  0  0  0  0  0
    4.0350    1.4660    1.8960 H   0  0  0  0  0  0  0  0  0  0  0  0
    4.7690    1.8570    0.3420 H   0  0  0  0  0  0  0  0  0  0  0  0
  1 28  1  0
  1 27  1  0
  1  2  1  0
  1 26  1  0
  2 29  1  0
  2  3  2  0
  3  4  1  0
  3 22  1  0
  4 30  1  0
  4 31  1  0
  4  5  1  0
  5  7  1  0
  5 32  1  1
  5  6  1  0
  6 34  1  0
  6 33  1  0
  6 35  1  0
  7 10  1  0
  7  9  1  6
  7  8  1  0
  8 36  1  0
  8 38  1  0
  8 37  1  0
  9 39  1  0
 10 11  2  0
 10 12  1  0
 12 13  1  0
 13 40  1  0
 13 41  1  0
 13 14  1  0
 14 15  2  0
 14 19  1  0
 15 42  1  0
 15 16  1  0
 16 43  1  0
 16 44  1  0
 16 17  1  0
 17 19  1  0
 17 25  1  0
 17 18  1  1
 19 20  1  0
 19 45  1  1
 20 21  1  0
 20 24  1  0
 20 46  1  1
 21 22  1  0
 22 23  2  0
 24 47  1  0
 24 25  1  0
 24 48  1  0
 25 50  1  0
 25 49  1  0
M  END
>  <id>  (687) 
791

>  <scaffolds>  (687) 
['O=C1CCCCC(=O)OC2CCN3CC=C(CO1)C23', 'O=C1CCCCC(=O)OC2CC[NH+]3CC=C(CO1)C23', 'C=C1CCCC(=O)OCC2=CC[NH+]3CCC(OC1=O)C23', 'C=C1CCCC(=O)OCC2=CCN3CCC(OC1=O)C23', 'C1CCNC1']

>  <name>  (687) 
Integerrimine N-oxide

>  <formula>  (687) 
C18H25NO6

>  <SMILES>  (687) 
CC=C1C[C@@H](C)[C@@](C)(O)C(=O)OCC2=CCN3(=O)[C@H]2[C@H](OC1=O)CC3

>  <ChEMBL_id>  (687) 


>  <ZINC_id>  (687) 


>  <PubChem_id>  (687) 
6437374

>  <DrugBank_id>  (687) 


>  <CAS_no>  (687) 
85955-28-8

>  <references>  (687) 
[{'journal': {'name': 'Phytochemistry', 'id': 10}, 'title': 'Diversity of pyrrolizidine alkaloids in native and invasive Senecio pterophorus (Asteraceae): Implications for toxicity', 'year': 2014, 'start_page': 137, 'volume': 108, 'issue': None, 'doi': '10.1016/j.phytochem.2014.09.006', 'isbn': '', 'despositor': {'code': 'AMU', 'first_name': 'Arnold', 'last_name': 'Amusengeri', 'id': 25}, 'refauthors_set': [{'author': {'first_name': 'Eva', 'initials': 'E', 'last_name': 'Castells', 'id': 929}, 'first_author': True, 'id': 1511}, {'author': {'first_name': 'Patrick', 'initials': 'PJ', 'last_name': 'Mulder', 'id': 930}, 'first_author': None, 'id': 1512}, {'author': {'first_name': 'Míriam', 'initials': 'M', 'last_name': 'Pérez-Trujillo', 'id': 931}, 'first_author': None, 'id': 1513}], 'id': 426}]

>  <classifications>  (687) 
[{'classification': 'Pyrrolizidine alkaloid', 'id': 875}]

>  <molecular_mass>  (687) 
351.39

$$$$
SANC00792_minRM1.pdb
     RDKit          3D

 50 52  0  0  1  0  0  0  0  0999 V2000
    0.3300   -1.3170   -2.1520 O   0  0  0  0  0  0  0  0  0  0  0  0
    0.4440   -1.6390   -0.9860 C   0  0  0  0  0  0  0  0  0  0  0  0
   -0.6380   -1.7380   -0.1680 O   0  0  0  0  0  0  0  0  0  0  0  0
   -1.8480   -1.1210   -0.5430 C   0  0  1  0  0  0  0  0  0  0  0  0
   -2.9930   -2.0510   -0.1130 C   0  0  0  0  0  0  0  0  0  0  0  0
   -4.1590   -1.0970    0.1120 C   0  0  0  0  0  0  0  0  0  0  0  0
   -3.5180    0.1350    0.8330 N   0  0  1  0  0  4  0  0  0  0  0  0
   -3.5990    0.0360    2.0910 O   0  0  0  0  0  0  0  0  0  0  0  0
   -2.0210    0.1560    0.3070 C   0  0  2  0  0  0  0  0  0  0  0  0
   -1.9260    1.4070   -0.5010 C   0  0  0  0  0  0  0  0  0  0  0  0
   -3.0580    2.1120   -0.5110 C   0  0  0  0  0  0  0  0  0  0  0  0
   -4.1370    1.4820    0.3020 C   0  0  0  0  0  0  0  0  0  0  0  0
   -0.6680    1.7680   -1.2080 C   0  0  0  0  0  0  0  0  0  0  0  0
    0.3740    1.5300   -0.2750 O   0  0  0  0  0  0  0  0  0  0  0  0
    1.6490    1.6840   -0.7090 C   0  0  0  0  0  0  0  0  0  0  0  0
    1.8740    2.0120   -1.8580 O   0  0  0  0  0  0  0  0  0  0  0  0
    2.6720    1.4380    0.3960 C   0  0  1  0  0  0  0  0  0  0  0  0
    3.1800   -0.0290    0.3420 C   0  0  1  0  0  0  0  0  0  0  0  0
    2.1070   -1.0460    0.8060 C   0  0  1  0  0  0  0  0  0  0  0  0
    1.6920   -1.9960   -0.2770 C   0  0  0  0  0  0  0  0  0  0  0  0
    2.3340   -3.1000   -0.6370 C   0  0  0  0  0  0  0  0  0  0  0  0
    2.6180   -1.8430    2.0080 C   0  0  0  0  0  0  0  0  0  0  0  0
    3.7210   -0.3220   -1.0510 C   0  0  0  0  0  0  0  0  0  0  0  0
    3.8250    2.4300    0.1830 C   0  0  0  0  0  0  0  0  0  0  0  0
    2.1210    1.6140    1.6610 O   0  0  0  0  0  0  0  0  0  0  0  0
   -1.9240   -0.9000   -1.6410 H   0  0  0  0  0  0  0  0  0  0  0  0
   -3.2190   -2.8220   -0.8740 H   0  0  0  0  0  0  0  0  0  0  0  0
   -2.7470   -2.6180    0.8090 H   0  0  0  0  0  0  0  0  0  0  0  0
   -4.9640   -1.5310    0.7410 H   0  0  0  0  0  0  0  0  0  0  0  0
   -4.6350   -0.8020   -0.8470 H   0  0  0  0  0  0  0  0  0  0  0  0
   -1.3250    0.1850    1.1880 H   0  0  0  0  0  0  0  0  0  0  0  0
   -3.2360    3.0590   -1.0160 H   0  0  0  0  0  0  0  0  0  0  0  0
   -5.0710    1.3150   -0.2720 H   0  0  0  0  0  0  0  0  0  0  0  0
   -4.4260    2.1250    1.1650 H   0  0  0  0  0  0  0  0  0  0  0  0
   -0.5430    1.1540   -2.1330 H   0  0  0  0  0  0  0  0  0  0  0  0
   -0.6620    2.8330   -1.5350 H   0  0  0  0  0  0  0  0  0  0  0  0
    4.0430   -0.0730    1.0600 H   0  0  0  0  0  0  0  0  0  0  0  0
    1.1870   -0.5030    1.1530 H   0  0  0  0  0  0  0  0  0  0  0  0
    3.2630   -3.4380   -0.1860 H   0  0  0  0  0  0  0  0  0  0  0  0
    1.9850   -3.7690   -1.4200 H   0  0  0  0  0  0  0  0  0  0  0  0
    3.5830   -2.3370    1.8280 H   0  0  0  0  0  0  0  0  0  0  0  0
    2.7550   -1.1970    2.8880 H   0  0  0  0  0  0  0  0  0  0  0  0
    1.9080   -2.6290    2.3040 H   0  0  0  0  0  0  0  0  0  0  0  0
    2.9400   -0.3910   -1.8230 H   0  0  0  0  0  0  0  0  0  0  0  0
    4.2750   -1.2710   -1.0770 H   0  0  0  0  0  0  0  0  0  0  0  0
    4.4250    0.4550   -1.3940 H   0  0  0  0  0  0  0  0  0  0  0  0
    4.5590    2.3740    0.9990 H   0  0  0  0  0  0  0  0  0  0  0  0
    3.4770    3.4720    0.1380 H   0  0  0  0  0  0  0  0  0  0  0  0
    4.3640    2.2340   -0.7570 H   0  0  0  0  0  0  0  0  0  0  0  0
    1.7570    2.5040    1.7160 H   0  0  0  0  0  0  0  0  0  0  0  0
  1  2  2  0
  2 20  1  0
  2  3  1  0
  3  4  1  0
  4 26  1  6
  4  5  1  0
  4  9  1  0
  5 27  1  0
  5  6  1  0
  5 28  1  0
  6 30  1  0
  6 29  1  0
  6  7  1  0
  7 12  1  0
  7  9  1  0
  7  8  1  1
  9 10  1  0
  9 31  1  1
 10 13  1  0
 10 11  2  0
 11 32  1  0
 11 12  1  0
 12 33  1  0
 12 34  1  0
 13 35  1  0
 13 36  1  0
 13 14  1  0
 14 15  1  0
 15 16  2  0
 15 17  1  0
 17 24  1  0
 17 18  1  0
 17 25  1  1
 18 23  1  0
 18 19  1  0
 18 37  1  1
 19 20  1  0
 19 38  1  1
 19 22  1  0
 20 21  2  0
 21 40  1  0
 21 39  1  0
 22 41  1  0
 22 43  1  0
 22 42  1  0
 23 44  1  0
 23 46  1  0
 23 45  1  0
 24 49  1  0
 24 48  1  0
 24 47  1  0
 25 50  1  0
M  END
>  <id>  (688) 
792

>  <scaffolds>  (688) 
['O=C1CCCCC(=O)OC2CCN3CC=C(CO1)C23', 'O=C1CCCCC(=O)OC2CC[NH+]3CC=C(CO1)C23', 'C=C1CCCC(=O)OCC2=CC[NH+]3CCC(OC1=O)C23', 'C=C1CCCC(=O)OCC2=CCN3CCC(OC1=O)C23', 'C1CCNC1']

>  <name>  (688) 
Senecivernine N-oxide

>  <formula>  (688) 
C18H25NO6

>  <SMILES>  (688) 
O=C1OC2CCN3(=O)C2C(=CC3)COC(=O)C(C(C(C1=C)C)C)(C)O

>  <ChEMBL_id>  (688) 


>  <ZINC_id>  (688) 


>  <PubChem_id>  (688) 


>  <DrugBank_id>  (688) 


>  <CAS_no>  (688) 
101687-28-9

>  <references>  (688) 
[{'journal': {'name': 'Phytochemistry', 'id': 10}, 'title': 'Diversity of pyrrolizidine alkaloids in native and invasive Senecio pterophorus (Asteraceae): Implications for toxicity', 'year': 2014, 'start_page': 137, 'volume': 108, 'issue': None, 'doi': '10.1016/j.phytochem.2014.09.006', 'isbn': '', 'despositor': {'code': 'AMU', 'first_name': 'Arnold', 'last_name': 'Amusengeri', 'id': 25}, 'refauthors_set': [{'author': {'first_name': 'Eva', 'initials': 'E', 'last_name': 'Castells', 'id': 929}, 'first_author': True, 'id': 1511}, {'author': {'first_name': 'Patrick', 'initials': 'PJ', 'last_name': 'Mulder', 'id': 930}, 'first_author': None, 'id': 1512}, {'author': {'first_name': 'Míriam', 'initials': 'M', 'last_name': 'Pérez-Trujillo', 'id': 931}, 'first_author': None, 'id': 1513}], 'id': 426}]

>  <classifications>  (688) 
[{'classification': 'Pyrrolizidine alkaloid', 'id': 875}]

>  <molecular_mass>  (688) 
351.39

$$$$
SANC00793_minRM1.pdb
     RDKit          3D

 56 57  0  0  1  0  0  0  0  0999 V2000
   -5.5030    0.2290   -1.3180 C   0  0  0  0  0  0  0  0  0  0  0  0
   -5.0040   -0.5320   -0.1500 N   0  0  0  0  0  0  0  0  0  0  0  0
   -3.9370   -1.4940   -0.5040 C   0  0  0  0  0  0  0  0  0  0  0  0
   -2.5610   -0.9180   -0.8670 C   0  0  0  0  0  0  0  0  0  0  0  0
   -1.6000   -0.8770    0.3250 C   0  0  1  0  0  0  0  0  0  0  0  0
   -0.2770   -0.7610   -0.1800 O   0  0  0  0  0  0  0  0  0  0  0  0
    0.3460   -1.9010   -0.5600 C   0  0  0  0  0  0  0  0  0  0  0  0
   -0.2010   -2.9800   -0.4430 O   0  0  0  0  0  0  0  0  0  0  0  0
    1.7260   -1.7230   -1.2080 C   0  0  1  0  0  0  0  0  0  0  0  0
    1.6560   -2.3370   -2.4680 O   0  0  0  0  0  0  0  0  0  0  0  0
    2.1840   -0.2650   -1.4020 C   0  0  0  0  0  0  0  0  0  0  0  0
    2.3540    0.5990   -0.1490 C   0  0  2  0  0  0  0  0  0  0  0  0
    1.8830    2.0570   -0.4190 C   0  0  2  0  0  0  0  0  0  0  0  0
    0.3660    2.0900   -0.6350 C   0  0  0  0  0  0  0  0  0  0  0  0
   -0.2580    1.8390   -1.6470 O   0  0  0  0  0  0  0  0  0  0  0  0
   -0.2700    2.5190    0.4830 O   0  0  0  0  0  0  0  0  0  0  0  0
   -1.6550    2.7690    0.4380 C   0  0  0  0  0  0  0  0  0  0  0  0
   -2.4510    1.5320    0.7130 C   0  0  0  0  0  0  0  0  0  0  0  0
   -3.7760    1.5260    0.5870 C   0  0  0  0  0  0  0  0  0  0  0  0
   -4.6310    0.3570    0.9740 C   0  0  0  0  0  0  0  0  0  0  0  0
   -1.7140    0.3610    1.2220 C   0  0  0  0  0  0  0  0  0  0  0  0
   -1.1980    0.3580    2.3190 O   0  0  0  0  0  0  0  0  0  0  0  0
    2.5380    2.6950   -1.6500 C   0  0  0  0  0  0  0  0  0  0  0  0
    2.2110    2.9080    0.6330 O   0  0  0  0  0  0  0  0  0  0  0  0
    3.8170    0.6440    0.2880 C   0  0  0  0  0  0  0  0  0  0  0  0
    2.6710   -2.6660   -0.4420 C   0  0  2  0  0  0  0  0  0  0  0  0
    2.5400   -2.1500    1.3370 Cl  0  0  0  0  0  0  0  0  0  0  0  0
    4.1120   -2.6040   -0.8540 C   0  0  0  0  0  0  0  0  0  0  0  0
   -4.7620    0.8340   -1.8730 H   0  0  0  0  0  0  0  0  0  0  0  0
   -6.3060    0.9190   -1.0050 H   0  0  0  0  0  0  0  0  0  0  0  0
   -5.9530   -0.4690   -2.0460 H   0  0  0  0  0  0  0  0  0  0  0  0
   -4.3130   -2.1140   -1.3520 H   0  0  0  0  0  0  0  0  0  0  0  0
   -3.8600   -2.2200    0.3400 H   0  0  0  0  0  0  0  0  0  0  0  0
   -2.1200   -1.5600   -1.6640 H   0  0  0  0  0  0  0  0  0  0  0  0
   -2.6320    0.0750   -1.3570 H   0  0  0  0  0  0  0  0  0  0  0  0
   -1.7290   -1.7880    0.9780 H   0  0  0  0  0  0  0  0  0  0  0  0
    1.0250   -1.8600   -3.0180 H   0  0  0  0  0  0  0  0  0  0  0  0
    1.4530    0.2000   -2.1000 H   0  0  0  0  0  0  0  0  0  0  0  0
    3.1300   -0.2750   -1.9890 H   0  0  0  0  0  0  0  0  0  0  0  0
    1.7520    0.1820    0.7000 H   0  0  0  0  0  0  0  0  0  0  0  0
   -1.9780    3.2630   -0.5070 H   0  0  0  0  0  0  0  0  0  0  0  0
   -1.7920    3.5060    1.2620 H   0  0  0  0  0  0  0  0  0  0  0  0
   -4.3090    2.4060    0.2070 H   0  0  0  0  0  0  0  0  0  0  0  0
   -4.1660   -0.2450    1.7890 H   0  0  0  0  0  0  0  0  0  0  0  0
   -5.5820    0.7300    1.4270 H   0  0  0  0  0  0  0  0  0  0  0  0
    2.2470    3.7510   -1.7610 H   0  0  0  0  0  0  0  0  0  0  0  0
    3.6350    2.6840   -1.5800 H   0  0  0  0  0  0  0  0  0  0  0  0
    2.2610    2.1940   -2.5860 H   0  0  0  0  0  0  0  0  0  0  0  0
    1.9320    2.5110    1.4670 H   0  0  0  0  0  0  0  0  0  0  0  0
    4.4720    1.1380   -0.4450 H   0  0  0  0  0  0  0  0  0  0  0  0
    3.9600    1.1730    1.2410 H   0  0  0  0  0  0  0  0  0  0  0  0
    4.2270   -0.3670    0.4490 H   0  0  0  0  0  0  0  0  0  0  0  0
    2.2860   -3.7150   -0.4520 H   0  0  0  0  0  0  0  0  0  0  0  0
    4.2240   -2.7420   -1.9410 H   0  0  0  0  0  0  0  0  0  0  0  0
    4.5980   -1.6510   -0.5890 H   0  0  0  0  0  0  0  0  0  0  0  0
    4.7050   -3.3930   -0.3660 H   0  0  0  0  0  0  0  0  0  0  0  0
  1 31  1  0
  1 29  1  0
  1 30  1  0
  1  2  1  0
  2  3  1  0
  2 20  1  0
  3 32  1  0
  3  4  1  0
  3 33  1  0
  4 34  1  0
  4 35  1  0
  4  5  1  0
  5  6  1  0
  5 36  1  1
  5 21  1  0
  6  7  1  0
  7  9  1  0
  7  8  2  0
  9 10  1  6
  9 11  1  0
  9 26  1  0
 10 37  1  0
 11 38  1  0
 11 39  1  0
 11 12  1  0
 12 13  1  0
 12 25  1  0
 12 40  1  1
 13 23  1  0
 13 14  1  0
 13 24  1  1
 14 15  2  0
 14 16  1  0
 16 17  1  0
 17 41  1  0
 17 18  1  0
 17 42  1  0
 18 19  2  0
 18 21  1  0
 19 43  1  0
 19 20  1  0
 20 45  1  0
 20 44  1  0
 21 22  2  0
 23 48  1  0
 23 46  1  0
 23 47  1  0
 24 49  1  0
 25 50  1  0
 25 52  1  0
 25 51  1  0
 26 28  1  0
 26 53  1  1
 26 27  1  0
 28 54  1  0
 28 55  1  0
 28 56  1  0
M  END
>  <id>  (689) 
793

>  <scaffolds>  (689) 
['O=C1CCCCC(=O)OC2CCNCC=C(CO1)C2=O']

>  <name>  (689) 
Desacetyldoronine

>  <formula>  (689) 
C19H28ClNO7

>  <SMILES>  (689) 
CN1CCC2OC(=O)C(O)(CC(C(C(=O)OCC(=CC1)C2=O)(C)O)C)C(Cl)C

>  <ChEMBL_id>  (689) 


>  <ZINC_id>  (689) 


>  <PubChem_id>  (689) 
91746997

>  <DrugBank_id>  (689) 


>  <CAS_no>  (689) 
120481-77-8

>  <references>  (689) 
[{'journal': {'name': 'Phytochemistry', 'id': 10}, 'title': 'Diversity of pyrrolizidine alkaloids in native and invasive Senecio pterophorus (Asteraceae): Implications for toxicity', 'year': 2014, 'start_page': 137, 'volume': 108, 'issue': None, 'doi': '10.1016/j.phytochem.2014.09.006', 'isbn': '', 'despositor': {'code': 'AMU', 'first_name': 'Arnold', 'last_name': 'Amusengeri', 'id': 25}, 'refauthors_set': [{'author': {'first_name': 'Eva', 'initials': 'E', 'last_name': 'Castells', 'id': 929}, 'first_author': True, 'id': 1511}, {'author': {'first_name': 'Patrick', 'initials': 'PJ', 'last_name': 'Mulder', 'id': 930}, 'first_author': None, 'id': 1512}, {'author': {'first_name': 'Míriam', 'initials': 'M', 'last_name': 'Pérez-Trujillo', 'id': 931}, 'first_author': None, 'id': 1513}], 'id': 426}]

>  <classifications>  (689) 
[{'classification': 'Pyrrolizidine alkaloid', 'id': 875}, {'classification': 'Macrolides and analogues (Classyfire)', 'id': 945}]

>  <molecular_mass>  (689) 
417.88

$$$$
SANC00794_minRM1.pdb
     RDKit          3D

 48 50  0  0  1  0  0  0  0  0999 V2000
    4.2300   -2.7210   -0.6860 C   0  0  0  0  0  0  0  0  0  0  0  0
    2.8590   -2.6740   -0.1260 C   0  0  0  0  0  0  0  0  0  0  0  0
    1.9940   -1.6820   -0.3730 C   0  0  0  0  0  0  0  0  0  0  0  0
    2.3040   -0.5040   -1.2350 C   0  0  0  0  0  0  0  0  0  0  0  0
    3.0940    0.5270   -0.4830 C   0  0  0  0  0  0  0  0  0  0  0  0
    4.3650    0.7700   -0.7850 C   0  0  0  0  0  0  0  0  0  0  0  0
    2.3430    1.2990    0.5780 C   0  0  2  0  0  0  0  0  0  0  0  0
    3.1760    2.3500    1.3200 C   0  0  0  0  0  0  0  0  0  0  0  0
    1.8410    0.3530    1.4640 O   0  0  0  0  0  0  0  0  0  0  0  0
    1.2300    2.0660   -0.1430 C   0  0  0  0  0  0  0  0  0  0  0  0
    1.3870    2.9400   -0.9720 O   0  0  0  0  0  0  0  0  0  0  0  0
   -0.0090    1.6990    0.2630 O   0  0  0  0  0  0  0  0  0  0  0  0
   -1.1160    2.3350   -0.3580 C   0  0  0  0  0  0  0  0  0  0  0  0
   -2.2920    1.4730   -0.0720 C   0  0  0  0  0  0  0  0  0  0  0  0
   -3.4150    1.8510    0.5410 C   0  0  0  0  0  0  0  0  0  0  0  0
   -4.4530    0.7810    0.5460 C   0  0  0  0  0  0  0  0  0  0  0  0
   -3.8580   -0.3610   -0.3700 N   0  0  1  0  0  4  0  0  0  0  0  0
   -4.4840   -0.4550   -1.4640 O   0  0  0  0  0  0  0  0  0  0  0  0
   -2.3430    0.0670   -0.5700 C   0  0  2  0  0  0  0  0  0  0  0  0
   -1.5280   -0.9030    0.3040 C   0  0  2  0  0  0  0  0  0  0  0  0
   -0.3140   -1.1120   -0.3810 O   0  0  0  0  0  0  0  0  0  0  0  0
    0.6810   -1.7520    0.2940 C   0  0  0  0  0  0  0  0  0  0  0  0
    0.4240   -2.3310    1.3370 O   0  0  0  0  0  0  0  0  0  0  0  0
   -2.3640   -2.1880    0.3620 C   0  0  0  0  0  0  0  0  0  0  0  0
   -3.8110   -1.7170    0.4100 C   0  0  0  0  0  0  0  0  0  0  0  0
    4.8340   -1.8660   -0.3430 H   0  0  0  0  0  0  0  0  0  0  0  0
    4.7750   -3.6280   -0.3870 H   0  0  0  0  0  0  0  0  0  0  0  0
    4.2360   -2.7040   -1.7870 H   0  0  0  0  0  0  0  0  0  0  0  0
    2.5800   -3.5120    0.5270 H   0  0  0  0  0  0  0  0  0  0  0  0
    1.3900   -0.0370   -1.6620 H   0  0  0  0  0  0  0  0  0  0  0  0
    2.8480   -0.8390   -2.1470 H   0  0  0  0  0  0  0  0  0  0  0  0
    4.8960    0.2500   -1.5790 H   0  0  0  0  0  0  0  0  0  0  0  0
    5.0050    1.5020   -0.3040 H   0  0  0  0  0  0  0  0  0  0  0  0
    4.0130    1.8900    1.8650 H   0  0  0  0  0  0  0  0  0  0  0  0
    2.5820    2.8990    2.0660 H   0  0  0  0  0  0  0  0  0  0  0  0
    3.5930    3.1080    0.6410 H   0  0  0  0  0  0  0  0  0  0  0  0
    1.3680    0.8050    2.1720 H   0  0  0  0  0  0  0  0  0  0  0  0
   -1.2290    3.3640    0.0530 H   0  0  0  0  0  0  0  0  0  0  0  0
   -0.9910    2.4430   -1.4620 H   0  0  0  0  0  0  0  0  0  0  0  0
   -3.6250    2.8220    0.9850 H   0  0  0  0  0  0  0  0  0  0  0  0
   -4.6650    0.4150    1.5730 H   0  0  0  0  0  0  0  0  0  0  0  0
   -5.4230    1.1330    0.1320 H   0  0  0  0  0  0  0  0  0  0  0  0
   -2.0770   -0.0030   -1.6570 H   0  0  0  0  0  0  0  0  0  0  0  0
   -1.3450   -0.4830    1.3280 H   0  0  0  0  0  0  0  0  0  0  0  0
   -2.1760   -2.8330   -0.5220 H   0  0  0  0  0  0  0  0  0  0  0  0
   -2.1050   -2.8210    1.2340 H   0  0  0  0  0  0  0  0  0  0  0  0
   -4.5130   -2.4430   -0.0550 H   0  0  0  0  0  0  0  0  0  0  0  0
   -4.1670   -1.5830    1.4540 H   0  0  0  0  0  0  0  0  0  0  0  0
  1 28  1  0
  1 27  1  0
  1 26  1  0
  1  2  1  0
  2  3  2  0
  2 29  1  0
  3  4  1  0
  3 22  1  0
  4 31  1  0
  4 30  1  0
  4  5  1  0
  5  6  2  0
  5  7  1  0
  6 32  1  0
  6 33  1  0
  7 10  1  0
  7  8  1  0
  7  9  1  1
  8 36  1  0
  8 34  1  0
  8 35  1  0
  9 37  1  0
 10 11  2  0
 10 12  1  0
 12 13  1  0
 13 39  1  0
 13 14  1  0
 13 38  1  0
 14 19  1  0
 14 15  2  0
 15 16  1  0
 15 40  1  0
 16 17  1  0
 16 42  1  0
 16 41  1  0
 17 18  1  6
 17 19  1  0
 17 25  1  0
 19 43  1  6
 19 20  1  0
 20 21  1  0
 20 24  1  0
 20 44  1  1
 21 22  1  0
 22 23  2  0
 24 45  1  0
 24 25  1  0
 24 46  1  0
 25 47  1  0
 25 48  1  0
M  END
>  <id>  (690) 
794

>  <scaffolds>  (690) 
['O=C1CCCCC(=O)OC2CCN3CC=C(CO1)C23', 'O=C1CCCCC(=O)OC2CC[NH+]3CC=C(CO1)C23', 'C=C1CCCC(=O)OCC2=CC[NH+]3CCC(OC1=O)C23', 'C=C1CCCC(=O)OCC2=CCN3CCC(OC1=O)C23', 'C1CCNC1']

>  <name>  (690) 
Spartioidine N-oxide

>  <formula>  (690) 
C18H23NO6

>  <SMILES>  (690) 
CC=C1CC(=C)C(C)(O)C(=O)OCC2=CCN3(=O)C2C(OC1=O)CC3

>  <ChEMBL_id>  (690) 


>  <ZINC_id>  (690) 


>  <PubChem_id>  (690) 


>  <DrugBank_id>  (690) 


>  <CAS_no>  (690) 
121123-61-3

>  <references>  (690) 
[{'journal': {'name': 'Phytochemistry', 'id': 10}, 'title': 'Diversity of pyrrolizidine alkaloids in native and invasive Senecio pterophorus (Asteraceae): Implications for toxicity', 'year': 2014, 'start_page': 137, 'volume': 108, 'issue': None, 'doi': '10.1016/j.phytochem.2014.09.006', 'isbn': '', 'despositor': {'code': 'AMU', 'first_name': 'Arnold', 'last_name': 'Amusengeri', 'id': 25}, 'refauthors_set': [{'author': {'first_name': 'Eva', 'initials': 'E', 'last_name': 'Castells', 'id': 929}, 'first_author': True, 'id': 1511}, {'author': {'first_name': 'Patrick', 'initials': 'PJ', 'last_name': 'Mulder', 'id': 930}, 'first_author': None, 'id': 1512}, {'author': {'first_name': 'Míriam', 'initials': 'M', 'last_name': 'Pérez-Trujillo', 'id': 931}, 'first_author': None, 'id': 1513}], 'id': 426}]

>  <classifications>  (690) 
[{'classification': 'Pyrrolizidine alkaloid', 'id': 875}]

>  <molecular_mass>  (690) 
349.38

$$$$
SANC00795_minRM1.pdb
     RDKit          3D

 53 55  0  0  1  0  0  0  0  0999 V2000
   -2.3900   -3.2360   -1.7110 C   0  0  0  0  0  0  0  0  0  0  0  0
   -0.9200   -3.2880   -1.5160 C   0  0  0  0  0  0  0  0  0  0  0  0
   -0.3230   -2.7040   -0.4770 C   0  0  0  0  0  0  0  0  0  0  0  0
    1.1500   -2.6720   -0.2500 C   0  0  0  0  0  0  0  0  0  0  0  0
    1.7520   -1.4530   -0.8870 C   0  0  0  0  0  0  0  0  0  0  0  0
    1.6720   -1.2790   -2.2020 C   0  0  0  0  0  0  0  0  0  0  0  0
    2.4710   -0.5110    0.0500 C   0  0  1  0  0  0  0  0  0  0  0  0
    3.5550   -1.2740    0.8180 C   0  0  0  0  0  0  0  0  0  0  0  0
    3.0560    0.5020   -0.7370 O   0  0  0  0  0  0  0  0  0  0  0  0
    3.7230    1.5310   -0.1410 C   0  0  0  0  0  0  0  0  0  0  0  0
    3.7660    1.6460    1.0650 O   0  0  0  0  0  0  0  0  0  0  0  0
    4.3300    2.4280   -1.1720 C   0  0  0  0  0  0  0  0  0  0  0  0
    1.4540    0.0800    1.0250 C   0  0  0  0  0  0  0  0  0  0  0  0
    1.1100   -0.4640    2.0530 O   0  0  0  0  0  0  0  0  0  0  0  0
    0.9420    1.3350    0.8390 O   0  0  0  0  0  0  0  0  0  0  0  0
    0.4990    1.6990   -0.4510 C   0  0  0  0  0  0  0  0  0  0  0  0
   -0.9160    2.1280   -0.3340 C   0  0  0  0  0  0  0  0  0  0  0  0
   -1.5690    3.0370   -1.0820 C   0  0  0  0  0  0  0  0  0  0  0  0
   -3.0600    2.9870   -0.8430 C   0  0  0  0  0  0  0  0  0  0  0  0
   -3.1800    1.5020   -0.3330 N   0  0  1  0  0  4  0  0  0  0  0  0
   -3.1410    0.7020   -1.3120 O   0  0  0  0  0  0  0  0  0  0  0  0
   -1.8860    1.5090    0.6040 C   0  0  1  0  0  0  0  0  0  0  0  0
   -1.9050    0.1170    1.2090 C   0  0  2  0  0  0  0  0  0  0  0  0
   -1.2470   -0.7070    0.2790 O   0  0  0  0  0  0  0  0  0  0  0  0
   -1.1270   -2.0280    0.5580 C   0  0  0  0  0  0  0  0  0  0  0  0
   -1.6390   -2.5160    1.5470 O   0  0  0  0  0  0  0  0  0  0  0  0
   -3.4360   -0.1680    1.3460 C   0  0  0  0  0  0  0  0  0  0  0  0
   -4.2070    1.0190    0.7180 C   0  0  0  0  0  0  0  0  0  0  0  0
   -2.7150   -3.7580   -2.6220 H   0  0  0  0  0  0  0  0  0  0  0  0
   -2.7510   -2.1960   -1.7950 H   0  0  0  0  0  0  0  0  0  0  0  0
   -2.9330   -3.6960   -0.8710 H   0  0  0  0  0  0  0  0  0  0  0  0
   -0.3390   -3.8300   -2.2700 H   0  0  0  0  0  0  0  0  0  0  0  0
    1.3760   -2.7430    0.8380 H   0  0  0  0  0  0  0  0  0  0  0  0
    1.6310   -3.5810   -0.6760 H   0  0  0  0  0  0  0  0  0  0  0  0
    2.0920   -0.4460   -2.7560 H   0  0  0  0  0  0  0  0  0  0  0  0
    1.1590   -1.9800   -2.8560 H   0  0  0  0  0  0  0  0  0  0  0  0
    3.1440   -2.1700    1.3110 H   0  0  0  0  0  0  0  0  0  0  0  0
    4.3570   -1.6080    0.1450 H   0  0  0  0  0  0  0  0  0  0  0  0
    4.0210   -0.6880    1.6220 H   0  0  0  0  0  0  0  0  0  0  0  0
    5.0790    1.8940   -1.7750 H   0  0  0  0  0  0  0  0  0  0  0  0
    4.8310    3.2880   -0.7010 H   0  0  0  0  0  0  0  0  0  0  0  0
    3.5730    2.8220   -1.8660 H   0  0  0  0  0  0  0  0  0  0  0  0
    1.1590    2.5270   -0.7980 H   0  0  0  0  0  0  0  0  0  0  0  0
    0.5480    0.8890   -1.2150 H   0  0  0  0  0  0  0  0  0  0  0  0
   -1.1510    3.6940   -1.8380 H   0  0  0  0  0  0  0  0  0  0  0  0
   -3.4170    3.7050   -0.0780 H   0  0  0  0  0  0  0  0  0  0  0  0
   -3.6590    3.1510   -1.7610 H   0  0  0  0  0  0  0  0  0  0  0  0
   -2.0220    2.2340    1.4580 H   0  0  0  0  0  0  0  0  0  0  0  0
   -1.3890    0.0610    2.2030 H   0  0  0  0  0  0  0  0  0  0  0  0
   -3.7150   -1.1150    0.8430 H   0  0  0  0  0  0  0  0  0  0  0  0
   -3.7170   -0.3060    2.4060 H   0  0  0  0  0  0  0  0  0  0  0  0
   -5.1600    0.7130    0.2410 H   0  0  0  0  0  0  0  0  0  0  0  0
   -4.4600    1.8190    1.4420 H   0  0  0  0  0  0  0  0  0  0  0  0
  1 29  1  0
  1 30  1  0
  1  2  1  0
  1 31  1  0
  2 32  1  0
  2  3  2  0
  3  4  1  0
  3 25  1  0
  4  5  1  0
  4 34  1  0
  4 33  1  0
  5  6  2  0
  5  7  1  0
  6 36  1  0
  6 35  1  0
  7  9  1  6
  7  8  1  0
  7 13  1  0
  8 38  1  0
  8 37  1  0
  8 39  1  0
  9 10  1  0
 10 12  1  0
 10 11  2  0
 12 42  1  0
 12 40  1  0
 12 41  1  0
 13 15  1  0
 13 14  2  0
 15 16  1  0
 16 44  1  0
 16 43  1  0
 16 17  1  0
 17 18  2  0
 17 22  1  0
 18 45  1  0
 18 19  1  0
 19 47  1  0
 19 20  1  0
 19 46  1  0
 20 21  1  6
 20 22  1  0
 20 28  1  0
 22 23  1  0
 22 48  1  1
 23 24  1  0
 23 27  1  0
 23 49  1  1
 24 25  1  0
 25 26  2  0
 27 28  1  0
 27 50  1  0
 27 51  1  0
 28 52  1  0
 28 53  1  0
M  END
>  <id>  (691) 
795

>  <scaffolds>  (691) 
['O=C1CCCCC(=O)OC2CCN3CC=C(CO1)C23', 'O=C1CCCCC(=O)OC2CC[NH+]3CC=C(CO1)C23', 'C=C1CCCC(=O)OCC2=CC[NH+]3CCC(OC1=O)C23', 'C=C1CCCC(=O)OCC2=CCN3CCC(OC1=O)C23', 'C1CCNC1']

>  <name>  (691) 
Acetylseneciphylline N-oxide

>  <formula>  (691) 
C20H25NO7

>  <SMILES>  (691) 
CC=C1CC(=C)[C@@](C)(OC(=O)C)C(=O)OCC2=CCN3(=O)[C@H]2[C@H](OC1=O)CC3

>  <ChEMBL_id>  (691) 


>  <ZINC_id>  (691) 


>  <PubChem_id>  (691) 


>  <DrugBank_id>  (691) 


>  <CAS_no>  (691) 
123844-00-8

>  <references>  (691) 
[{'journal': {'name': 'Phytochemistry', 'id': 10}, 'title': 'Diversity of pyrrolizidine alkaloids in native and invasive Senecio pterophorus (Asteraceae): Implications for toxicity', 'year': 2014, 'start_page': 137, 'volume': 108, 'issue': None, 'doi': '10.1016/j.phytochem.2014.09.006', 'isbn': '', 'despositor': {'code': 'AMU', 'first_name': 'Arnold', 'last_name': 'Amusengeri', 'id': 25}, 'refauthors_set': [{'author': {'first_name': 'Eva', 'initials': 'E', 'last_name': 'Castells', 'id': 929}, 'first_author': True, 'id': 1511}, {'author': {'first_name': 'Patrick', 'initials': 'PJ', 'last_name': 'Mulder', 'id': 930}, 'first_author': None, 'id': 1512}, {'author': {'first_name': 'Míriam', 'initials': 'M', 'last_name': 'Pérez-Trujillo', 'id': 931}, 'first_author': None, 'id': 1513}], 'id': 426}]

>  <classifications>  (691) 
[{'classification': 'Pyrrolizidine alkaloid', 'id': 875}]

>  <molecular_mass>  (691) 
391.41

$$$$
SANC00796_minRM1.pdb
     RDKit          3D

 55 56  0  0  1  0  0  0  0  0999 V2000
    4.5890   -2.4720    0.1170 C   0  0  0  0  0  0  0  0  0  0  0  0
    3.1340   -2.6470    0.3350 C   0  0  0  0  0  0  0  0  0  0  0  0
    2.2170   -1.7940   -0.1460 C   0  0  0  0  0  0  0  0  0  0  0  0
    2.5730   -0.6000   -0.9670 C   0  0  0  0  0  0  0  0  0  0  0  0
    3.2690    0.5140   -0.1710 C   0  0  1  0  0  0  0  0  0  0  0  0
    4.0060    1.4230   -1.1530 C   0  0  0  0  0  0  0  0  0  0  0  0
    2.2890    1.3020    0.7360 C   0  0  1  0  0  0  0  0  0  0  0  0
    1.7190    0.4090    1.8470 C   0  0  0  0  0  0  0  0  0  0  0  0
    3.0410    2.3410    1.2870 O   0  0  0  0  0  0  0  0  0  0  0  0
    1.1460    1.9350   -0.0710 C   0  0  0  0  0  0  0  0  0  0  0  0
    1.1090    2.1960   -1.2530 O   0  0  0  0  0  0  0  0  0  0  0  0
    0.1130    2.2910    0.7440 O   0  0  0  0  0  0  0  0  0  0  0  0
   -1.1400    2.6210    0.1850 C   0  0  0  0  0  0  0  0  0  0  0  0
   -2.0270    1.3660    0.2490 C   0  0  2  0  0  0  0  0  0  0  0  0
   -1.5180    0.3240   -0.7170 C   0  0  0  0  0  0  0  0  0  0  0  0
   -1.2930    0.5880   -1.8790 O   0  0  0  0  0  0  0  0  0  0  0  0
   -1.3480   -1.1080   -0.1970 C   0  0  2  0  0  0  0  0  0  0  0  0
   -0.0730   -1.4630   -0.6990 O   0  0  0  0  0  0  0  0  0  0  0  0
    0.8010   -2.0940    0.1350 C   0  0  0  0  0  0  0  0  0  0  0  0
    0.3720   -2.8390    1.0010 O   0  0  0  0  0  0  0  0  0  0  0  0
   -2.4140   -2.0050   -0.8350 C   0  0  0  0  0  0  0  0  0  0  0  0
   -3.7410   -1.9580   -0.0610 C   0  0  0  0  0  0  0  0  0  0  0  0
   -3.9920   -0.6080    0.5130 N   0  0  0  0  0  0  0  0  0  0  0  0
   -5.0740   -0.6480    1.5250 C   0  0  0  0  0  0  0  0  0  0  0  0
   -4.2640    0.4330   -0.5170 C   0  0  0  0  0  0  0  0  0  0  0  0
   -3.4690    1.6990   -0.1470 C   0  0  0  0  0  0  0  0  0  0  0  0
    4.9330   -1.4610    0.3990 H   0  0  0  0  0  0  0  0  0  0  0  0
    5.1930   -3.1840    0.6980 H   0  0  0  0  0  0  0  0  0  0  0  0
    4.8580   -2.6180   -0.9410 H   0  0  0  0  0  0  0  0  0  0  0  0
    2.8370   -3.5330    0.9130 H   0  0  0  0  0  0  0  0  0  0  0  0
    1.7080   -0.1960   -1.5330 H   0  0  0  0  0  0  0  0  0  0  0  0
    3.2480   -0.9430   -1.7860 H   0  0  0  0  0  0  0  0  0  0  0  0
    4.0410    0.0560    0.5080 H   0  0  0  0  0  0  0  0  0  0  0  0
    4.4420    2.3130   -0.6770 H   0  0  0  0  0  0  0  0  0  0  0  0
    4.8490    0.8950   -1.6240 H   0  0  0  0  0  0  0  0  0  0  0  0
    3.3750    1.7840   -1.9770 H   0  0  0  0  0  0  0  0  0  0  0  0
    2.4450   -0.3350    2.2020 H   0  0  0  0  0  0  0  0  0  0  0  0
    0.8190   -0.1330    1.5320 H   0  0  0  0  0  0  0  0  0  0  0  0
    1.4080    0.9830    2.7350 H   0  0  0  0  0  0  0  0  0  0  0  0
    2.4900    2.8190    1.9170 H   0  0  0  0  0  0  0  0  0  0  0  0
   -1.5270    3.4210    0.8510 H   0  0  0  0  0  0  0  0  0  0  0  0
   -1.0940    3.0520   -0.8400 H   0  0  0  0  0  0  0  0  0  0  0  0
   -2.0150    0.9720    1.2980 H   0  0  0  0  0  0  0  0  0  0  0  0
   -1.4100   -1.1620    0.9230 H   0  0  0  0  0  0  0  0  0  0  0  0
   -2.5520   -1.7500   -1.9070 H   0  0  0  0  0  0  0  0  0  0  0  0
   -2.0530   -3.0570   -0.8630 H   0  0  0  0  0  0  0  0  0  0  0  0
   -4.5660   -2.3360   -0.7130 H   0  0  0  0  0  0  0  0  0  0  0  0
   -3.6920   -2.6860    0.7830 H   0  0  0  0  0  0  0  0  0  0  0  0
   -5.2450    0.3620    1.9340 H   0  0  0  0  0  0  0  0  0  0  0  0
   -4.7740   -1.2840    2.3760 H   0  0  0  0  0  0  0  0  0  0  0  0
   -6.0530   -1.0240    1.1700 H   0  0  0  0  0  0  0  0  0  0  0  0
   -5.3460    0.6920   -0.6250 H   0  0  0  0  0  0  0  0  0  0  0  0
   -3.9860    0.0950   -1.5430 H   0  0  0  0  0  0  0  0  0  0  0  0
   -3.4930    2.4020   -1.0070 H   0  0  0  0  0  0  0  0  0  0  0  0
   -3.9650    2.2450    0.6820 H   0  0  0  0  0  0  0  0  0  0  0  0
  1 29  1  0
  1  2  1  0
  1 27  1  0
  1 28  1  0
  2  3  2  0
  2 30  1  0
  3  4  1  0
  3 19  1  0
  4 32  1  0
  4 31  1  0
  4  5  1  0
  5  6  1  0
  5 33  1  1
  5  7  1  0
  6 36  1  0
  6 35  1  0
  6 34  1  0
  7 10  1  0
  7  9  1  1
  7  8  1  0
  8 38  1  0
  8 37  1  0
  8 39  1  0
  9 40  1  0
 10 11  2  0
 10 12  1  0
 12 13  1  0
 13 42  1  0
 13 14  1  0
 13 41  1  0
 14 15  1  0
 14 26  1  0
 14 43  1  1
 15 16  2  0
 15 17  1  0
 17 21  1  0
 17 18  1  0
 17 44  1  1
 18 19  1  0
 19 20  2  0
 21 45  1  0
 21 46  1  0
 21 22  1  0
 22 47  1  0
 22 23  1  0
 22 48  1  0
 23 25  1  0
 23 24  1  0
 24 51  1  0
 24 49  1  0
 24 50  1  0
 25 53  1  0
 25 52  1  0
 25 26  1  0
 26 54  1  0
 26 55  1  0
M  END
>  <id>  (692) 
796

>  <scaffolds>  (692) 
[]

>  <name>  (692) 
1,2-Dihydrosenkirkine

>  <formula>  (692) 
C19H29NO6

>  <SMILES>  (692) 
CC=C1C[C@@H](C)[C@@](C)(O)C(=O)OC[C@@H]2C(=O)[C@H](OC1=O)CCN(C)CC2

>  <ChEMBL_id>  (692) 


>  <ZINC_id>  (692) 


>  <PubChem_id>  (692) 


>  <DrugBank_id>  (692) 


>  <CAS_no>  (692) 
135574-55-9

>  <references>  (692) 
[{'journal': {'name': 'Phytochemistry', 'id': 10}, 'title': 'Diversity of pyrrolizidine alkaloids in native and invasive Senecio pterophorus (Asteraceae): Implications for toxicity', 'year': 2014, 'start_page': 137, 'volume': 108, 'issue': None, 'doi': '10.1016/j.phytochem.2014.09.006', 'isbn': '', 'despositor': {'code': 'AMU', 'first_name': 'Arnold', 'last_name': 'Amusengeri', 'id': 25}, 'refauthors_set': [{'author': {'first_name': 'Eva', 'initials': 'E', 'last_name': 'Castells', 'id': 929}, 'first_author': True, 'id': 1511}, {'author': {'first_name': 'Patrick', 'initials': 'PJ', 'last_name': 'Mulder', 'id': 930}, 'first_author': None, 'id': 1512}, {'author': {'first_name': 'Míriam', 'initials': 'M', 'last_name': 'Pérez-Trujillo', 'id': 931}, 'first_author': None, 'id': 1513}], 'id': 426}]

>  <classifications>  (692) 
[{'classification': 'Pyrrolizidine alkaloid', 'id': 875}, {'classification': 'Macrolides and analogues (Classyfire)', 'id': 945}]

>  <molecular_mass>  (692) 
367.44

$$$$
SANC00797_minRM1.pdb
     RDKit          3D

 50 52  0  0  1  0  0  0  0  0999 V2000
    4.4630   -2.1980   -0.9260 O   0  0  0  0  0  0  0  0  0  0  0  0
    3.3410   -1.7960   -1.6510 C   0  0  0  0  0  0  0  0  0  0  0  0
    2.0920   -1.8960   -0.8240 C   0  0  0  0  0  0  0  0  0  0  0  0
    1.8430   -1.1380    0.2420 C   0  0  0  0  0  0  0  0  0  0  0  0
    2.7370   -0.0810    0.8170 C   0  0  0  0  0  0  0  0  0  0  0  0
    2.3160    1.3930    0.5840 C   0  0  1  0  0  0  0  0  0  0  0  0
    3.1610    2.0420   -0.5030 C   0  0  0  0  0  0  0  0  0  0  0  0
    0.8060    1.4810    0.2640 C   0  0  1  0  0  0  0  0  0  0  0  0
    0.5350    0.9790   -1.1610 C   0  0  0  0  0  0  0  0  0  0  0  0
    0.1110    0.7380    1.2230 O   0  0  0  0  0  0  0  0  0  0  0  0
    0.2070    2.8860    0.3340 C   0  0  0  0  0  0  0  0  0  0  0  0
    0.8280    3.9210    0.4580 O   0  0  0  0  0  0  0  0  0  0  0  0
   -1.1380    3.0530    0.1440 O   0  0  0  0  0  0  0  0  0  0  0  0
   -2.0750    2.1460    0.6780 C   0  0  0  0  0  0  0  0  0  0  0  0
   -2.3360    0.9510   -0.1690 C   0  0  0  0  0  0  0  0  0  0  0  0
   -2.4890    0.9540   -1.4980 C   0  0  0  0  0  0  0  0  0  0  0  0
   -2.9980   -0.3740   -1.9880 C   0  0  0  0  0  0  0  0  0  0  0  0
   -3.4330   -1.0890   -0.7440 N   0  0  0  0  0  0  0  0  0  0  0  0
   -2.7760   -0.3690    0.4090 C   0  0  1  0  0  0  0  0  0  0  0  0
   -1.7640   -1.3680    1.0410 C   0  0  2  0  0  0  0  0  0  0  0  0
   -0.5360   -1.3530    0.3400 O   0  0  0  0  0  0  0  0  0  0  0  0
    0.6240   -1.4170    1.0480 C   0  0  0  0  0  0  0  0  0  0  0  0
    0.6290   -1.7100    2.2320 O   0  0  0  0  0  0  0  0  0  0  0  0
   -2.4130   -2.7290    0.7250 C   0  0  0  0  0  0  0  0  0  0  0  0
   -3.0440   -2.5260   -0.6600 C   0  0  0  0  0  0  0  0  0  0  0  0
    4.3200   -3.1040   -0.6340 H   0  0  0  0  0  0  0  0  0  0  0  0
    3.5670   -0.7520   -1.9600 H   0  0  0  0  0  0  0  0  0  0  0  0
    3.2330   -2.3720   -2.6010 H   0  0  0  0  0  0  0  0  0  0  0  0
    1.3720   -2.6580   -1.1450 H   0  0  0  0  0  0  0  0  0  0  0  0
    2.8170   -0.2670    1.9130 H   0  0  0  0  0  0  0  0  0  0  0  0
    3.7810   -0.2260    0.4650 H   0  0  0  0  0  0  0  0  0  0  0  0
    2.5100    1.9630    1.5320 H   0  0  0  0  0  0  0  0  0  0  0  0
    3.0670    1.5320   -1.4750 H   0  0  0  0  0  0  0  0  0  0  0  0
    2.8930    3.0950   -0.6730 H   0  0  0  0  0  0  0  0  0  0  0  0
    4.2300    2.0370   -0.2450 H   0  0  0  0  0  0  0  0  0  0  0  0
    1.4530    0.6400   -1.6700 H   0  0  0  0  0  0  0  0  0  0  0  0
    0.1280    1.7680   -1.8120 H   0  0  0  0  0  0  0  0  0  0  0  0
   -0.1630    0.1370   -1.2290 H   0  0  0  0  0  0  0  0  0  0  0  0
    0.4290    0.9990    2.0980 H   0  0  0  0  0  0  0  0  0  0  0  0
   -2.9950    2.7810    0.6920 H   0  0  0  0  0  0  0  0  0  0  0  0
   -1.8810    1.8930    1.7430 H   0  0  0  0  0  0  0  0  0  0  0  0
   -2.3180    1.7790   -2.1840 H   0  0  0  0  0  0  0  0  0  0  0  0
   -2.2300   -0.8910   -2.6100 H   0  0  0  0  0  0  0  0  0  0  0  0
   -3.8880   -0.2630   -2.6450 H   0  0  0  0  0  0  0  0  0  0  0  0
   -3.5740   -0.1800    1.1770 H   0  0  0  0  0  0  0  0  0  0  0  0
   -1.6570   -1.1720    2.1370 H   0  0  0  0  0  0  0  0  0  0  0  0
   -1.6920   -3.5680    0.7460 H   0  0  0  0  0  0  0  0  0  0  0  0
   -3.1720   -2.9880    1.4900 H   0  0  0  0  0  0  0  0  0  0  0  0
   -2.3530   -2.8720   -1.4630 H   0  0  0  0  0  0  0  0  0  0  0  0
   -3.9690   -3.1260   -0.7970 H   0  0  0  0  0  0  0  0  0  0  0  0
  1  2  1  0
  1 26  1  0
  2 28  1  0
  2 27  1  0
  2  3  1  0
  3 29  1  0
  3  4  2  0
  4  5  1  0
  4 22  1  0
  5 31  1  0
  5  6  1  0
  5 30  1  0
  6  7  1  0
  6  8  1  0
  6 32  1  1
  7 33  1  0
  7 34  1  0
  7 35  1  0
  8  9  1  0
  8 11  1  0
  8 10  1  1
  9 37  1  0
  9 36  1  0
  9 38  1  0
 10 39  1  0
 11 13  1  0
 11 12  2  0
 13 14  1  0
 14 15  1  0
 14 40  1  0
 14 41  1  0
 15 16  2  0
 15 19  1  0
 16 42  1  0
 16 17  1  0
 17 44  1  0
 17 43  1  0
 18 17  1  0
 18 25  1  0
 18 19  1  0
 19 20  1  0
 19 45  1  1
 20 21  1  0
 20 24  1  0
 20 46  1  1
 21 22  1  0
 22 23  2  0
 24 25  1  0
 24 47  1  0
 24 48  1  0
 25 49  1  0
 25 50  1  0
M  END
>  <id>  (693) 
797

>  <scaffolds>  (693) 
['O=C1CCCCC(=O)OC2CCN3CC=C(CO1)C23', 'C=C1CCCC(=O)OCC2=CCN3CCC(OC1=O)C23', 'C1CCNC1']

>  <name>  (693) 
Eruciflorine

>  <formula>  (693) 
C18H25NO6

>  <SMILES>  (693) 
OCC=C1C[C@@H](C)[C@@](C)(O)C(=O)OCC2=CCN3[C@H]2[C@H](OC1=O)CC3

>  <ChEMBL_id>  (693) 


>  <ZINC_id>  (693) 


>  <PubChem_id>  (693) 
14825842

>  <DrugBank_id>  (693) 


>  <CAS_no>  (693) 
135626-66-3

>  <references>  (693) 
[{'journal': {'name': 'Phytochemistry', 'id': 10}, 'title': 'Diversity of pyrrolizidine alkaloids in native and invasive Senecio pterophorus (Asteraceae): Implications for toxicity', 'year': 2014, 'start_page': 137, 'volume': 108, 'issue': None, 'doi': '10.1016/j.phytochem.2014.09.006', 'isbn': '', 'despositor': {'code': 'AMU', 'first_name': 'Arnold', 'last_name': 'Amusengeri', 'id': 25}, 'refauthors_set': [{'author': {'first_name': 'Eva', 'initials': 'E', 'last_name': 'Castells', 'id': 929}, 'first_author': True, 'id': 1511}, {'author': {'first_name': 'Patrick', 'initials': 'PJ', 'last_name': 'Mulder', 'id': 930}, 'first_author': None, 'id': 1512}, {'author': {'first_name': 'Míriam', 'initials': 'M', 'last_name': 'Pérez-Trujillo', 'id': 931}, 'first_author': None, 'id': 1513}], 'id': 426}]

>  <classifications>  (693) 
[{'classification': 'Pyrrolizidine alkaloid', 'id': 875}, {'classification': 'Macrolides and analogues (Classyfire)', 'id': 945}]

>  <molecular_mass>  (693) 
351.39

$$$$
SANC00798_minRM1.pdb
     RDKit          3D

 53 55  0  0  1  0  0  0  0  0999 V2000
    2.6710    3.8180    0.0760 C   0  0  0  0  0  0  0  0  0  0  0  0
    1.5060    3.1020    0.6460 C   0  0  0  0  0  0  0  0  0  0  0  0
    1.4900    1.7890    0.8810 C   0  0  0  0  0  0  0  0  0  0  0  0
    2.6370    0.8570    0.6620 C   0  0  0  0  0  0  0  0  0  0  0  0
    2.6320    0.2470   -0.7530 C   0  0  1  0  0  0  0  0  0  0  0  0
    3.7380    0.8490   -1.6100 C   0  0  0  0  0  0  0  0  0  0  0  0
    2.7910   -1.2920   -0.6850 C   0  0  1  0  0  0  0  0  0  0  0  0
    2.7490   -1.9570   -2.0620 C   0  0  0  0  0  0  0  0  0  0  0  0
    4.0020   -1.5270   -0.0440 O   0  0  0  0  0  0  0  0  0  0  0  0
    1.6590   -1.8980    0.1470 C   0  0  0  0  0  0  0  0  0  0  0  0
    1.7870   -2.6670    1.0800 O   0  0  0  0  0  0  0  0  0  0  0  0
    0.4340   -1.5180   -0.2870 O   0  0  0  0  0  0  0  0  0  0  0  0
   -0.6830   -1.8800    0.5060 C   0  0  0  0  0  0  0  0  0  0  0  0
   -1.9150   -1.4620   -0.2990 C   0  0  2  0  0  0  0  0  0  0  0  0
   -1.8800   -0.0810   -0.9550 C   0  0  2  0  0  0  0  0  0  0  0  0
   -0.9280    1.0170   -0.4520 C   0  0  2  0  0  0  0  0  0  0  0  0
   -0.8640    0.9530    0.9490 O   0  0  0  0  0  0  0  0  0  0  0  0
    0.3250    1.2030    1.5800 C   0  0  0  0  0  0  0  0  0  0  0  0
    0.3050    0.9210    2.7630 O   0  0  0  0  0  0  0  0  0  0  0  0
   -1.6480    2.3270   -0.8330 C   0  0  0  0  0  0  0  0  0  0  0  0
   -3.1420    2.0550   -0.6910 C   0  0  0  0  0  0  0  0  0  0  0  0
   -3.3210    0.5070   -0.7380 N   0  0  1  0  0  4  0  0  0  0  0  0
   -4.1330    0.1330   -1.6430 O   0  0  0  0  0  0  0  0  0  0  0  0
   -3.7140   -0.0620    0.6510 C   0  0  0  0  0  0  0  0  0  0  0  0
   -3.1750   -1.5020    0.6180 C   0  0  1  0  0  0  0  0  0  0  0  0
   -4.1170   -2.4070    0.1560 O   0  0  0  0  0  0  0  0  0  0  0  0
    2.4170    4.8320   -0.2650 H   0  0  0  0  0  0  0  0  0  0  0  0
    3.1130    3.2960   -0.7910 H   0  0  0  0  0  0  0  0  0  0  0  0
    3.4710    3.9270    0.8260 H   0  0  0  0  0  0  0  0  0  0  0  0
    0.6440    3.7300    0.9070 H   0  0  0  0  0  0  0  0  0  0  0  0
    2.6290    0.0750    1.4530 H   0  0  0  0  0  0  0  0  0  0  0  0
    3.5980    1.3810    0.8640 H   0  0  0  0  0  0  0  0  0  0  0  0
    1.6470    0.4650   -1.2520 H   0  0  0  0  0  0  0  0  0  0  0  0
    4.7450    0.5770   -1.2640 H   0  0  0  0  0  0  0  0  0  0  0  0
    3.6920    1.9520   -1.6100 H   0  0  0  0  0  0  0  0  0  0  0  0
    3.6680    0.5460   -2.6640 H   0  0  0  0  0  0  0  0  0  0  0  0
    1.9010   -1.6020   -2.6640 H   0  0  0  0  0  0  0  0  0  0  0  0
    3.6660   -1.7680   -2.6390 H   0  0  0  0  0  0  0  0  0  0  0  0
    2.6510   -3.0510   -1.9930 H   0  0  0  0  0  0  0  0  0  0  0  0
    4.1190   -2.4780    0.0630 H   0  0  0  0  0  0  0  0  0  0  0  0
   -0.7120   -2.9790    0.6980 H   0  0  0  0  0  0  0  0  0  0  0  0
   -0.6150   -1.4070    1.5120 H   0  0  0  0  0  0  0  0  0  0  0  0
   -2.0310   -2.2130   -1.1280 H   0  0  0  0  0  0  0  0  0  0  0  0
   -1.7020   -0.1930   -2.0590 H   0  0  0  0  0  0  0  0  0  0  0  0
    0.0770    0.9310   -0.9490 H   0  0  0  0  0  0  0  0  0  0  0  0
   -1.3280    3.1840   -0.2100 H   0  0  0  0  0  0  0  0  0  0  0  0
   -1.3870    2.6180   -1.8710 H   0  0  0  0  0  0  0  0  0  0  0  0
   -3.5610    2.4700    0.2500 H   0  0  0  0  0  0  0  0  0  0  0  0
   -3.7370    2.5240   -1.5050 H   0  0  0  0  0  0  0  0  0  0  0  0
   -4.8150   -0.0100    0.7930 H   0  0  0  0  0  0  0  0  0  0  0  0
   -3.2630    0.5200    1.4810 H   0  0  0  0  0  0  0  0  0  0  0  0
   -2.9530   -1.8770    1.6500 H   0  0  0  0  0  0  0  0  0  0  0  0
   -4.4640   -2.1060   -0.6940 H   0  0  0  0  0  0  0  0  0  0  0  0
  1 28  1  0
  1 27  1  0
  1  2  1  0
  1 29  1  0
  2  3  2  0
  2 30  1  0
  3  4  1  0
  3 18  1  0
  4  5  1  0
  4 32  1  0
  4 31  1  0
  5  6  1  0
  5 33  1  6
  5  7  1  0
  6 36  1  0
  6 35  1  0
  6 34  1  0
  7  8  1  0
  7  9  1  1
  7 10  1  0
  8 37  1  0
  8 38  1  0
  8 39  1  0
  9 40  1  0
 10 12  1  0
 10 11  2  0
 12 13  1  0
 13 14  1  0
 13 41  1  0
 13 42  1  0
 14 43  1  6
 14 15  1  0
 14 25  1  0
 15 44  1  6
 15 22  1  0
 15 16  1  0
 16 45  1  6
 16 20  1  0
 16 17  1  0
 17 18  1  0
 18 19  2  0
 20 47  1  0
 20 21  1  0
 20 46  1  0
 21 49  1  0
 21 22  1  0
 21 48  1  0
 22 23  1  6
 22 24  1  0
 24 25  1  0
 24 50  1  0
 24 51  1  0
 25 26  1  0
 25 52  1  1
 26 53  1  0
M  END
>  <id>  (694) 
798

>  <scaffolds>  (694) 
['C1CC2CCCN2C1', 'C1CC2CCC[NH+]2C1', 'C1CCNC1']

>  <name>  (694) 
Rosmarinine N-oxide

>  <formula>  (694) 
C18H27NO7

>  <SMILES>  (694) 
CC=C1C[C@@H](C)[C@@](C)(O)C(=O)OC[C@@H]2[C@@H]3[C@H](OC1=O)CCN3(=O)C[C@H]2O

>  <ChEMBL_id>  (694) 


>  <ZINC_id>  (694) 


>  <PubChem_id>  (694) 


>  <DrugBank_id>  (694) 


>  <CAS_no>  (694) 
149415-56-5

>  <references>  (694) 
[{'journal': {'name': 'Phytochemistry', 'id': 10}, 'title': 'Diversity of pyrrolizidine alkaloids in native and invasive Senecio pterophorus (Asteraceae): Implications for toxicity', 'year': 2014, 'start_page': 137, 'volume': 108, 'issue': None, 'doi': '10.1016/j.phytochem.2014.09.006', 'isbn': '', 'despositor': {'code': 'AMU', 'first_name': 'Arnold', 'last_name': 'Amusengeri', 'id': 25}, 'refauthors_set': [{'author': {'first_name': 'Eva', 'initials': 'E', 'last_name': 'Castells', 'id': 929}, 'first_author': True, 'id': 1511}, {'author': {'first_name': 'Patrick', 'initials': 'PJ', 'last_name': 'Mulder', 'id': 930}, 'first_author': None, 'id': 1512}, {'author': {'first_name': 'Míriam', 'initials': 'M', 'last_name': 'Pérez-Trujillo', 'id': 931}, 'first_author': None, 'id': 1513}], 'id': 426}]

>  <classifications>  (694) 
[{'classification': 'Pyrrolizidine alkaloid', 'id': 875}, {'classification': 'Pyrrolizidines (Classyfire)', 'id': 944}]

>  <molecular_mass>  (694) 
369.41

$$$$
SANC00799_minRM1.pdb
     RDKit          3D

 52 54  0  0  1  0  0  0  0  0999 V2000
    0.1930    4.5300   -1.0870 C   0  0  0  0  0  0  0  0  0  0  0  0
   -0.7980    3.4510   -0.8580 C   0  0  0  0  0  0  0  0  0  0  0  0
   -0.5480    2.3640   -0.1220 C   0  0  0  0  0  0  0  0  0  0  0  0
   -1.5690    1.3030    0.1250 C   0  0  0  0  0  0  0  0  0  0  0  0
   -1.5960    0.2570   -0.9440 C   0  0  0  0  0  0  0  0  0  0  0  0
   -1.1220    0.4620   -2.1680 C   0  0  0  0  0  0  0  0  0  0  0  0
   -2.1600   -1.0900   -0.5690 C   0  0  2  0  0  0  0  0  0  0  0  0
   -2.9200   -1.7700   -1.7100 C   0  0  0  0  0  0  0  0  0  0  0  0
   -2.9660   -1.0580    0.5910 O   0  0  0  0  0  0  0  0  0  0  0  0
   -4.1380   -0.3710    0.5830 C   0  0  0  0  0  0  0  0  0  0  0  0
   -4.5100    0.2500   -0.3920 O   0  0  0  0  0  0  0  0  0  0  0  0
   -4.8360   -0.5070    1.8980 C   0  0  0  0  0  0  0  0  0  0  0  0
   -0.9850   -1.9710   -0.1250 C   0  0  0  0  0  0  0  0  0  0  0  0
   -0.5760   -2.9690   -0.6860 O   0  0  0  0  0  0  0  0  0  0  0  0
   -0.4250   -1.5230    1.0190 O   0  0  0  0  0  0  0  0  0  0  0  0
    0.7370   -2.1790    1.4870 C   0  0  0  0  0  0  0  0  0  0  0  0
    1.8890   -1.9430    0.5860 C   0  0  0  0  0  0  0  0  0  0  0  0
    2.3290   -2.7270   -0.4120 C   0  0  0  0  0  0  0  0  0  0  0  0
    3.5410   -2.1160   -1.0950 C   0  0  0  0  0  0  0  0  0  0  0  0
    3.4020   -0.7200   -0.6340 N   0  0  0  0  0  0  0  0  0  0  0  0
    2.8380   -0.7910    0.7460 C   0  0  1  0  0  0  0  0  0  0  0  0
    2.5140    0.6890    0.9940 C   0  0  2  0  0  0  0  0  0  0  0  0
    1.2690    0.9500    0.3870 O   0  0  0  0  0  0  0  0  0  0  0  0
    0.7600    2.1980    0.5330 C   0  0  0  0  0  0  0  0  0  0  0  0
    1.3680    3.0490    1.1640 O   0  0  0  0  0  0  0  0  0  0  0  0
    3.6850    1.4100    0.2560 C   0  0  0  0  0  0  0  0  0  0  0  0
    4.4070    0.3430   -0.6160 C   0  0  0  0  0  0  0  0  0  0  0  0
    0.2880    5.1710   -0.1950 H   0  0  0  0  0  0  0  0  0  0  0  0
    1.2020    4.1490   -1.3080 H   0  0  0  0  0  0  0  0  0  0  0  0
   -0.0850    5.1850   -1.9250 H   0  0  0  0  0  0  0  0  0  0  0  0
   -1.7820    3.5880   -1.3240 H   0  0  0  0  0  0  0  0  0  0  0  0
   -2.5750    1.7740    0.2060 H   0  0  0  0  0  0  0  0  0  0  0  0
   -1.3890    0.8450    1.1230 H   0  0  0  0  0  0  0  0  0  0  0  0
   -1.1110   -0.2790   -2.9610 H   0  0  0  0  0  0  0  0  0  0  0  0
   -0.6790    1.3980   -2.4960 H   0  0  0  0  0  0  0  0  0  0  0  0
   -3.5660   -2.5830   -1.3450 H   0  0  0  0  0  0  0  0  0  0  0  0
   -3.5590   -1.0680   -2.2640 H   0  0  0  0  0  0  0  0  0  0  0  0
   -2.2460   -2.2280   -2.4490 H   0  0  0  0  0  0  0  0  0  0  0  0
   -5.7940    0.0340    1.8970 H   0  0  0  0  0  0  0  0  0  0  0  0
   -5.0470   -1.5600    2.1360 H   0  0  0  0  0  0  0  0  0  0  0  0
   -4.2250   -0.1060    2.7210 H   0  0  0  0  0  0  0  0  0  0  0  0
    0.5580   -3.2680    1.6450 H   0  0  0  0  0  0  0  0  0  0  0  0
    0.8820   -1.7170    2.4870 H   0  0  0  0  0  0  0  0  0  0  0  0
    1.9090   -3.6680   -0.7560 H   0  0  0  0  0  0  0  0  0  0  0  0
    4.4820   -2.6410   -0.8050 H   0  0  0  0  0  0  0  0  0  0  0  0
    3.4920   -2.1630   -2.2020 H   0  0  0  0  0  0  0  0  0  0  0  0
    3.5740   -1.0950    1.5520 H   0  0  0  0  0  0  0  0  0  0  0  0
    2.4800    0.9450    2.0830 H   0  0  0  0  0  0  0  0  0  0  0  0
    4.3790    1.8720    0.9830 H   0  0  0  0  0  0  0  0  0  0  0  0
    3.3260    2.2500   -0.3680 H   0  0  0  0  0  0  0  0  0  0  0  0
    4.6120    0.6900   -1.6510 H   0  0  0  0  0  0  0  0  0  0  0  0
    5.4030    0.0670   -0.1960 H   0  0  0  0  0  0  0  0  0  0  0  0
  1 30  1  0
  1 29  1  0
  1  2  1  0
  1 28  1  0
  2 31  1  0
  2  3  2  0
  3  4  1  0
  3 24  1  0
  4  5  1  0
  4 32  1  0
  4 33  1  0
  5  6  2  0
  5  7  1  0
  6 34  1  0
  6 35  1  0
  7  8  1  0
  7 13  1  0
  7  9  1  1
  8 38  1  0
  8 37  1  0
  8 36  1  0
  9 10  1  0
 10 11  2  0
 10 12  1  0
 12 39  1  0
 12 40  1  0
 12 41  1  0
 13 14  2  0
 13 15  1  0
 15 16  1  0
 16 17  1  0
 16 42  1  0
 16 43  1  0
 17 18  2  0
 17 21  1  0
 18 19  1  0
 18 44  1  0
 19 46  1  0
 19 45  1  0
 20 19  1  0
 20 27  1  0
 20 21  1  0
 21 22  1  0
 21 47  1  1
 22 26  1  0
 22 23  1  0
 22 48  1  1
 23 24  1  0
 24 25  2  0
 26 27  1  0
 26 50  1  0
 26 49  1  0
 27 51  1  0
 27 52  1  0
M  END
>  <id>  (695) 
799

>  <scaffolds>  (695) 
['O=C1CCCCC(=O)OC2CCN3CC=C(CO1)C23', 'C=C1CCCC(=O)OCC2=CCN3CCC(OC1=O)C23', 'C1CCNC1']

>  <name>  (695) 
Acetylspartioidine

>  <formula>  (695) 
C20H25NO6

>  <SMILES>  (695) 
CC=C1CC(=C)[C@](C)(OC(=O)C)C(=O)OCC2=CCN3[C@H]2[C@H](OC1=O)CC3

>  <ChEMBL_id>  (695) 


>  <ZINC_id>  (695) 


>  <PubChem_id>  (695) 
91753680

>  <DrugBank_id>  (695) 


>  <CAS_no>  (695) 
173142-98-8

>  <references>  (695) 
[{'journal': {'name': 'Phytochemistry', 'id': 10}, 'title': 'Diversity of pyrrolizidine alkaloids in native and invasive Senecio pterophorus (Asteraceae): Implications for toxicity', 'year': 2014, 'start_page': 137, 'volume': 108, 'issue': None, 'doi': '10.1016/j.phytochem.2014.09.006', 'isbn': '', 'despositor': {'code': 'AMU', 'first_name': 'Arnold', 'last_name': 'Amusengeri', 'id': 25}, 'refauthors_set': [{'author': {'first_name': 'Eva', 'initials': 'E', 'last_name': 'Castells', 'id': 929}, 'first_author': True, 'id': 1511}, {'author': {'first_name': 'Patrick', 'initials': 'PJ', 'last_name': 'Mulder', 'id': 930}, 'first_author': None, 'id': 1512}, {'author': {'first_name': 'Míriam', 'initials': 'M', 'last_name': 'Pérez-Trujillo', 'id': 931}, 'first_author': None, 'id': 1513}], 'id': 426}]

>  <classifications>  (695) 
[{'classification': 'Pyrrolizidine alkaloid', 'id': 875}]

>  <molecular_mass>  (695) 
375.41

$$$$
SANC00800_minRM1.pdb
     RDKit          3D

 51 53  0  0  1  0  0  0  0  0999 V2000
   -1.5840   -4.6170    0.0100 O   0  0  0  0  0  0  0  0  0  0  0  0
   -0.5410   -4.0090   -0.6880 C   0  0  0  0  0  0  0  0  0  0  0  0
    0.4770   -3.4300    0.2490 C   0  0  0  0  0  0  0  0  0  0  0  0
    1.0100   -2.2140    0.1160 C   0  0  0  0  0  0  0  0  0  0  0  0
    2.1950   -1.7980    0.9300 C   0  0  0  0  0  0  0  0  0  0  0  0
    2.1770   -0.3320    1.3820 C   0  0  1  0  0  0  0  0  0  0  0  0
    3.0490   -0.1740    2.6230 C   0  0  0  0  0  0  0  0  0  0  0  0
    2.5840    0.6700    0.2590 C   0  0  1  0  0  0  0  0  0  0  0  0
    3.9810    1.2860    0.3830 C   0  0  0  0  0  0  0  0  0  0  0  0
    2.4880   -0.0320   -0.9360 O   0  0  0  0  0  0  0  0  0  0  0  0
    1.5840    1.8290    0.3200 C   0  0  0  0  0  0  0  0  0  0  0  0
    1.3080    2.4840    1.3060 O   0  0  0  0  0  0  0  0  0  0  0  0
    1.0340    2.0920   -0.8860 O   0  0  0  0  0  0  0  0  0  0  0  0
   -0.0960    2.9290   -0.9590 C   0  0  0  0  0  0  0  0  0  0  0  0
   -1.3520    2.1760   -0.6960 C   0  0  0  0  0  0  0  0  0  0  0  0
   -2.4710    2.3180   -1.4130 C   0  0  0  0  0  0  0  0  0  0  0  0
   -3.6250    1.5790   -0.8280 C   0  0  0  0  0  0  0  0  0  0  0  0
   -3.1220    1.1660    0.6060 N   0  0  2  0  0  4  0  0  0  0  0  0
   -3.6100    1.9010    1.5110 O   0  0  0  0  0  0  0  0  0  0  0  0
   -1.5390    1.2890    0.4920 C   0  0  1  0  0  0  0  0  0  0  0  0
   -1.0180   -0.1620    0.3560 C   0  0  2  0  0  0  0  0  0  0  0  0
   -0.1810   -0.2040   -0.7710 O   0  0  0  0  0  0  0  0  0  0  0  0
    0.5690   -1.3330   -0.9880 C   0  0  0  0  0  0  0  0  0  0  0  0
    0.8330   -1.5240   -2.1600 O   0  0  0  0  0  0  0  0  0  0  0  0
   -2.2440   -1.0690    0.1590 C   0  0  0  0  0  0  0  0  0  0  0  0
   -3.3850   -0.3450    0.8510 C   0  0  0  0  0  0  0  0  0  0  0  0
   -1.2370   -5.3920    0.4620 H   0  0  0  0  0  0  0  0  0  0  0  0
   -0.0210   -4.7040   -1.3930 H   0  0  0  0  0  0  0  0  0  0  0  0
   -1.0530   -3.2610   -1.3340 H   0  0  0  0  0  0  0  0  0  0  0  0
    0.8010   -4.1020    1.0530 H   0  0  0  0  0  0  0  0  0  0  0  0
    2.2770   -2.4540    1.8260 H   0  0  0  0  0  0  0  0  0  0  0  0
    3.1170   -2.0270    0.3500 H   0  0  0  0  0  0  0  0  0  0  0  0
    1.1220   -0.1030    1.7030 H   0  0  0  0  0  0  0  0  0  0  0  0
    2.6780   -0.7850    3.4610 H   0  0  0  0  0  0  0  0  0  0  0  0
    4.0920   -0.4790    2.4600 H   0  0  0  0  0  0  0  0  0  0  0  0
    3.0550    0.8610    2.9950 H   0  0  0  0  0  0  0  0  0  0  0  0
    4.1030    1.9000    1.2850 H   0  0  0  0  0  0  0  0  0  0  0  0
    4.7620    0.5120    0.3970 H   0  0  0  0  0  0  0  0  0  0  0  0
    4.2130    1.9470   -0.4670 H   0  0  0  0  0  0  0  0  0  0  0  0
    2.6550    0.5470   -1.6890 H   0  0  0  0  0  0  0  0  0  0  0  0
   -0.0480    3.3020   -2.0060 H   0  0  0  0  0  0  0  0  0  0  0  0
   -0.0370    3.8190   -0.2900 H   0  0  0  0  0  0  0  0  0  0  0  0
   -2.6010    2.9150   -2.3120 H   0  0  0  0  0  0  0  0  0  0  0  0
   -3.8990    0.6960   -1.4430 H   0  0  0  0  0  0  0  0  0  0  0  0
   -4.5400    2.2050   -0.7470 H   0  0  0  0  0  0  0  0  0  0  0  0
   -1.1440    1.7730    1.4240 H   0  0  0  0  0  0  0  0  0  0  0  0
   -0.4640   -0.4500    1.2940 H   0  0  0  0  0  0  0  0  0  0  0  0
   -2.4590   -1.2460   -0.9160 H   0  0  0  0  0  0  0  0  0  0  0  0
   -2.0880   -2.0800    0.5860 H   0  0  0  0  0  0  0  0  0  0  0  0
   -4.3920   -0.6370    0.4900 H   0  0  0  0  0  0  0  0  0  0  0  0
   -3.4040   -0.5370    1.9480 H   0  0  0  0  0  0  0  0  0  0  0  0
  1  2  1  0
  1 27  1  0
  2 28  1  0
  2 29  1  0
  2  3  1  0
  3  4  2  0
  3 30  1  0
  4 23  1  0
  4  5  1  0
  5 32  1  0
  5  6  1  0
  5 31  1  0
  6  8  1  0
  6 33  1  1
  6  7  1  0
  7 35  1  0
  7 36  1  0
  7 34  1  0
  8 10  1  6
  8 11  1  0
  8  9  1  0
  9 39  1  0
  9 38  1  0
  9 37  1  0
 10 40  1  0
 11 13  1  0
 11 12  2  0
 13 14  1  0
 14 41  1  0
 14 15  1  0
 14 42  1  0
 15 16  2  0
 15 20  1  0
 16 43  1  0
 16 17  1  0
 17 44  1  0
 17 45  1  0
 17 18  1  0
 18 20  1  0
 18 26  1  0
 18 19  1  1
 20 21  1  0
 20 46  1  1
 21 22  1  0
 21 25  1  0
 21 47  1  1
 22 23  1  0
 23 24  2  0
 25 48  1  0
 25 49  1  0
 25 26  1  0
 26 50  1  0
 26 51  1  0
M  END
>  <id>  (696) 
800

>  <scaffolds>  (696) 
['O=C1CCCCC(=O)OC2CCN3CC=C(CO1)C23', 'O=C1CCCCC(=O)OC2CC[NH+]3CC=C(CO1)C23', 'C=C1CCCC(=O)OCC2=CC[NH+]3CCC(OC1=O)C23', 'C=C1CCCC(=O)OCC2=CCN3CCC(OC1=O)C23', 'C1CCNC1']

>  <name>  (696) 
Eruciflorine N-oxide

>  <formula>  (696) 
C18H25NO7

>  <SMILES>  (696) 
OCC=C1C[C@@H](C)[C@@](C)(O)C(=O)OCC2=CCN3(=O)[C@H]2[C@H](OC1=O)CC3

>  <ChEMBL_id>  (696) 


>  <ZINC_id>  (696) 


>  <PubChem_id>  (696) 


>  <DrugBank_id>  (696) 


>  <CAS_no>  (696) 
1039626-50-0

>  <references>  (696) 
[{'journal': {'name': 'Phytochemistry', 'id': 10}, 'title': 'Diversity of pyrrolizidine alkaloids in native and invasive Senecio pterophorus (Asteraceae): Implications for toxicity', 'year': 2014, 'start_page': 137, 'volume': 108, 'issue': None, 'doi': '10.1016/j.phytochem.2014.09.006', 'isbn': '', 'despositor': {'code': 'AMU', 'first_name': 'Arnold', 'last_name': 'Amusengeri', 'id': 25}, 'refauthors_set': [{'author': {'first_name': 'Eva', 'initials': 'E', 'last_name': 'Castells', 'id': 929}, 'first_author': True, 'id': 1511}, {'author': {'first_name': 'Patrick', 'initials': 'PJ', 'last_name': 'Mulder', 'id': 930}, 'first_author': None, 'id': 1512}, {'author': {'first_name': 'Míriam', 'initials': 'M', 'last_name': 'Pérez-Trujillo', 'id': 931}, 'first_author': None, 'id': 1513}], 'id': 426}]

>  <classifications>  (696) 
[{'classification': 'Pyrrolizidine alkaloid', 'id': 875}]

>  <molecular_mass>  (696) 
367.39

$$$$
SANC00801_minRM1.pdb
     RDKit          3D

 53 55  0  0  1  0  0  0  0  0999 V2000
   -2.6480    1.3480   -2.6530 C   0  0  0  0  0  0  0  0  0  0  0  0
   -1.6850    1.5690   -1.5230 C   0  0  2  0  0  0  0  0  0  0  0  0
   -2.0610    0.8450   -0.2150 C   0  0  1  0  0  0  0  0  0  0  0  0
   -3.3530    1.1410    0.1850 O   0  0  0  0  0  0  0  0  0  0  0  0
   -2.0080   -0.6790   -0.4480 C   0  0  0  0  0  0  0  0  0  0  0  0
   -1.9500   -1.5150    0.8360 C   0  0  1  0  0  0  0  0  0  0  0  0
   -3.3340   -1.6130    1.4690 C   0  0  0  0  0  0  0  0  0  0  0  0
   -1.3930   -2.9380    0.5530 C   0  0  1  0  0  0  0  0  0  0  0  0
   -0.9340   -3.6390    1.8370 C   0  0  0  0  0  0  0  0  0  0  0  0
   -2.3490   -3.7810   -0.0020 O   0  0  0  0  0  0  0  0  0  0  0  0
   -0.1960   -2.8800   -0.3990 C   0  0  0  0  0  0  0  0  0  0  0  0
   -0.1390   -3.4150   -1.4920 O   0  0  0  0  0  0  0  0  0  0  0  0
    0.8470   -2.1520    0.0680 O   0  0  0  0  0  0  0  0  0  0  0  0
    1.9480   -1.9880   -0.8140 C   0  0  0  0  0  0  0  0  0  0  0  0
    2.8370   -0.9660   -0.2150 C   0  0  0  0  0  0  0  0  0  0  0  0
    4.1830   -0.9970   -0.2040 C   0  0  0  0  0  0  0  0  0  0  0  0
    4.7750    0.2890    0.3190 C   0  0  0  0  0  0  0  0  0  0  0  0
    3.5790    1.2620    0.0370 N   0  0  1  0  0  4  0  0  0  0  0  0
    3.5660    1.6070   -1.1820 O   0  0  0  0  0  0  0  0  0  0  0  0
    2.3880    0.2860    0.4510 C   0  0  1  0  0  0  0  0  0  0  0  0
    1.2000    1.1990    0.1770 C   0  0  1  0  0  0  0  0  0  0  0  0
    0.1270    0.6460    0.8960 O   0  0  0  0  0  0  0  0  0  0  0  0
   -1.0660    1.3240    0.8440 C   0  0  0  0  0  0  0  0  0  0  0  0
   -1.2800    2.1560    1.6930 O   0  0  0  0  0  0  0  0  0  0  0  0
    1.6930    2.5500    0.7860 C   0  0  0  0  0  0  0  0  0  0  0  0
    3.2290    2.4600    0.9530 C   0  0  0  0  0  0  0  0  0  0  0  0
   -1.7720    3.3820   -1.1030 Cl  0  0  0  0  0  0  0  0  0  0  0  0
   -2.5520    0.3380   -3.0800 H   0  0  0  0  0  0  0  0  0  0  0  0
   -3.6990    1.4750   -2.3520 H   0  0  0  0  0  0  0  0  0  0  0  0
   -2.4700    2.0570   -3.4770 H   0  0  0  0  0  0  0  0  0  0  0  0
   -0.6200    1.3990   -1.8120 H   0  0  0  0  0  0  0  0  0  0  0  0
   -3.4310    2.1000    0.3040 H   0  0  0  0  0  0  0  0  0  0  0  0
   -2.8860   -0.9800   -1.0610 H   0  0  0  0  0  0  0  0  0  0  0  0
   -1.1300   -0.8730   -1.1000 H   0  0  0  0  0  0  0  0  0  0  0  0
   -1.2590   -1.0590    1.5870 H   0  0  0  0  0  0  0  0  0  0  0  0
   -4.1010   -1.9870    0.7760 H   0  0  0  0  0  0  0  0  0  0  0  0
   -3.3490   -2.2860    2.3390 H   0  0  0  0  0  0  0  0  0  0  0  0
   -3.6870   -0.6390    1.8350 H   0  0  0  0  0  0  0  0  0  0  0  0
   -0.5180   -4.6360    1.6270 H   0  0  0  0  0  0  0  0  0  0  0  0
   -0.1580   -3.0640    2.3600 H   0  0  0  0  0  0  0  0  0  0  0  0
   -1.7630   -3.7940    2.5410 H   0  0  0  0  0  0  0  0  0  0  0  0
   -2.6370   -3.4130   -0.8450 H   0  0  0  0  0  0  0  0  0  0  0  0
    1.6250   -1.6410   -1.8260 H   0  0  0  0  0  0  0  0  0  0  0  0
    2.4690   -2.9620   -0.9630 H   0  0  0  0  0  0  0  0  0  0  0  0
    4.8270   -1.7920   -0.5690 H   0  0  0  0  0  0  0  0  0  0  0  0
    5.6910    0.6050   -0.2200 H   0  0  0  0  0  0  0  0  0  0  0  0
    5.0190    0.2520    1.4000 H   0  0  0  0  0  0  0  0  0  0  0  0
    2.4160    0.0650    1.5580 H   0  0  0  0  0  0  0  0  0  0  0  0
    0.9420    1.2880   -0.9130 H   0  0  0  0  0  0  0  0  0  0  0  0
    1.4120    3.3940    0.1270 H   0  0  0  0  0  0  0  0  0  0  0  0
    1.2110    2.7670    1.7600 H   0  0  0  0  0  0  0  0  0  0  0  0
    3.5470    2.2730    1.9990 H   0  0  0  0  0  0  0  0  0  0  0  0
    3.7540    3.3800    0.6240 H   0  0  0  0  0  0  0  0  0  0  0  0
  1 30  1  0
  1 28  1  0
  1 29  1  0
  1  2  1  0
  2 31  1  6
  2 27  1  0
  2  3  1  0
  3  5  1  0
  3  4  1  1
  3 23  1  0
  4 32  1  0
  5 34  1  0
  5 33  1  0
  5  6  1  0
  6  8  1  0
  6  7  1  0
  6 35  1  1
  7 36  1  0
  7 38  1  0
  7 37  1  0
  8 11  1  0
  8 10  1  6
  8  9  1  0
  9 39  1  0
  9 40  1  0
  9 41  1  0
 10 42  1  0
 11 12  2  0
 11 13  1  0
 13 14  1  0
 14 43  1  0
 14 44  1  0
 14 15  1  0
 15 16  2  0
 15 20  1  0
 16 45  1  0
 16 17  1  0
 17 46  1  0
 17 18  1  0
 17 47  1  0
 18 19  1  6
 18 20  1  0
 18 26  1  0
 20 21  1  0
 20 48  1  1
 21 49  1  6
 21 25  1  0
 21 22  1  0
 22 23  1  0
 23 24  2  0
 25 50  1  0
 25 26  1  0
 25 51  1  0
 26 53  1  0
 26 52  1  0
M  END
>  <id>  (697) 
801

>  <scaffolds>  (697) 
['O=C1CCCCC(=O)OC2CCN3CC=C(CO1)C23', 'O=C1CCCCC(=O)OC2CC[NH+]3CC=C(CO1)C23', 'C1CCNC1']

>  <name>  (697) 
Jaconine N-oxide

>  <formula>  (697) 
C18H26ClNO7

>  <SMILES>  (697) 
C[C@H](C1(O)C[C@@H](C)[C@@](C)(O)C(=O)OCC2=CCN3(=O)[C@H]2C(OC1=O)CC3)Cl

>  <ChEMBL_id>  (697) 


>  <ZINC_id>  (697) 


>  <PubChem_id>  (697) 


>  <DrugBank_id>  (697) 


>  <CAS_no>  (697) 
1148039-75-1

>  <references>  (697) 
[{'journal': {'name': 'Phytochemistry', 'id': 10}, 'title': 'Diversity of pyrrolizidine alkaloids in native and invasive Senecio pterophorus (Asteraceae): Implications for toxicity', 'year': 2014, 'start_page': 137, 'volume': 108, 'issue': None, 'doi': '10.1016/j.phytochem.2014.09.006', 'isbn': '', 'despositor': {'code': 'AMU', 'first_name': 'Arnold', 'last_name': 'Amusengeri', 'id': 25}, 'refauthors_set': [{'author': {'first_name': 'Eva', 'initials': 'E', 'last_name': 'Castells', 'id': 929}, 'first_author': True, 'id': 1511}, {'author': {'first_name': 'Patrick', 'initials': 'PJ', 'last_name': 'Mulder', 'id': 930}, 'first_author': None, 'id': 1512}, {'author': {'first_name': 'Míriam', 'initials': 'M', 'last_name': 'Pérez-Trujillo', 'id': 931}, 'first_author': None, 'id': 1513}], 'id': 426}]

>  <classifications>  (697) 
[{'classification': 'Pyrrolizidine alkaloid', 'id': 875}]

>  <molecular_mass>  (697) 
403.85

$$$$
SANC00802_minRM1.pdb
     RDKit          3D

 26 26  0  0  1  0  0  0  0  0999 V2000
   -3.8890   -0.0100   -0.0070 C   0  0  0  0  0  0  0  0  0  0  0  0
   -2.4720    0.3620   -0.4160 C   0  0  0  0  0  0  0  0  0  0  0  0
   -1.4620   -0.5650    0.2540 C   0  0  0  0  0  0  0  0  0  0  0  0
   -0.0230   -0.2500   -0.1910 C   0  0  2  0  0  0  0  0  0  0  0  0
    0.9440   -1.3000    0.3820 C   0  0  0  0  0  0  0  0  0  0  0  0
    2.3530   -1.0870   -0.1670 C   0  0  0  0  0  0  0  0  0  0  0  0
    2.6170    0.3730   -0.5290 C   0  0  0  0  0  0  0  0  0  0  0  0
    1.8210    1.3030    0.3860 C   0  0  0  0  0  0  0  0  0  0  0  0
    0.3660    1.1270    0.1900 N   0  0  0  0  0  0  0  0  0  0  0  0
   -4.0430    0.0640    1.0800 H   0  0  0  0  0  0  0  0  0  0  0  0
   -4.6350    0.6480   -0.4750 H   0  0  0  0  0  0  0  0  0  0  0  0
   -4.1520   -1.0380   -0.2950 H   0  0  0  0  0  0  0  0  0  0  0  0
   -2.3690    0.3150   -1.5210 H   0  0  0  0  0  0  0  0  0  0  0  0
   -2.2730    1.4250   -0.1650 H   0  0  0  0  0  0  0  0  0  0  0  0
   -1.7010   -1.6220    0.0050 H   0  0  0  0  0  0  0  0  0  0  0  0
   -1.5570   -0.5160    1.3590 H   0  0  0  0  0  0  0  0  0  0  0  0
    0.0260   -0.2870   -1.3150 H   0  0  0  0  0  0  0  0  0  0  0  0
    0.9430   -1.2560    1.4920 H   0  0  0  0  0  0  0  0  0  0  0  0
    0.5950   -2.3270    0.1500 H   0  0  0  0  0  0  0  0  0  0  0  0
    2.5250   -1.7290   -1.0560 H   0  0  0  0  0  0  0  0  0  0  0  0
    3.1010   -1.4440    0.5720 H   0  0  0  0  0  0  0  0  0  0  0  0
    2.3650    0.5710   -1.5930 H   0  0  0  0  0  0  0  0  0  0  0  0
    3.7000    0.6050   -0.4600 H   0  0  0  0  0  0  0  0  0  0  0  0
    2.0480    2.3710    0.1620 H   0  0  0  0  0  0  0  0  0  0  0  0
    2.1600    1.1560    1.4420 H   0  0  0  0  0  0  0  0  0  0  0  0
   -0.1310    1.4370    1.0360 H   0  0  0  0  0  0  0  0  0  0  0  0
  1 11  1  0
  1  2  1  0
  1 12  1  0
  1 10  1  0
  2 13  1  0
  2 14  1  0
  2  3  1  0
  3  4  1  0
  3 15  1  0
  3 16  1  0
  4 17  1  6
  4  9  1  0
  4  5  1  0
  5  6  1  0
  5 19  1  0
  5 18  1  0
  6 20  1  0
  6  7  1  0
  6 21  1  0
  7 22  1  0
  7 23  1  0
  7  8  1  0
  8 24  1  0
  8  9  1  0
  8 25  1  0
  9 26  1  0
M  END
>  <id>  (698) 
802

>  <scaffolds>  (698) 
['C1CCNCC1']

>  <name>  (698) 
Coniine

>  <formula>  (698) 
C8H17N

>  <SMILES>  (698) 
CCCC1CCCCN1

>  <ChEMBL_id>  (698) 
CHEMBL2287063

>  <ZINC_id>  (698) 
ZINC2031579

>  <PubChem_id>  (698) 
441072

>  <DrugBank_id>  (698) 


>  <CAS_no>  (698) 
458-88-8

>  <references>  (698) 
[{'journal': {'name': 'Phytochemistry', 'id': 10}, 'title': 'A new alkaloid from South African Conium species', 'year': 1981, 'start_page': 447, 'volume': 20, 'issue': None, 'doi': '10.1016/S0031-9422(00)84163-1', 'isbn': '', 'despositor': {'code': 'AMU', 'first_name': 'Arnold', 'last_name': 'Amusengeri', 'id': 25}, 'refauthors_set': [{'author': {'first_name': 'Margaret', 'initials': 'F', 'last_name': 'Roberts', 'id': 934}, 'first_author': True, 'id': 1517}, {'author': {'first_name': 'Richard', 'initials': 'T', 'last_name': 'Brown', 'id': 935}, 'first_author': None, 'id': 1518}], 'id': 428}]

>  <classifications>  (698) 
[{'classification': 'Alkaloid', 'id': 738}]

>  <molecular_mass>  (698) 
127.23

$$$$
SANC00803_minRM1.pdb
     RDKit          3D

 27 27  0  0  1  0  0  0  0  0999 V2000
    3.7110    0.2510   -0.3880 C   0  0  0  0  0  0  0  0  0  0  0  0
    2.2650    0.6530   -0.6240 C   0  0  0  0  0  0  0  0  0  0  0  0
    1.3110   -0.4350   -0.1030 C   0  0  2  0  0  0  0  0  0  0  0  0
   -0.1620   -0.0640   -0.4350 C   0  0  2  0  0  0  0  0  0  0  0  0
   -0.6130    1.2000    0.3260 C   0  0  0  0  0  0  0  0  0  0  0  0
   -2.0860    1.1240    0.7200 C   0  0  0  0  0  0  0  0  0  0  0  0
   -2.8920    0.4320   -0.3690 C   0  0  0  0  0  0  0  0  0  0  0  0
   -2.4090   -1.0170   -0.5490 C   0  0  0  0  0  0  0  0  0  0  0  0
   -1.0040   -1.2440   -0.1610 N   0  0  0  0  0  0  0  0  0  0  0  0
    1.4870   -0.6610    1.2580 O   0  0  0  0  0  0  0  0  0  0  0  0
    3.9730   -0.6830   -0.9050 H   0  0  0  0  0  0  0  0  0  0  0  0
    4.4110    1.0200   -0.7470 H   0  0  0  0  0  0  0  0  0  0  0  0
    3.9320    0.0940    0.6780 H   0  0  0  0  0  0  0  0  0  0  0  0
    2.0880    0.8240   -1.7060 H   0  0  0  0  0  0  0  0  0  0  0  0
    2.0590    1.6340   -0.1470 H   0  0  0  0  0  0  0  0  0  0  0  0
    1.5660   -1.4300   -0.5580 H   0  0  0  0  0  0  0  0  0  0  0  0
   -0.2350    0.1300   -1.5400 H   0  0  0  0  0  0  0  0  0  0  0  0
   -0.4270    2.0970   -0.3020 H   0  0  0  0  0  0  0  0  0  0  0  0
    0.0010    1.3780    1.2360 H   0  0  0  0  0  0  0  0  0  0  0  0
   -2.4850    2.1410    0.9180 H   0  0  0  0  0  0  0  0  0  0  0  0
   -2.2100    0.5920    1.6870 H   0  0  0  0  0  0  0  0  0  0  0  0
   -2.8070    0.9960   -1.3220 H   0  0  0  0  0  0  0  0  0  0  0  0
   -3.9760    0.4540   -0.1350 H   0  0  0  0  0  0  0  0  0  0  0  0
   -2.5140   -1.3260   -1.6150 H   0  0  0  0  0  0  0  0  0  0  0  0
   -3.0650   -1.7230    0.0120 H   0  0  0  0  0  0  0  0  0  0  0  0
   -0.9310   -1.5100    0.8310 H   0  0  0  0  0  0  0  0  0  0  0  0
    1.2970    0.1610    1.7280 H   0  0  0  0  0  0  0  0  0  0  0  0
  1 11  1  0
  1 12  1  0
  1  2  1  0
  1 13  1  0
  2 14  1  0
  2 15  1  0
  2  3  1  0
  3 16  1  6
  3  4  1  0
  3 10  1  0
  4 17  1  6
  4  9  1  0
  4  5  1  0
  5 18  1  0
  5  6  1  0
  5 19  1  0
  6  7  1  0
  6 20  1  0
  6 21  1  0
  7 22  1  0
  7  8  1  0
  7 23  1  0
  8 24  1  0
  8  9  1  0
  8 25  1  0
  9 26  1  0
 10 27  1  0
M  END
>  <id>  (699) 
803

>  <scaffolds>  (699) 
['C1CCNCC1']

>  <name>  (699) 
Conhydrine

>  <formula>  (699) 
C8H17NO

>  <SMILES>  (699) 
CC[C@H]([C@@H]1CCCCN1)O

>  <ChEMBL_id>  (699) 


>  <ZINC_id>  (699) 


>  <PubChem_id>  (699) 
10314

>  <DrugBank_id>  (699) 


>  <CAS_no>  (699) 
495-20-5

>  <references>  (699) 
[{'journal': {'name': 'Phytochemistry', 'id': 10}, 'title': 'A new alkaloid from South African Conium species', 'year': 1981, 'start_page': 447, 'volume': 20, 'issue': None, 'doi': '10.1016/S0031-9422(00)84163-1', 'isbn': '', 'despositor': {'code': 'AMU', 'first_name': 'Arnold', 'last_name': 'Amusengeri', 'id': 25}, 'refauthors_set': [{'author': {'first_name': 'Margaret', 'initials': 'F', 'last_name': 'Roberts', 'id': 934}, 'first_author': True, 'id': 1517}, {'author': {'first_name': 'Richard', 'initials': 'T', 'last_name': 'Brown', 'id': 935}, 'first_author': None, 'id': 1518}], 'id': 428}]

>  <classifications>  (699) 
[{'classification': 'Alkaloid', 'id': 738}, {'classification': 'Piperidines (Classyfire)', 'id': 999}]

>  <molecular_mass>  (699) 
143.23

$$$$
SANC00804_minRM1.pdb
     RDKit          3D

 24 24  0  0  0  0  0  0  0  0999 V2000
    3.8060   -0.0280   -0.2110 C   0  0  0  0  0  0  0  0  0  0  0  0
    2.3240   -0.0700   -0.5440 C   0  0  0  0  0  0  0  0  0  0  0  0
    1.4870    0.1750    0.7100 C   0  0  0  0  0  0  0  0  0  0  0  0
    0.0230    0.0840    0.3580 C   0  0  0  0  0  0  0  0  0  0  0  0
   -0.5750    1.1650   -0.0060 N   0  0  0  0  0  0  0  0  0  0  0  0
   -1.9900    1.1220   -0.3730 C   0  0  0  0  0  0  0  0  0  0  0  0
   -2.7490   -0.1390    0.0460 C   0  0  0  0  0  0  0  0  0  0  0  0
   -1.9040   -1.3620   -0.2800 C   0  0  0  0  0  0  0  0  0  0  0  0
   -0.5870   -1.2840    0.4820 C   0  0  0  0  0  0  0  0  0  0  0  0
    4.4290   -0.1960   -1.1020 H   0  0  0  0  0  0  0  0  0  0  0  0
    4.0930   -0.7950    0.5230 H   0  0  0  0  0  0  0  0  0  0  0  0
    4.1110    0.9420    0.2070 H   0  0  0  0  0  0  0  0  0  0  0  0
    2.0620   -1.0450   -1.0070 H   0  0  0  0  0  0  0  0  0  0  0  0
    2.0810    0.6860   -1.3200 H   0  0  0  0  0  0  0  0  0  0  0  0
    1.7350   -0.5560    1.5080 H   0  0  0  0  0  0  0  0  0  0  0  0
    1.7350    1.1640    1.1530 H   0  0  0  0  0  0  0  0  0  0  0  0
   -2.0490    1.2730   -1.4760 H   0  0  0  0  0  0  0  0  0  0  0  0
   -2.4550    2.0320    0.0710 H   0  0  0  0  0  0  0  0  0  0  0  0
   -2.9940   -0.1110    1.1290 H   0  0  0  0  0  0  0  0  0  0  0  0
   -3.7340   -0.1860   -0.4610 H   0  0  0  0  0  0  0  0  0  0  0  0
   -2.4450   -2.2980   -0.0290 H   0  0  0  0  0  0  0  0  0  0  0  0
   -1.7220   -1.4300   -1.3730 H   0  0  0  0  0  0  0  0  0  0  0  0
   -0.7370   -1.5130    1.5600 H   0  0  0  0  0  0  0  0  0  0  0  0
    0.1170   -2.0650    0.1250 H   0  0  0  0  0  0  0  0  0  0  0  0
  1 10  1  0
  1  2  1  0
  1 12  1  0
  1 11  1  0
  2 14  1  0
  2 13  1  0
  2  3  1  0
  3  4  1  0
  3 16  1  0
  3 15  1  0
  4  5  2  0
  4  9  1  0
  5  6  1  0
  6 17  1  0
  6  7  1  0
  6 18  1  0
  7 20  1  0
  7  8  1  0
  7 19  1  0
  8 22  1  0
  8 21  1  0
  8  9  1  0
  9 24  1  0
  9 23  1  0
M  END
>  <id>  (700) 
804

>  <scaffolds>  (700) 
['C1=NCCCC1']

>  <name>  (700) 
Coniceine

>  <formula>  (700) 
C8H15N

>  <SMILES>  (700) 
CCCC1=NCCCC1

>  <ChEMBL_id>  (700) 


>  <ZINC_id>  (700) 
ZINC30727080

>  <PubChem_id>  (700) 
442632

>  <DrugBank_id>  (700) 


>  <CAS_no>  (700) 
1604-01-9

>  <references>  (700) 
[{'journal': {'name': 'Phytochemistry', 'id': 10}, 'title': 'A new alkaloid from South African Conium species', 'year': 1981, 'start_page': 447, 'volume': 20, 'issue': None, 'doi': '10.1016/S0031-9422(00)84163-1', 'isbn': '', 'despositor': {'code': 'AMU', 'first_name': 'Arnold', 'last_name': 'Amusengeri', 'id': 25}, 'refauthors_set': [{'author': {'first_name': 'Margaret', 'initials': 'F', 'last_name': 'Roberts', 'id': 934}, 'first_author': True, 'id': 1517}, {'author': {'first_name': 'Richard', 'initials': 'T', 'last_name': 'Brown', 'id': 935}, 'first_author': None, 'id': 1518}], 'id': 428}]

>  <classifications>  (700) 
[{'classification': 'Alkaloid', 'id': 738}, {'classification': 'Pyridines and derivatives (Classyfire)', 'id': 1000}]

>  <molecular_mass>  (700) 
125.21

$$$$
SANC00805_minRM1.pdb
     RDKit          3D

 29 29  0  0  1  0  0  0  0  0999 V2000
   -3.3170    0.3780   -0.9360 C   0  0  0  0  0  0  0  0  0  0  0  0
   -2.7610    0.1930    0.4660 C   0  0  0  0  0  0  0  0  0  0  0  0
   -1.5300   -0.7120    0.4850 C   0  0  0  0  0  0  0  0  0  0  0  0
   -0.2960   -0.0140   -0.1070 C   0  0  1  0  0  0  0  0  0  0  0  0
    0.2410    1.0520    0.8620 C   0  0  0  0  0  0  0  0  0  0  0  0
    1.4530    1.7500    0.2570 C   0  0  0  0  0  0  0  0  0  0  0  0
    2.5210    0.7310   -0.1150 C   0  0  0  0  0  0  0  0  0  0  0  0
    1.9260   -0.3180   -1.0580 C   0  0  0  0  0  0  0  0  0  0  0  0
    0.7380   -1.0180   -0.5030 N   0  0  0  0  0  0  0  0  0  0  0  0
    1.1180   -1.9340    0.5980 C   0  0  0  0  0  0  0  0  0  0  0  0
   -2.6150    0.8930   -1.6070 H   0  0  0  0  0  0  0  0  0  0  0  0
   -3.5660   -0.5800   -1.4170 H   0  0  0  0  0  0  0  0  0  0  0  0
   -4.2390    0.9770   -0.9330 H   0  0  0  0  0  0  0  0  0  0  0  0
   -3.5480   -0.2420    1.1210 H   0  0  0  0  0  0  0  0  0  0  0  0
   -2.5400    1.1790    0.9260 H   0  0  0  0  0  0  0  0  0  0  0  0
   -1.7520   -1.6490   -0.0700 H   0  0  0  0  0  0  0  0  0  0  0  0
   -1.3330   -1.0400    1.5290 H   0  0  0  0  0  0  0  0  0  0  0  0
   -0.5950    0.4870   -1.0690 H   0  0  0  0  0  0  0  0  0  0  0  0
    0.4960    0.6160    1.8490 H   0  0  0  0  0  0  0  0  0  0  0  0
   -0.5500    1.7970    1.0920 H   0  0  0  0  0  0  0  0  0  0  0  0
    1.1570    2.3440   -0.6330 H   0  0  0  0  0  0  0  0  0  0  0  0
    1.8610    2.5010    0.9660 H   0  0  0  0  0  0  0  0  0  0  0  0
    3.3890    1.2310   -0.5940 H   0  0  0  0  0  0  0  0  0  0  0  0
    2.9460    0.2550    0.7930 H   0  0  0  0  0  0  0  0  0  0  0  0
    1.6250    0.1530   -2.0230 H   0  0  0  0  0  0  0  0  0  0  0  0
    2.6970   -1.0680   -1.3490 H   0  0  0  0  0  0  0  0  0  0  0  0
    1.9970   -2.5430    0.3200 H   0  0  0  0  0  0  0  0  0  0  0  0
    1.3580   -1.4750    1.5750 H   0  0  0  0  0  0  0  0  0  0  0  0
    0.3030   -2.6570    0.7750 H   0  0  0  0  0  0  0  0  0  0  0  0
  1 11  1  0
  1 12  1  0
  1 13  1  0
  1  2  1  0
  2  3  1  0
  2 15  1  0
  2 14  1  0
  3  4  1  0
  3 16  1  0
  3 17  1  0
  4 18  1  6
  4  9  1  0
  4  5  1  0
  5  6  1  0
  5 20  1  0
  5 19  1  0
  6 21  1  0
  6  7  1  0
  6 22  1  0
  7  8  1  0
  7 23  1  0
  7 24  1  0
  8 25  1  0
  8 26  1  0
  8  9  1  0
  9 10  1  0
 10 27  1  0
 10 29  1  0
 10 28  1  0
M  END
>  <id>  (701) 
805

>  <scaffolds>  (701) 
['C1CCNCC1']

>  <name>  (701) 
Methylconiine

>  <formula>  (701) 
C9H19N

>  <SMILES>  (701) 
CCC[C@H]1CCCCN1C

>  <ChEMBL_id>  (701) 


>  <ZINC_id>  (701) 
ZINC1585344

>  <PubChem_id>  (701) 
169683

>  <DrugBank_id>  (701) 


>  <CAS_no>  (701) 
35305-13-6

>  <references>  (701) 
[{'journal': {'name': 'Phytochemistry', 'id': 10}, 'title': 'A new alkaloid from South African Conium species', 'year': 1981, 'start_page': 447, 'volume': 20, 'issue': None, 'doi': '10.1016/S0031-9422(00)84163-1', 'isbn': '', 'despositor': {'code': 'AMU', 'first_name': 'Arnold', 'last_name': 'Amusengeri', 'id': 25}, 'refauthors_set': [{'author': {'first_name': 'Margaret', 'initials': 'F', 'last_name': 'Roberts', 'id': 934}, 'first_author': True, 'id': 1517}, {'author': {'first_name': 'Richard', 'initials': 'T', 'last_name': 'Brown', 'id': 935}, 'first_author': None, 'id': 1518}], 'id': 428}]

>  <classifications>  (701) 
[{'classification': 'Alkaloid', 'id': 738}]

>  <molecular_mass>  (701) 
141.25

$$$$
SANC00806_minRM1.pdb
     RDKit          3D

 30 30  0  0  1  0  0  0  0  0999 V2000
   -3.8360    0.1940   -0.0110 C   0  0  0  0  0  0  0  0  0  0  0  0
   -2.8720   -0.9320   -0.3490 C   0  0  0  0  0  0  0  0  0  0  0  0
   -1.5100   -0.4010   -0.7950 C   0  0  0  0  0  0  0  0  0  0  0  0
   -0.6210   -0.0230    0.4080 C   0  0  1  0  0  0  0  0  0  0  0  0
    0.1200   -1.2620    0.9420 C   0  0  0  0  0  0  0  0  0  0  0  0
    1.3760   -1.5590    0.1390 C   0  0  0  0  0  0  0  0  0  0  0  0
    2.3470   -0.3640    0.1640 C   0  0  2  0  0  0  0  0  0  0  0  0
    1.6480    0.9310    0.6370 C   0  0  0  0  0  0  0  0  0  0  0  0
    0.3410    1.0280   -0.0610 N   0  0  0  0  0  0  0  0  0  0  0  0
   -0.2360    2.3850    0.1110 C   0  0  0  0  0  0  0  0  0  0  0  0
    2.9430   -0.1750   -1.0790 O   0  0  0  0  0  0  0  0  0  0  0  0
   -3.4670    0.8450    0.7940 H   0  0  0  0  0  0  0  0  0  0  0  0
   -4.8110   -0.1910    0.3230 H   0  0  0  0  0  0  0  0  0  0  0  0
   -4.0350    0.8450   -0.8740 H   0  0  0  0  0  0  0  0  0  0  0  0
   -2.7740   -1.6250    0.5130 H   0  0  0  0  0  0  0  0  0  0  0  0
   -3.3090   -1.5630   -1.1540 H   0  0  0  0  0  0  0  0  0  0  0  0
   -0.9970   -1.1560   -1.4290 H   0  0  0  0  0  0  0  0  0  0  0  0
   -1.6520    0.4540   -1.4890 H   0  0  0  0  0  0  0  0  0  0  0  0
   -1.2740    0.3580    1.2450 H   0  0  0  0  0  0  0  0  0  0  0  0
   -0.5550   -2.1440    0.9390 H   0  0  0  0  0  0  0  0  0  0  0  0
    0.3740   -1.1310    2.0160 H   0  0  0  0  0  0  0  0  0  0  0  0
    1.1120   -1.8440   -0.9020 H   0  0  0  0  0  0  0  0  0  0  0  0
    1.8810   -2.4650    0.5360 H   0  0  0  0  0  0  0  0  0  0  0  0
    3.2230   -0.5770    0.8320 H   0  0  0  0  0  0  0  0  0  0  0  0
    1.5870    0.9560    1.7510 H   0  0  0  0  0  0  0  0  0  0  0  0
    2.2790    1.8140    0.3780 H   0  0  0  0  0  0  0  0  0  0  0  0
   -0.3300    2.7390    1.1560 H   0  0  0  0  0  0  0  0  0  0  0  0
    0.3870    3.1210   -0.4250 H   0  0  0  0  0  0  0  0  0  0  0  0
   -1.2450    2.4450   -0.3330 H   0  0  0  0  0  0  0  0  0  0  0  0
    2.2660    0.1160   -1.7010 H   0  0  0  0  0  0  0  0  0  0  0  0
  1 14  1  0
  1  2  1  0
  1 13  1  0
  1 12  1  0
  2 16  1  0
  2  3  1  0
  2 15  1  0
  3 18  1  0
  3 17  1  0
  3  4  1  0
  4  9  1  0
  4  5  1  0
  4 19  1  1
  5  6  1  0
  5 20  1  0
  5 21  1  0
  6 22  1  0
  6  7  1  0
  6 23  1  0
  7 11  1  0
  7  8  1  0
  7 24  1  1
  8  9  1  0
  8 26  1  0
  8 25  1  0
  9 10  1  0
 10 28  1  0
 10 29  1  0
 10 27  1  0
 11 30  1  0
M  END
>  <id>  (702) 
806

>  <scaffolds>  (702) 
['C1CCNCC1']

>  <name>  (702) 
N-Methylpseudoconhydrine

>  <formula>  (702) 
C9H19NO

>  <SMILES>  (702) 
CCC[C@H]1CCC(CN1C)O

>  <ChEMBL_id>  (702) 


>  <ZINC_id>  (702) 


>  <PubChem_id>  (702) 
11051917

>  <DrugBank_id>  (702) 


>  <CAS_no>  (702) 
78962-69-3

>  <references>  (702) 
[{'journal': {'name': 'Phytochemistry', 'id': 10}, 'title': 'A new alkaloid from South African Conium species', 'year': 1981, 'start_page': 447, 'volume': 20, 'issue': None, 'doi': '10.1016/S0031-9422(00)84163-1', 'isbn': '', 'despositor': {'code': 'AMU', 'first_name': 'Arnold', 'last_name': 'Amusengeri', 'id': 25}, 'refauthors_set': [{'author': {'first_name': 'Margaret', 'initials': 'F', 'last_name': 'Roberts', 'id': 934}, 'first_author': True, 'id': 1517}, {'author': {'first_name': 'Richard', 'initials': 'T', 'last_name': 'Brown', 'id': 935}, 'first_author': None, 'id': 1518}], 'id': 428}]

>  <classifications>  (702) 
[{'classification': 'Alkaloid', 'id': 738}]

>  <molecular_mass>  (702) 
157.25

$$$$
SANC00807_minRM1.pdb
     RDKit          3D

 77 80  0  0  1  0  0  0  0  0999 V2000
   -4.8150    2.1340   -2.0400 C   0  0  0  0  0  0  0  0  0  0  0  0
   -4.0460    1.0330   -1.6110 O   0  0  0  0  0  0  0  0  0  0  0  0
   -4.7160   -0.0280   -1.0910 C   0  0  0  0  0  0  0  0  0  0  0  0
   -5.9330   -0.0650   -1.1440 O   0  0  0  0  0  0  0  0  0  0  0  0
   -3.8010   -1.1070   -0.5800 C   0  0  0  0  0  0  0  0  0  0  0  0
   -2.7710   -0.6250    0.4450 C   0  0  2  0  0  0  0  0  0  0  0  0
   -1.5310   -1.5590    0.4230 C   0  0  2  0  0  0  0  0  0  0  0  0
   -1.9230   -3.0460    0.4310 C   0  0  0  0  0  0  0  0  0  0  0  0
   -0.6700   -1.3630    1.6280 C   0  0  0  0  0  0  0  0  0  0  0  0
   -1.0020   -0.6150    2.6750 C   0  0  0  0  0  0  0  0  0  0  0  0
   -2.2740    0.1240    2.7340 C   0  0  0  0  0  0  0  0  0  0  0  0
   -2.4200    1.0670    3.4870 O   0  0  0  0  0  0  0  0  0  0  0  0
   -3.3830   -0.4140    1.8430 C   0  0  2  0  0  0  0  0  0  0  0  0
   -3.9080   -1.6690    2.5300 C   0  0  0  0  0  0  0  0  0  0  0  0
   -4.5300    0.5960    1.7680 C   0  0  0  0  0  0  0  0  0  0  0  0
   -0.7270   -1.2960   -0.8850 C   0  0  1  0  0  0  0  0  0  0  0  0
   -0.0210    0.0680   -1.0700 C   0  0  1  0  0  0  0  0  0  0  0  0
   -0.9380    1.0800   -0.7460 O   0  0  0  0  0  0  0  0  0  0  0  0
   -0.9340    2.2600   -1.4430 C   0  0  0  0  0  0  0  0  0  0  0  0
   -1.4670    3.1740   -0.8430 O   0  0  0  0  0  0  0  0  0  0  0  0
   -0.3880    2.3560   -2.8310 C   0  0  0  0  0  0  0  0  0  0  0  0
    1.2210    0.2760   -0.1600 C   0  0  2  0  0  0  0  0  0  0  0  0
    1.6720    1.5640   -0.5310 O   0  0  0  0  0  0  0  0  0  0  0  0
    2.2030    2.3950    0.4060 C   0  0  0  0  0  0  0  0  0  0  0  0
    2.4290    2.0090    1.5350 O   0  0  0  0  0  0  0  0  0  0  0  0
    2.4450    3.7570   -0.1580 C   0  0  0  0  0  0  0  0  0  0  0  0
    2.2780   -0.7880   -0.5120 C   0  0  2  0  0  0  0  0  0  0  0  0
    1.6050   -2.1350   -0.4530 C   0  0  0  0  0  0  0  0  0  0  0  0
    2.3260   -3.0410    0.2140 C   0  0  0  0  0  0  0  0  0  0  0  0
    3.5800   -2.4450    0.7650 C   0  0  0  0  0  0  0  0  0  0  0  0
    3.4100   -0.9210    0.5490 C   0  0  1  0  0  0  0  0  0  0  0  0
    4.6910   -0.2850    0.1920 C   0  0  0  0  0  0  0  0  0  0  0  0
    5.2340    0.8280    0.7900 C   0  0  0  0  0  0  0  0  0  0  0  0
    6.4510    1.1230    0.2370 O   0  0  0  0  0  0  0  0  0  0  0  0
    6.6930    0.1730   -0.7210 C   0  0  0  0  0  0  0  0  0  0  0  0
    5.6520   -0.7160   -0.7900 C   0  0  0  0  0  0  0  0  0  0  0  0
    0.3260   -2.3450   -1.1000 C   0  0  0  0  0  0  0  0  0  0  0  0
    0.1220   -3.4190   -1.8620 C   0  0  0  0  0  0  0  0  0  0  0  0
    2.8120   -0.5760   -1.9220 C   0  0  0  0  0  0  0  0  0  0  0  0
   -5.4590    1.8870   -2.9000 H   0  0  0  0  0  0  0  0  0  0  0  0
   -5.4460    2.5510   -1.2370 H   0  0  0  0  0  0  0  0  0  0  0  0
   -4.0650    2.8810   -2.3370 H   0  0  0  0  0  0  0  0  0  0  0  0
   -4.4180   -1.9400   -0.1840 H   0  0  0  0  0  0  0  0  0  0  0  0
   -3.2870   -1.5190   -1.4820 H   0  0  0  0  0  0  0  0  0  0  0  0
   -2.3990    0.3960    0.1320 H   0  0  0  0  0  0  0  0  0  0  0  0
   -2.6160   -3.2920    1.2490 H   0  0  0  0  0  0  0  0  0  0  0  0
   -2.4010   -3.3840   -0.4980 H   0  0  0  0  0  0  0  0  0  0  0  0
   -1.0560   -3.7090    0.5770 H   0  0  0  0  0  0  0  0  0  0  0  0
    0.2730   -1.9270    1.6380 H   0  0  0  0  0  0  0  0  0  0  0  0
   -0.3380   -0.5030    3.5400 H   0  0  0  0  0  0  0  0  0  0  0  0
   -4.2790   -1.4480    3.5430 H   0  0  0  0  0  0  0  0  0  0  0  0
   -3.1410   -2.4500    2.6420 H   0  0  0  0  0  0  0  0  0  0  0  0
   -4.7520   -2.1250    1.9930 H   0  0  0  0  0  0  0  0  0  0  0  0
   -5.4460    0.1620    1.3440 H   0  0  0  0  0  0  0  0  0  0  0  0
   -4.2730    1.4890    1.1810 H   0  0  0  0  0  0  0  0  0  0  0  0
   -4.8210    0.9630    2.7660 H   0  0  0  0  0  0  0  0  0  0  0  0
   -1.4870   -1.3620   -1.7170 H   0  0  0  0  0  0  0  0  0  0  0  0
    0.3210    0.0900   -2.1460 H   0  0  0  0  0  0  0  0  0  0  0  0
   -0.8070    1.5880   -3.4970 H   0  0  0  0  0  0  0  0  0  0  0  0
    0.7100    2.2750   -2.8540 H   0  0  0  0  0  0  0  0  0  0  0  0
   -0.6370    3.3300   -3.2810 H   0  0  0  0  0  0  0  0  0  0  0  0
    0.9290    0.2330    0.9210 H   0  0  0  0  0  0  0  0  0  0  0  0
    2.9570    3.7220   -1.1310 H   0  0  0  0  0  0  0  0  0  0  0  0
    3.0620    4.3630    0.5220 H   0  0  0  0  0  0  0  0  0  0  0  0
    1.4930    4.2910   -0.3050 H   0  0  0  0  0  0  0  0  0  0  0  0
    2.0770   -4.0870    0.3750 H   0  0  0  0  0  0  0  0  0  0  0  0
    4.4680   -2.8650    0.2530 H   0  0  0  0  0  0  0  0  0  0  0  0
    3.7290   -2.6980    1.8330 H   0  0  0  0  0  0  0  0  0  0  0  0
    3.0560   -0.4710    1.5130 H   0  0  0  0  0  0  0  0  0  0  0  0
    4.9120    1.4860    1.5890 H   0  0  0  0  0  0  0  0  0  0  0  0
    7.6330    0.2740   -1.2480 H   0  0  0  0  0  0  0  0  0  0  0  0
    5.5740   -1.5750   -1.4420 H   0  0  0  0  0  0  0  0  0  0  0  0
    0.8770   -4.1800   -2.0290 H   0  0  0  0  0  0  0  0  0  0  0  0
   -0.8040   -3.6280   -2.3880 H   0  0  0  0  0  0  0  0  0  0  0  0
    1.9960   -0.4630   -2.6560 H   0  0  0  0  0  0  0  0  0  0  0  0
    3.4180   -1.4270   -2.2630 H   0  0  0  0  0  0  0  0  0  0  0  0
    3.4350    0.3260   -2.0050 H   0  0  0  0  0  0  0  0  0  0  0  0
  1 40  1  0
  1 42  1  0
  1  2  1  0
  1 41  1  0
  2  3  1  0
  3  4  2  0
  3  5  1  0
  5 44  1  0
  5 43  1  0
  5  6  1  0
  6 45  1  6
  6  7  1  0
  6 13  1  0
  7 16  1  0
  7  8  1  6
  7  9  1  0
  8 47  1  0
  8 48  1  0
  8 46  1  0
  9 49  1  0
  9 10  2  0
 10 11  1  0
 10 50  1  0
 11 13  1  0
 11 12  2  0
 13 15  1  6
 13 14  1  0
 14 53  1  0
 14 52  1  0
 14 51  1  0
 15 55  1  0
 15 54  1  0
 15 56  1  0
 16 57  1  6
 16 37  1  0
 16 17  1  0
 17 58  1  6
 17 18  1  0
 17 22  1  0
 18 19  1  0
 19 21  1  0
 19 20  2  0
 21 59  1  0
 21 61  1  0
 21 60  1  0
 22 23  1  0
 22 27  1  0
 22 62  1  1
 23 24  1  0
 24 26  1  0
 24 25  2  0
 26 63  1  0
 26 65  1  0
 26 64  1  0
 27 39  1  6
 27 28  1  0
 27 31  1  0
 28 37  1  0
 28 29  2  0
 29 66  1  0
 29 30  1  0
 30 67  1  0
 30 31  1  0
 30 68  1  0
 31 32  1  0
 31 69  1  1
 32 36  1  0
 32 33  2  0
 33 34  1  0
 33 70  1  0
 34 35  1  0
 35 71  1  0
 35 36  2  0
 36 72  1  0
 37 38  2  0
 38 74  1  0
 38 73  1  0
 39 75  1  0
 39 76  1  0
 39 77  1  0
M  END
>  <id>  (703) 
807

>  <scaffolds>  (703) 
['C1=CCCCC1', 'C=C1C2=CCC(c3ccoc3)C2CCC1C1C=CC(=O)CC1', 'c1ccoc1', 'C1CCCCC1', 'O=C1C=CCCC1']

>  <name>  (703) 
Turraflorin A

>  <formula>  (703) 
C31H38O8

>  <SMILES>  (703) 
COC(=O)C[C@@H]1[C@](C)(C=CC(=O)C1(C)C)[C@H]1[C@@H](OC(=O)C)[C@H](OC(=O)C)[C@@]2(C(=CC[C@H]2c2cocc2)C1=C)C

>  <ChEMBL_id>  (703) 


>  <ZINC_id>  (703) 


>  <PubChem_id>  (703) 
12150033

>  <DrugBank_id>  (703) 


>  <CAS_no>  (703) 
154974-37-5

>  <references>  (703) 
[{'journal': {'name': 'Phytochemistry', 'id': 10}, 'title': 'Limonoids from Turraea floribunda (Meliaceae)', 'year': 2004, 'start_page': 2031, 'volume': 65, 'issue': None, 'doi': '10.1016/j.phytochem.2004.06.019', 'isbn': '', 'despositor': {'code': 'AMU', 'first_name': 'Arnold', 'last_name': 'Amusengeri', 'id': 25}, 'refauthors_set': [{'author': {'first_name': 'Kathryn', 'initials': 'K', 'last_name': 'McFarland', 'id': 936}, 'first_author': True, 'id': 1519}, {'author': {'first_name': 'Dulcie', 'initials': 'DA', 'last_name': 'Mulholland', 'id': 525}, 'first_author': None, 'id': 1520}, {'author': {'first_name': 'Leigh-Anne', 'initials': 'L', 'last_name': 'Fraser', 'id': 937}, 'first_author': None, 'id': 1521}], 'id': 429}]

>  <classifications>  (703) 
[{'classification': 'Limonoids', 'id': 877}, {'classification': 'Carboxylic acids and derivatives (Classyfire)', 'id': 950}]

>  <molecular_mass>  (703) 
538.63

$$$$
SANC00808_minRM1.pdb
     RDKit          3D

 72 75  0  0  1  0  0  0  0  0999 V2000
   -6.0570    3.0780    1.5510 C   0  0  0  0  0  0  0  0  0  0  0  0
   -5.1070    2.7500    0.5640 O   0  0  0  0  0  0  0  0  0  0  0  0
   -4.1510    1.8420    0.8930 C   0  0  0  0  0  0  0  0  0  0  0  0
   -4.1300    1.3590    2.0110 O   0  0  0  0  0  0  0  0  0  0  0  0
   -3.1790    1.6130   -0.2280 C   0  0  0  0  0  0  0  0  0  0  0  0
   -2.7630    0.1400   -0.3230 C   0  0  2  0  0  0  0  0  0  0  0  0
   -1.2540   -0.0030   -0.6980 C   0  0  2  0  0  0  0  0  0  0  0  0
   -0.8180    1.0760   -1.6960 C   0  0  0  0  0  0  0  0  0  0  0  0
   -0.9790   -1.3030   -1.3930 C   0  0  0  0  0  0  0  0  0  0  0  0
   -1.8820   -2.2460   -1.6440 C   0  0  0  0  0  0  0  0  0  0  0  0
   -3.2890   -2.0650   -1.2730 C   0  0  0  0  0  0  0  0  0  0  0  0
   -4.0260   -3.0020   -1.0340 O   0  0  0  0  0  0  0  0  0  0  0  0
   -3.7350   -0.6140   -1.2500 C   0  0  1  0  0  0  0  0  0  0  0  0
   -5.1630   -0.5120   -0.7150 C   0  0  0  0  0  0  0  0  0  0  0  0
   -3.7100   -0.0990   -2.6850 C   0  0  0  0  0  0  0  0  0  0  0  0
   -0.4640    0.0830    0.6520 C   0  0  1  0  0  0  0  0  0  0  0  0
    0.6590   -0.9470    0.9170 C   0  0  1  0  0  0  0  0  0  0  0  0
    0.0950   -2.2220    0.7160 O   0  0  0  0  0  0  0  0  0  0  0  0
    0.6170   -3.2930    1.3710 C   0  0  0  0  0  0  0  0  0  0  0  0
    1.5000   -3.1560    2.1970 O   0  0  0  0  0  0  0  0  0  0  0  0
   -0.0390   -4.5670    0.9490 C   0  0  0  0  0  0  0  0  0  0  0  0
    1.8650   -0.7640   -0.0370 C   0  0  2  0  0  0  0  0  0  0  0  0
    2.7570   -1.8220    0.0550 O   0  0  0  0  0  0  0  0  0  0  0  0
    2.5040    0.6030    0.2600 C   0  0  2  0  0  0  0  0  0  0  0  0
    1.4360    1.6640    0.2140 C   0  0  0  0  0  0  0  0  0  0  0  0
    1.8470    2.7570   -0.4350 C   0  0  0  0  0  0  0  0  0  0  0  0
    3.2330    2.5810   -0.9730 C   0  0  0  0  0  0  0  0  0  0  0  0
    3.4900    1.0630   -0.8510 C   0  0  1  0  0  0  0  0  0  0  0  0
    4.8900    0.7000   -0.5740 C   0  0  0  0  0  0  0  0  0  0  0  0
    5.4550   -0.5310   -0.8160 C   0  0  0  0  0  0  0  0  0  0  0  0
    6.7730   -0.5320   -0.4480 O   0  0  0  0  0  0  0  0  0  0  0  0
    7.0500    0.7190    0.0390 C   0  0  0  0  0  0  0  0  0  0  0  0
    5.9340    1.5140   -0.0120 C   0  0  0  0  0  0  0  0  0  0  0  0
    0.1640    1.4320    0.8700 C   0  0  0  0  0  0  0  0  0  0  0  0
   -0.3700    2.3570    1.6660 C   0  0  0  0  0  0  0  0  0  0  0  0
    3.1530    0.6440    1.6360 C   0  0  0  0  0  0  0  0  0  0  0  0
   -6.6500    2.2070    1.8750 H   0  0  0  0  0  0  0  0  0  0  0  0
   -6.7160    3.8060    1.0540 H   0  0  0  0  0  0  0  0  0  0  0  0
   -5.6010    3.5410    2.4410 H   0  0  0  0  0  0  0  0  0  0  0  0
   -3.5780    1.9810   -1.2010 H   0  0  0  0  0  0  0  0  0  0  0  0
   -2.3070    2.2800   -0.0320 H   0  0  0  0  0  0  0  0  0  0  0  0
   -2.8640   -0.3400    0.6930 H   0  0  0  0  0  0  0  0  0  0  0  0
   -1.4020    1.0170   -2.6290 H   0  0  0  0  0  0  0  0  0  0  0  0
    0.2390    0.9860   -1.9840 H   0  0  0  0  0  0  0  0  0  0  0  0
   -0.9400    2.1000   -1.3100 H   0  0  0  0  0  0  0  0  0  0  0  0
    0.0610   -1.4510   -1.7240 H   0  0  0  0  0  0  0  0  0  0  0  0
   -1.6200   -3.1890   -2.1350 H   0  0  0  0  0  0  0  0  0  0  0  0
   -5.2360   -0.8030    0.3430 H   0  0  0  0  0  0  0  0  0  0  0  0
   -5.8480   -1.1770   -1.2630 H   0  0  0  0  0  0  0  0  0  0  0  0
   -5.5860    0.4970   -0.8100 H   0  0  0  0  0  0  0  0  0  0  0  0
   -4.0590    0.9440   -2.7490 H   0  0  0  0  0  0  0  0  0  0  0  0
   -2.7030   -0.1150   -3.1310 H   0  0  0  0  0  0  0  0  0  0  0  0
   -4.3620   -0.6920   -3.3430 H   0  0  0  0  0  0  0  0  0  0  0  0
   -1.2230   -0.1020    1.4660 H   0  0  0  0  0  0  0  0  0  0  0  0
    0.9990   -0.8060    1.9850 H   0  0  0  0  0  0  0  0  0  0  0  0
   -1.0140   -4.4210    0.4600 H   0  0  0  0  0  0  0  0  0  0  0  0
   -0.1990   -5.2270    1.8150 H   0  0  0  0  0  0  0  0  0  0  0  0
    0.6070   -5.1040    0.2380 H   0  0  0  0  0  0  0  0  0  0  0  0
    1.5280   -0.8340   -1.1070 H   0  0  0  0  0  0  0  0  0  0  0  0
    3.1500   -1.8390    0.9360 H   0  0  0  0  0  0  0  0  0  0  0  0
    1.2910    3.6780   -0.5880 H   0  0  0  0  0  0  0  0  0  0  0  0
    3.3330    2.9400   -2.0150 H   0  0  0  0  0  0  0  0  0  0  0  0
    3.9460    3.1970   -0.3890 H   0  0  0  0  0  0  0  0  0  0  0  0
    3.2020    0.5820   -1.8220 H   0  0  0  0  0  0  0  0  0  0  0  0
    5.0740   -1.4640   -1.2160 H   0  0  0  0  0  0  0  0  0  0  0  0
    8.0680    0.8720    0.3730 H   0  0  0  0  0  0  0  0  0  0  0  0
    5.8510    2.5430    0.3090 H   0  0  0  0  0  0  0  0  0  0  0  0
   -1.2950    2.2250    2.2200 H   0  0  0  0  0  0  0  0  0  0  0  0
    0.0920    3.3230    1.8430 H   0  0  0  0  0  0  0  0  0  0  0  0
    2.4400    0.3990    2.4390 H   0  0  0  0  0  0  0  0  0  0  0  0
    3.5560    1.6430    1.8600 H   0  0  0  0  0  0  0  0  0  0  0  0
    4.0000   -0.0510    1.7340 H   0  0  0  0  0  0  0  0  0  0  0  0
  1  2  1  0
  1 38  1  0
  1 37  1  0
  1 39  1  0
  2  3  1  0
  3  5  1  0
  3  4  2  0
  5 40  1  0
  5  6  1  0
  5 41  1  0
  6 13  1  0
  6  7  1  0
  6 42  1  1
  7  8  1  6
  7  9  1  0
  7 16  1  0
  8 43  1  0
  8 44  1  0
  8 45  1  0
  9 46  1  0
  9 10  2  0
 10 47  1  0
 10 11  1  0
 11 13  1  0
 11 12  2  0
 13 15  1  6
 13 14  1  0
 14 49  1  0
 14 50  1  0
 14 48  1  0
 15 53  1  0
 15 52  1  0
 15 51  1  0
 16 34  1  0
 16 17  1  0
 16 54  1  1
 17 22  1  0
 17 18  1  0
 17 55  1  1
 18 19  1  0
 19 21  1  0
 19 20  2  0
 21 58  1  0
 21 56  1  0
 21 57  1  0
 22 59  1  6
 22 23  1  0
 22 24  1  0
 23 60  1  0
 24 28  1  0
 24 25  1  0
 24 36  1  1
 25 26  2  0
 25 34  1  0
 26 27  1  0
 26 61  1  0
 27 62  1  0
 27 28  1  0
 27 63  1  0
 28 64  1  6
 28 29  1  0
 29 30  2  0
 29 33  1  0
 30 65  1  0
 30 31  1  0
 31 32  1  0
 32 33  2  0
 32 66  1  0
 33 67  1  0
 34 35  2  0
 35 69  1  0
 35 68  1  0
 36 72  1  0
 36 71  1  0
 36 70  1  0
M  END
>  <id>  (704) 
808

>  <scaffolds>  (704) 
['C1=CCCCC1', 'C=C1C2=CCC(c3ccoc3)C2CCC1C1C=CC(=O)CC1', 'c1ccoc1', 'C1CCCCC1', 'O=C1C=CCCC1']

>  <name>  (704) 
Turraflorin B

>  <formula>  (704) 
C29H36O7

>  <SMILES>  (704) 
COC(=O)C[C@@H]1[C@](C)(C=CC(=O)C1(C)C)[C@H]1[C@@H](OC(=O)C)[C@H](O)[C@@]2(C(=CC[C@H]2c2cocc2)C1=C)C

>  <ChEMBL_id>  (704) 


>  <ZINC_id>  (704) 


>  <PubChem_id>  (704) 


>  <DrugBank_id>  (704) 


>  <CAS_no>  (704) 
154974-38-6

>  <references>  (704) 
[{'journal': {'name': 'Phytochemistry', 'id': 10}, 'title': 'Limonoids from Turraea floribunda (Meliaceae)', 'year': 2004, 'start_page': 2031, 'volume': 65, 'issue': None, 'doi': '10.1016/j.phytochem.2004.06.019', 'isbn': '', 'despositor': {'code': 'AMU', 'first_name': 'Arnold', 'last_name': 'Amusengeri', 'id': 25}, 'refauthors_set': [{'author': {'first_name': 'Kathryn', 'initials': 'K', 'last_name': 'McFarland', 'id': 936}, 'first_author': True, 'id': 1519}, {'author': {'first_name': 'Dulcie', 'initials': 'DA', 'last_name': 'Mulholland', 'id': 525}, 'first_author': None, 'id': 1520}, {'author': {'first_name': 'Leigh-Anne', 'initials': 'L', 'last_name': 'Fraser', 'id': 937}, 'first_author': None, 'id': 1521}], 'id': 429}]

>  <classifications>  (704) 
[{'classification': 'Limonoids', 'id': 877}, {'classification': 'Organooxygen compounds (Classyfire)', 'id': 954}]

>  <molecular_mass>  (704) 
496.59

$$$$
SANC00809_minRM1.pdb
     RDKit          3D

 79 82  0  0  1  0  0  0  0  0999 V2000
   -4.6260   -4.0920   -0.8330 C   0  0  0  0  0  0  0  0  0  0  0  0
   -3.8470   -2.9780   -0.4610 O   0  0  0  0  0  0  0  0  0  0  0  0
   -4.1760   -2.3430    0.6940 C   0  0  0  0  0  0  0  0  0  0  0  0
   -5.0990   -2.7530    1.3760 O   0  0  0  0  0  0  0  0  0  0  0  0
   -3.2410   -1.2090    1.0060 C   0  0  0  0  0  0  0  0  0  0  0  0
   -3.2630   -0.1070   -0.0520 C   0  0  2  0  0  0  0  0  0  0  0  0
   -2.1310    0.9620    0.1510 C   0  0  2  0  0  0  0  0  0  0  0  0
   -2.4580    1.9920    1.2330 C   0  0  0  0  0  0  0  0  0  0  0  0
   -2.1530    1.7120   -1.1600 C   0  0  0  0  0  0  0  0  0  0  0  0
   -3.3090    2.1590   -1.6430 C   0  0  0  0  0  0  0  0  0  0  0  0
   -4.5480    1.9060   -0.8880 C   0  0  0  0  0  0  0  0  0  0  0  0
   -5.4530    2.7200   -0.8650 O   0  0  0  0  0  0  0  0  0  0  0  0
   -4.6560    0.5530   -0.1930 C   0  0  2  0  0  0  0  0  0  0  0  0
   -5.3880    0.7230    1.1360 C   0  0  0  0  0  0  0  0  0  0  0  0
   -5.5530   -0.2590   -1.1380 C   0  0  0  0  0  0  0  0  0  0  0  0
   -0.7630    0.2690    0.4160 C   0  0  1  0  0  0  0  0  0  0  0  0
    0.4300    0.9900   -0.2690 C   0  0  1  0  0  0  0  0  0  0  0  0
    0.5070    2.2370    0.3970 O   0  0  0  0  0  0  0  0  0  0  0  0
    1.1650    3.2630   -0.2030 C   0  0  0  0  0  0  0  0  0  0  0  0
    1.7400    3.1000   -1.2630 O   0  0  0  0  0  0  0  0  0  0  0  0
    1.0710    4.5170    0.6030 C   0  0  0  0  0  0  0  0  0  0  0  0
    1.8050    0.2740   -0.1160 C   0  0  2  0  0  0  0  0  0  0  0  0
    2.3760   -0.1690   -1.3200 O   0  0  0  0  0  0  0  0  0  0  0  0
    1.7050   -0.8880   -2.2570 C   0  0  0  0  0  0  0  0  0  0  0  0
    0.5160   -1.1210   -2.1600 O   0  0  0  0  0  0  0  0  0  0  0  0
    2.6170   -1.2890   -3.3710 C   0  0  0  0  0  0  0  0  0  0  0  0
    1.8140   -0.8290    0.9580 C   0  0  2  0  0  0  0  0  0  0  0  0
    1.0050   -0.2430    2.0800 C   0  0  0  0  0  0  0  0  0  0  0  0
    1.7440    0.0340    3.1580 C   0  0  0  0  0  0  0  0  0  0  0  0
    3.1820   -0.3190    2.9580 C   0  0  0  0  0  0  0  0  0  0  0  0
    3.2230   -1.0550    1.6010 C   0  0  2  0  0  0  0  0  0  0  0  0
    4.3360   -0.6380    0.7270 C   0  0  0  0  0  0  0  0  0  0  0  0
    5.0720    0.4750    0.6780 C   0  0  0  0  0  0  0  0  0  0  0  0
    6.0480    0.3710   -0.4900 C   0  0  1  0  0  0  0  0  0  0  0  0
    5.8240   -0.9180   -1.0540 O   0  0  0  0  0  0  0  0  0  0  0  0
    4.8100   -1.5360   -0.3660 C   0  0  0  0  0  0  0  0  0  0  0  0
    4.4800   -2.6480   -0.7020 O   0  0  0  0  0  0  0  0  0  0  0  0
    5.8030    1.2900   -1.4840 O   0  0  0  0  0  0  0  0  0  0  0  0
   -0.4050    0.0310    1.8600 C   0  0  0  0  0  0  0  0  0  0  0  0
   -1.2220   -0.0070    2.9120 C   0  0  0  0  0  0  0  0  0  0  0  0
    1.2530   -2.1620    0.4960 C   0  0  0  0  0  0  0  0  0  0  0  0
   -4.1870   -4.4160   -1.7880 H   0  0  0  0  0  0  0  0  0  0  0  0
   -5.6880   -3.8390   -0.9820 H   0  0  0  0  0  0  0  0  0  0  0  0
   -4.5630   -4.9140   -0.1010 H   0  0  0  0  0  0  0  0  0  0  0  0
   -2.2290   -1.6680    1.0910 H   0  0  0  0  0  0  0  0  0  0  0  0
   -3.4590   -0.8230    2.0270 H   0  0  0  0  0  0  0  0  0  0  0  0
   -3.0250   -0.6080   -1.0320 H   0  0  0  0  0  0  0  0  0  0  0  0
   -1.5610    2.4360    1.6880 H   0  0  0  0  0  0  0  0  0  0  0  0
   -3.0440    2.8500    0.8720 H   0  0  0  0  0  0  0  0  0  0  0  0
   -3.0490    1.5630    2.0610 H   0  0  0  0  0  0  0  0  0  0  0  0
   -1.2280    1.8910   -1.7160 H   0  0  0  0  0  0  0  0  0  0  0  0
   -3.3980    2.7220   -2.5760 H   0  0  0  0  0  0  0  0  0  0  0  0
   -5.7200   -0.2340    1.5650 H   0  0  0  0  0  0  0  0  0  0  0  0
   -6.3040    1.3250    1.0310 H   0  0  0  0  0  0  0  0  0  0  0  0
   -4.7740    1.2250    1.9000 H   0  0  0  0  0  0  0  0  0  0  0  0
   -5.8220   -1.2460   -0.7400 H   0  0  0  0  0  0  0  0  0  0  0  0
   -6.5120    0.2510   -1.3240 H   0  0  0  0  0  0  0  0  0  0  0  0
   -5.0910   -0.4260   -2.1220 H   0  0  0  0  0  0  0  0  0  0  0  0
   -0.8020   -0.7490   -0.0730 H   0  0  0  0  0  0  0  0  0  0  0  0
    0.2180    1.1450   -1.3650 H   0  0  0  0  0  0  0  0  0  0  0  0
    0.0230    4.8240    0.7450 H   0  0  0  0  0  0  0  0  0  0  0  0
    1.5070    4.3860    1.6050 H   0  0  0  0  0  0  0  0  0  0  0  0
    1.5990    5.3470    0.1120 H   0  0  0  0  0  0  0  0  0  0  0  0
    2.5760    1.0480    0.1640 H   0  0  0  0  0  0  0  0  0  0  0  0
    3.3790   -2.0060   -3.0230 H   0  0  0  0  0  0  0  0  0  0  0  0
    2.0590   -1.7690   -4.1880 H   0  0  0  0  0  0  0  0  0  0  0  0
    3.1540   -0.4270   -3.7950 H   0  0  0  0  0  0  0  0  0  0  0  0
    1.4100    0.4860    4.0880 H   0  0  0  0  0  0  0  0  0  0  0  0
    3.8080    0.5930    2.9950 H   0  0  0  0  0  0  0  0  0  0  0  0
    3.5680   -0.9530    3.7810 H   0  0  0  0  0  0  0  0  0  0  0  0
    3.3660   -2.1500    1.8040 H   0  0  0  0  0  0  0  0  0  0  0  0
    5.0450    1.3680    1.2920 H   0  0  0  0  0  0  0  0  0  0  0  0
    7.1280    0.4750   -0.2180 H   0  0  0  0  0  0  0  0  0  0  0  0
    4.8830    1.2280   -1.7730 H   0  0  0  0  0  0  0  0  0  0  0  0
   -2.2950    0.1780    2.8950 H   0  0  0  0  0  0  0  0  0  0  0  0
   -0.8840   -0.2400    3.9180 H   0  0  0  0  0  0  0  0  0  0  0  0
    1.1770   -2.8800    1.3280 H   0  0  0  0  0  0  0  0  0  0  0  0
    0.2330   -2.0860    0.0850 H   0  0  0  0  0  0  0  0  0  0  0  0
    1.8810   -2.6380   -0.2710 H   0  0  0  0  0  0  0  0  0  0  0  0
  1 42  1  0
  1 43  1  0
  1  2  1  0
  1 44  1  0
  2  3  1  0
  3  5  1  0
  3  4  2  0
  5  6  1  0
  5 45  1  0
  5 46  1  0
  6 47  1  6
  6 13  1  0
  6  7  1  0
  7  9  1  0
  7 16  1  0
  7  8  1  1
  8 49  1  0
  8 48  1  0
  8 50  1  0
  9 51  1  0
  9 10  2  0
 10 52  1  0
 10 11  1  0
 11 12  2  0
 11 13  1  0
 13 15  1  6
 13 14  1  0
 14 54  1  0
 14 53  1  0
 14 55  1  0
 15 58  1  0
 15 57  1  0
 15 56  1  0
 16 17  1  0
 16 59  1  6
 16 39  1  0
 17 60  1  6
 17 22  1  0
 17 18  1  0
 18 19  1  0
 19 20  2  0
 19 21  1  0
 21 63  1  0
 21 61  1  0
 21 62  1  0
 22 23  1  0
 22 64  1  1
 22 27  1  0
 23 24  1  0
 24 26  1  0
 24 25  2  0
 26 66  1  0
 26 67  1  0
 26 65  1  0
 27 41  1  6
 27 31  1  0
 27 28  1  0
 28 39  1  0
 28 29  2  0
 29 30  1  0
 29 68  1  0
 30 31  1  0
 30 69  1  0
 30 70  1  0
 31 32  1  0
 31 71  1  1
 32 36  1  0
 32 33  2  0
 33 34  1  0
 33 72  1  0
 34 38  1  0
 34 35  1  0
 34 73  1  1
 35 36  1  0
 36 37  2  0
 38 74  1  0
 39 40  2  0
 40 75  1  0
 40 76  1  0
 41 79  1  0
 41 78  1  0
 41 77  1  0
M  END
>  <id>  (705) 
809

>  <scaffolds>  (705) 
['C1=CCCCC1', 'C1CCCCC1', 'O=C1C=CCCC1']

>  <name>  (705) 
Turraflorin D

>  <formula>  (705) 
C31H38O10

>  <SMILES>  (705) 
COC(=O)C[C@@H]1[C@](C)(C=CC(=O)C1(C)C)[C@H]1[C@@H](OC(=O)C)[C@H](OC(=O)C)[C@@]2(C(=CC[C@@H]2C2=CC(OC2=O)O)C1=C)C

>  <ChEMBL_id>  (705) 


>  <ZINC_id>  (705) 


>  <PubChem_id>  (705) 


>  <DrugBank_id>  (705) 


>  <CAS_no>  (705) 
760996-56-3

>  <references>  (705) 
[{'journal': {'name': 'Phytochemistry', 'id': 10}, 'title': 'Limonoids from Turraea floribunda (Meliaceae)', 'year': 2004, 'start_page': 2031, 'volume': 65, 'issue': None, 'doi': '10.1016/j.phytochem.2004.06.019', 'isbn': '', 'despositor': {'code': 'AMU', 'first_name': 'Arnold', 'last_name': 'Amusengeri', 'id': 25}, 'refauthors_set': [{'author': {'first_name': 'Kathryn', 'initials': 'K', 'last_name': 'McFarland', 'id': 936}, 'first_author': True, 'id': 1519}, {'author': {'first_name': 'Dulcie', 'initials': 'DA', 'last_name': 'Mulholland', 'id': 525}, 'first_author': None, 'id': 1520}, {'author': {'first_name': 'Leigh-Anne', 'initials': 'L', 'last_name': 'Fraser', 'id': 937}, 'first_author': None, 'id': 1521}], 'id': 429}]

>  <classifications>  (705) 
[{'classification': 'Limonoids', 'id': 877}, {'classification': 'Carboxylic acids and derivatives (Classyfire)', 'id': 950}]

>  <molecular_mass>  (705) 
570.63

$$$$
SANC00810_minRM1.pdb
     RDKit          3D

 79 82  0  0  1  0  0  0  0  0999 V2000
    7.2740    1.2810    0.7360 C   0  0  0  0  0  0  0  0  0  0  0  0
    6.2540    0.7090   -0.0490 O   0  0  0  0  0  0  0  0  0  0  0  0
    4.9810    1.1480    0.1540 C   0  0  0  0  0  0  0  0  0  0  0  0
    4.7910    2.0420    0.9580 O   0  0  0  0  0  0  0  0  0  0  0  0
    4.0110    0.4790   -0.7780 C   0  0  0  0  0  0  0  0  0  0  0  0
    2.8640   -0.3190   -0.1440 C   0  0  2  0  0  0  0  0  0  0  0  0
    1.5800    0.5280    0.1050 C   0  0  2  0  0  0  0  0  0  0  0  0
    1.9040    1.8900    0.7250 C   0  0  0  0  0  0  0  0  0  0  0  0
    0.6650   -0.1320    1.0890 C   0  0  0  0  0  0  0  0  0  0  0  0
    0.8950   -1.2900    1.6970 C   0  0  0  0  0  0  0  0  0  0  0  0
    2.1130   -2.0530    1.4070 C   0  0  0  0  0  0  0  0  0  0  0  0
    2.1490   -3.2680    1.4610 O   0  0  0  0  0  0  0  0  0  0  0  0
    3.3180   -1.1970    1.0380 C   0  0  1  0  0  0  0  0  0  0  0  0
    4.4660   -2.1130    0.6110 C   0  0  0  0  0  0  0  0  0  0  0  0
    3.7180   -0.4510    2.3050 C   0  0  0  0  0  0  0  0  0  0  0  0
    0.8430    0.7180   -1.2660 C   0  0  1  0  0  0  0  0  0  0  0  0
   -0.3040   -0.2640   -1.6010 C   0  0  1  0  0  0  0  0  0  0  0  0
    0.0100   -1.5770   -1.1980 O   0  0  0  0  0  0  0  0  0  0  0  0
    0.7140   -2.3800   -2.0420 C   0  0  0  0  0  0  0  0  0  0  0  0
    1.1320   -1.9500   -3.1020 O   0  0  0  0  0  0  0  0  0  0  0  0
    0.8940   -3.7530   -1.4830 C   0  0  0  0  0  0  0  0  0  0  0  0
   -1.6530    0.0310   -0.8850 C   0  0  2  0  0  0  0  0  0  0  0  0
   -2.5730   -0.9100   -1.3920 O   0  0  0  0  0  0  0  0  0  0  0  0
   -2.8330   -2.0440   -0.6830 C   0  0  0  0  0  0  0  0  0  0  0  0
   -2.4890   -2.1560    0.4770 O   0  0  0  0  0  0  0  0  0  0  0  0
   -3.6010   -3.0270   -1.5060 C   0  0  0  0  0  0  0  0  0  0  0  0
   -2.1470    1.4250   -1.3020 C   0  0  2  0  0  0  0  0  0  0  0  0
   -1.0350    2.3840   -0.9820 C   0  0  0  0  0  0  0  0  0  0  0  0
   -1.4560    3.4520   -0.3020 C   0  0  0  0  0  0  0  0  0  0  0  0
   -2.9220    3.3870   -0.0290 C   0  0  0  0  0  0  0  0  0  0  0  0
   -3.3650    1.9810   -0.4960 C   0  0  2  0  0  0  0  0  0  0  0  0
   -3.8050    1.0860    0.5970 C   0  0  0  0  0  0  0  0  0  0  0  0
   -4.5840    0.0050    0.4690 C   0  0  0  0  0  0  0  0  0  0  0  0
   -4.7180   -0.6330    1.8010 C   0  0  0  0  0  0  0  0  0  0  0  0
   -5.3270   -1.6020    2.1810 O   0  0  0  0  0  0  0  0  0  0  0  0
   -3.9720    0.0790    2.7130 O   0  0  0  0  0  0  0  0  0  0  0  0
   -3.4460    1.2370    2.0780 C   0  0  2  0  0  0  0  0  0  0  0  0
   -4.0590    2.3120    2.6920 O   0  0  0  0  0  0  0  0  0  0  0  0
    0.3090    2.1100   -1.4470 C   0  0  0  0  0  0  0  0  0  0  0  0
    1.0200    3.0740   -2.0330 C   0  0  0  0  0  0  0  0  0  0  0  0
   -2.4470    1.4900   -2.7970 C   0  0  0  0  0  0  0  0  0  0  0  0
    7.1220    1.1170    1.8150 H   0  0  0  0  0  0  0  0  0  0  0  0
    7.3890    2.3630    0.5590 H   0  0  0  0  0  0  0  0  0  0  0  0
    8.1850    0.7570    0.4100 H   0  0  0  0  0  0  0  0  0  0  0  0
    3.6230    1.2750   -1.4530 H   0  0  0  0  0  0  0  0  0  0  0  0
    4.5630   -0.1970   -1.4750 H   0  0  0  0  0  0  0  0  0  0  0  0
    2.5790   -1.0710   -0.9360 H   0  0  0  0  0  0  0  0  0  0  0  0
    0.9980    2.4720    0.9610 H   0  0  0  0  0  0  0  0  0  0  0  0
    2.5110    2.5400    0.0830 H   0  0  0  0  0  0  0  0  0  0  0  0
    2.4420    1.7800    1.6820 H   0  0  0  0  0  0  0  0  0  0  0  0
   -0.2600    0.4220    1.3070 H   0  0  0  0  0  0  0  0  0  0  0  0
    0.1840   -1.7380    2.4000 H   0  0  0  0  0  0  0  0  0  0  0  0
    5.3920   -1.5750    0.3720 H   0  0  0  0  0  0  0  0  0  0  0  0
    4.2140   -2.7210   -0.2700 H   0  0  0  0  0  0  0  0  0  0  0  0
    4.7280   -2.8240    1.4100 H   0  0  0  0  0  0  0  0  0  0  0  0
    3.5910   -1.0770    3.2030 H   0  0  0  0  0  0  0  0  0  0  0  0
    4.7760   -0.1530    2.3160 H   0  0  0  0  0  0  0  0  0  0  0  0
    3.1250    0.4610    2.4730 H   0  0  0  0  0  0  0  0  0  0  0  0
    1.6010    0.5520   -2.0820 H   0  0  0  0  0  0  0  0  0  0  0  0
   -0.4910   -0.1960   -2.7150 H   0  0  0  0  0  0  0  0  0  0  0  0
    1.9400   -3.9010   -1.1690 H   0  0  0  0  0  0  0  0  0  0  0  0
    0.6670   -4.5140   -2.2440 H   0  0  0  0  0  0  0  0  0  0  0  0
    0.2690   -3.9620   -0.6000 H   0  0  0  0  0  0  0  0  0  0  0  0
   -1.5380   -0.0090    0.2330 H   0  0  0  0  0  0  0  0  0  0  0  0
   -3.9540   -3.8680   -0.8900 H   0  0  0  0  0  0  0  0  0  0  0  0
   -4.4820   -2.5700   -1.9810 H   0  0  0  0  0  0  0  0  0  0  0  0
   -2.9750   -3.4400   -2.3110 H   0  0  0  0  0  0  0  0  0  0  0  0
   -0.8550    4.2920    0.0370 H   0  0  0  0  0  0  0  0  0  0  0  0
   -3.4500    4.1790   -0.6040 H   0  0  0  0  0  0  0  0  0  0  0  0
   -3.1500    3.6290    1.0240 H   0  0  0  0  0  0  0  0  0  0  0  0
   -4.2500    2.0890   -1.1760 H   0  0  0  0  0  0  0  0  0  0  0  0
   -5.0630   -0.4030   -0.4160 H   0  0  0  0  0  0  0  0  0  0  0  0
   -2.3540    1.3300    2.2980 H   0  0  0  0  0  0  0  0  0  0  0  0
   -5.0180    2.2310    2.6260 H   0  0  0  0  0  0  0  0  0  0  0  0
    2.0240    2.9420   -2.4240 H   0  0  0  0  0  0  0  0  0  0  0  0
    0.6470    4.0840   -2.1780 H   0  0  0  0  0  0  0  0  0  0  0  0
   -3.3120    0.8730   -3.0790 H   0  0  0  0  0  0  0  0  0  0  0  0
   -1.5980    1.1330   -3.4020 H   0  0  0  0  0  0  0  0  0  0  0  0
   -2.6610    2.5170   -3.1270 H   0  0  0  0  0  0  0  0  0  0  0  0
  1  2  1  0
  1 44  1  0
  1 43  1  0
  1 42  1  0
  2  3  1  0
  3  5  1  0
  3  4  2  0
  5 46  1  0
  5 45  1  0
  5  6  1  0
  6 47  1  6
  6  7  1  0
  6 13  1  0
  7 16  1  0
  7  8  1  1
  7  9  1  0
  8 49  1  0
  8 48  1  0
  8 50  1  0
  9 51  1  0
  9 10  2  0
 10 11  1  0
 10 52  1  0
 11 13  1  0
 11 12  2  0
 13 14  1  6
 13 15  1  0
 14 54  1  0
 14 53  1  0
 14 55  1  0
 15 57  1  0
 15 58  1  0
 15 56  1  0
 16 59  1  6
 16 17  1  0
 16 39  1  0
 17 60  1  6
 17 18  1  0
 17 22  1  0
 18 19  1  0
 19 20  2  0
 19 21  1  0
 21 62  1  0
 21 61  1  0
 21 63  1  0
 22 23  1  0
 22 27  1  0
 22 64  1  1
 23 24  1  0
 24 26  1  0
 24 25  2  0
 26 67  1  0
 26 66  1  0
 26 65  1  0
 27 41  1  6
 27 28  1  0
 27 31  1  0
 28 39  1  0
 28 29  2  0
 29 30  1  0
 29 68  1  0
 30 69  1  0
 30 31  1  0
 30 70  1  0
 31 71  1  6
 31 32  1  0
 32 33  2  0
 32 37  1  0
 33 72  1  0
 33 34  1  0
 34 35  2  0
 34 36  1  0
 36 37  1  0
 37 73  1  6
 37 38  1  0
 38 74  1  0
 39 40  2  0
 40 75  1  0
 40 76  1  0
 41 78  1  0
 41 79  1  0
 41 77  1  0
M  END
>  <id>  (706) 
810

>  <scaffolds>  (706) 
['C1=CCCCC1', 'C1CCCCC1', 'O=C1C=CCCC1']

>  <name>  (706) 
Turraflorin E

>  <formula>  (706) 
C31H38O10

>  <SMILES>  (706) 
COC(=O)C[C@@H]1[C@](C)(C=CC(=O)C1(C)C)[C@H]1[C@@H](OC(=O)C)[C@H](OC(=O)C)[C@@]2(C(=CC[C@@H]2C2=CC(=O)OC2O)C1=C)C

>  <ChEMBL_id>  (706) 


>  <ZINC_id>  (706) 


>  <PubChem_id>  (706) 


>  <DrugBank_id>  (706) 


>  <CAS_no>  (706) 
760996-57-4

>  <references>  (706) 
[{'journal': {'name': 'Phytochemistry', 'id': 10}, 'title': 'Limonoids from Turraea floribunda (Meliaceae)', 'year': 2004, 'start_page': 2031, 'volume': 65, 'issue': None, 'doi': '10.1016/j.phytochem.2004.06.019', 'isbn': '', 'despositor': {'code': 'AMU', 'first_name': 'Arnold', 'last_name': 'Amusengeri', 'id': 25}, 'refauthors_set': [{'author': {'first_name': 'Kathryn', 'initials': 'K', 'last_name': 'McFarland', 'id': 936}, 'first_author': True, 'id': 1519}, {'author': {'first_name': 'Dulcie', 'initials': 'DA', 'last_name': 'Mulholland', 'id': 525}, 'first_author': None, 'id': 1520}, {'author': {'first_name': 'Leigh-Anne', 'initials': 'L', 'last_name': 'Fraser', 'id': 937}, 'first_author': None, 'id': 1521}], 'id': 429}]

>  <classifications>  (706) 
[{'classification': 'Limonoids', 'id': 877}, {'classification': 'Carboxylic acids and derivatives (Classyfire)', 'id': 950}]

>  <molecular_mass>  (706) 
570.63

$$$$
SANC00811_minRM1.pdb
     RDKit          3D

 73 76  0  0  1  0  0  0  0  0999 V2000
    3.6870    3.5610   -2.3690 C   0  0  0  0  0  0  0  0  0  0  0  0
    2.6160    2.7100   -2.0300 O   0  0  0  0  0  0  0  0  0  0  0  0
    2.6570    2.1010   -0.8120 C   0  0  0  0  0  0  0  0  0  0  0  0
    3.5970    2.3230   -0.0700 O   0  0  0  0  0  0  0  0  0  0  0  0
    1.4170    1.3000   -0.5470 C   0  0  0  0  0  0  0  0  0  0  0  0
    1.5720   -0.2160   -0.3640 C   0  0  2  0  0  0  0  0  0  0  0  0
    1.8430   -0.6600    1.1030 C   0  0  2  0  0  0  0  0  0  0  0  0
    2.4560    0.4510    1.9570 C   0  0  0  0  0  0  0  0  0  0  0  0
    2.8170   -1.8130    1.1850 C   0  0  0  0  0  0  0  0  0  0  0  0
    3.0890   -2.6320    0.1740 C   0  0  0  0  0  0  0  0  0  0  0  0
    2.5310   -2.3290   -1.1500 C   0  0  0  0  0  0  0  0  0  0  0  0
    2.1560   -3.1760   -1.9360 O   0  0  0  0  0  0  0  0  0  0  0  0
    2.5160   -0.8310   -1.4210 C   0  0  1  0  0  0  0  0  0  0  0  0
    1.9930   -0.5770   -2.8340 C   0  0  0  0  0  0  0  0  0  0  0  0
    3.9720   -0.3770   -1.3420 C   0  0  0  0  0  0  0  0  0  0  0  0
    0.5790   -1.2450    1.8250 C   0  0  1  0  0  0  0  0  0  0  0  0
   -0.6010   -0.3600    2.2910 C   0  0  1  0  0  0  0  0  0  0  0  0
   -0.1250    0.6570    3.1360 O   0  0  0  0  0  0  0  0  0  0  0  0
   -0.3650    1.9810    2.9780 C   0  0  0  0  0  0  0  0  0  0  0  0
   -0.7100    2.4700    1.9190 O   0  0  0  0  0  0  0  0  0  0  0  0
   -0.0880    2.7150    4.2530 C   0  0  0  0  0  0  0  0  0  0  0  0
   -1.5990    0.0540    1.1880 C   0  0  2  0  0  0  0  0  0  0  0  0
   -2.5700    0.7960    1.8620 O   0  0  0  0  0  0  0  0  0  0  0  0
   -2.2270   -1.2290    0.6070 C   0  0  2  0  0  0  0  0  0  0  0  0
   -1.1200   -2.1440    0.1680 C   0  0  0  0  0  0  0  0  0  0  0  0
   -1.3540   -2.6840   -1.0320 C   0  0  0  0  0  0  0  0  0  0  0  0
   -2.6500   -2.2040   -1.6010 C   0  0  0  0  0  0  0  0  0  0  0  0
   -3.0800   -1.0330   -0.6810 C   0  0  2  0  0  0  0  0  0  0  0  0
   -2.8670    0.2580   -1.3670 C   0  0  0  0  0  0  0  0  0  0  0  0
   -1.9050    0.6480   -2.2130 C   0  0  0  0  0  0  0  0  0  0  0  0
   -2.2010    2.0510   -2.6790 C   0  0  0  0  0  0  0  0  0  0  0  0
   -3.4200    2.4220   -2.0480 O   0  0  0  0  0  0  0  0  0  0  0  0
   -3.8390    1.3770   -1.2590 C   0  0  0  0  0  0  0  0  0  0  0  0
   -4.8660    1.5060   -0.6350 O   0  0  0  0  0  0  0  0  0  0  0  0
    0.0090   -2.3950    1.0430 C   0  0  0  0  0  0  0  0  0  0  0  0
    0.4850   -3.6340    1.1700 C   0  0  0  0  0  0  0  0  0  0  0  0
   -3.0710   -1.9520    1.6550 C   0  0  0  0  0  0  0  0  0  0  0  0
    4.6540    3.0320   -2.4070 H   0  0  0  0  0  0  0  0  0  0  0  0
    3.7840    4.4160   -1.6810 H   0  0  0  0  0  0  0  0  0  0  0  0
    3.4290    3.9260   -3.3740 H   0  0  0  0  0  0  0  0  0  0  0  0
    0.6620    1.4920   -1.3440 H   0  0  0  0  0  0  0  0  0  0  0  0
    0.9650    1.7540    0.3660 H   0  0  0  0  0  0  0  0  0  0  0  0
    0.5600   -0.6280   -0.6320 H   0  0  0  0  0  0  0  0  0  0  0  0
    1.9410    1.4180    1.8550 H   0  0  0  0  0  0  0  0  0  0  0  0
    2.4440    0.2140    3.0320 H   0  0  0  0  0  0  0  0  0  0  0  0
    3.5110    0.6340    1.7060 H   0  0  0  0  0  0  0  0  0  0  0  0
    3.2740   -1.9860    2.1680 H   0  0  0  0  0  0  0  0  0  0  0  0
    3.7350   -3.5090    0.2630 H   0  0  0  0  0  0  0  0  0  0  0  0
    0.9920   -1.0040   -2.9940 H   0  0  0  0  0  0  0  0  0  0  0  0
    1.9410    0.4880   -3.0920 H   0  0  0  0  0  0  0  0  0  0  0  0
    2.6440   -1.0470   -3.5880 H   0  0  0  0  0  0  0  0  0  0  0  0
    4.6590   -1.1400   -1.7460 H   0  0  0  0  0  0  0  0  0  0  0  0
    4.1790    0.5220   -1.9400 H   0  0  0  0  0  0  0  0  0  0  0  0
    4.3070   -0.1740   -0.3160 H   0  0  0  0  0  0  0  0  0  0  0  0
    0.9750   -1.6570    2.8000 H   0  0  0  0  0  0  0  0  0  0  0  0
   -1.1800   -0.9930    3.0360 H   0  0  0  0  0  0  0  0  0  0  0  0
   -0.8060    2.4260    5.0360 H   0  0  0  0  0  0  0  0  0  0  0  0
    0.9190    2.5010    4.6400 H   0  0  0  0  0  0  0  0  0  0  0  0
   -0.1680    3.8030    4.1110 H   0  0  0  0  0  0  0  0  0  0  0  0
   -1.0890    0.6270    0.3720 H   0  0  0  0  0  0  0  0  0  0  0  0
   -2.9720    1.4030    1.2350 H   0  0  0  0  0  0  0  0  0  0  0  0
   -0.7230   -3.3840   -1.5740 H   0  0  0  0  0  0  0  0  0  0  0  0
   -2.5680   -1.9220   -2.6680 H   0  0  0  0  0  0  0  0  0  0  0  0
   -3.4000   -3.0220   -1.5870 H   0  0  0  0  0  0  0  0  0  0  0  0
   -4.1710   -1.1080   -0.4420 H   0  0  0  0  0  0  0  0  0  0  0  0
   -1.0350    0.1010   -2.5600 H   0  0  0  0  0  0  0  0  0  0  0  0
   -1.4160    2.7810   -2.3870 H   0  0  0  0  0  0  0  0  0  0  0  0
   -2.3390    2.1240   -3.7780 H   0  0  0  0  0  0  0  0  0  0  0  0
    1.2950   -3.9150    1.8360 H   0  0  0  0  0  0  0  0  0  0  0  0
    0.0920   -4.4840    0.6180 H   0  0  0  0  0  0  0  0  0  0  0  0
   -3.9400   -1.3580    1.9760 H   0  0  0  0  0  0  0  0  0  0  0  0
   -3.4550   -2.9110    1.2800 H   0  0  0  0  0  0  0  0  0  0  0  0
   -2.4910   -2.1730    2.5650 H   0  0  0  0  0  0  0  0  0  0  0  0
  1 40  1  0
  1 38  1  0
  1  2  1  0
  1 39  1  0
  2  3  1  0
  3  5  1  0
  3  4  2  0
  5 41  1  0
  5  6  1  0
  5 42  1  0
  6 13  1  0
  6 43  1  6
  6  7  1  0
  7  9  1  0
  7 16  1  0
  7  8  1  1
  8 46  1  0
  8 44  1  0
  8 45  1  0
  9 10  2  0
  9 47  1  0
 10 11  1  0
 10 48  1  0
 11 12  2  0
 11 13  1  0
 13 14  1  6
 13 15  1  0
 14 51  1  0
 14 50  1  0
 14 49  1  0
 15 53  1  0
 15 52  1  0
 15 54  1  0
 16 35  1  0
 16 17  1  0
 16 55  1  1
 17 22  1  0
 17 56  1  1
 17 18  1  0
 18 19  1  0
 19 20  2  0
 19 21  1  0
 21 59  1  0
 21 58  1  0
 21 57  1  0
 22 60  1  6
 22 24  1  0
 22 23  1  0
 23 61  1  0
 24 28  1  0
 24 25  1  0
 24 37  1  1
 25 26  2  0
 25 35  1  0
 26 27  1  0
 26 62  1  0
 27 63  1  0
 27 64  1  0
 27 28  1  0
 28 29  1  0
 28 65  1  1
 29 30  2  0
 29 33  1  0
 30 31  1  0
 30 66  1  0
 31 68  1  0
 31 67  1  0
 31 32  1  0
 32 33  1  0
 33 34  2  0
 35 36  2  0
 36 70  1  0
 36 69  1  0
 37 72  1  0
 37 71  1  0
 37 73  1  0
M  END
>  <id>  (707) 
811

>  <scaffolds>  (707) 
['C1=CCCCC1', 'C1CCCCC1', 'O=C1C=CCCC1']

>  <name>  (707) 
Turraflorin F

>  <formula>  (707) 
C29H36O8

>  <SMILES>  (707) 
COC(=O)C[C@@H]1[C@](C)(C=CC(=O)C1(C)C)[C@H]1[C@@H](OC(=O)C)[C@H](O)[C@@]2(C(=CC[C@@H]2C2=CCOC2=O)C1=C)C

>  <ChEMBL_id>  (707) 


>  <ZINC_id>  (707) 


>  <PubChem_id>  (707) 


>  <DrugBank_id>  (707) 


>  <CAS_no>  (707) 
760996-58-5

>  <references>  (707) 
[{'journal': {'name': 'Phytochemistry', 'id': 10}, 'title': 'Limonoids from Turraea floribunda (Meliaceae)', 'year': 2004, 'start_page': 2031, 'volume': 65, 'issue': None, 'doi': '10.1016/j.phytochem.2004.06.019', 'isbn': '', 'despositor': {'code': 'AMU', 'first_name': 'Arnold', 'last_name': 'Amusengeri', 'id': 25}, 'refauthors_set': [{'author': {'first_name': 'Kathryn', 'initials': 'K', 'last_name': 'McFarland', 'id': 936}, 'first_author': True, 'id': 1519}, {'author': {'first_name': 'Dulcie', 'initials': 'DA', 'last_name': 'Mulholland', 'id': 525}, 'first_author': None, 'id': 1520}, {'author': {'first_name': 'Leigh-Anne', 'initials': 'L', 'last_name': 'Fraser', 'id': 937}, 'first_author': None, 'id': 1521}], 'id': 429}]

>  <classifications>  (707) 
[{'classification': 'Limonoids', 'id': 877}, {'classification': 'Carboxylic acids and derivatives (Classyfire)', 'id': 950}]

>  <molecular_mass>  (707) 
512.59

$$$$
SANC00812_minRM1.pdb
     RDKit          3D

 72 76  0  0  1  0  0  0  0  0999 V2000
    4.0450   -2.9450    1.3470 C   0  0  0  0  0  0  0  0  0  0  0  0
    3.4420   -1.6710    1.2590 O   0  0  0  0  0  0  0  0  0  0  0  0
    4.0970   -0.6340    1.8310 C   0  0  0  0  0  0  0  0  0  0  0  0
    5.1210   -0.8340    2.4630 O   0  0  0  0  0  0  0  0  0  0  0  0
    3.4150    0.6930    1.6750 C   0  0  0  0  0  0  0  0  0  0  0  0
    2.7580    0.9980    0.3190 C   0  0  2  0  0  0  0  0  0  0  0  0
    1.3750    0.3320    0.1100 C   0  0  2  0  0  0  0  0  0  0  0  0
    0.6680    0.0640    1.4410 C   0  0  0  0  0  0  0  0  0  0  0  0
    1.3590   -0.9980   -0.6820 C   0  0  1  0  0  0  0  0  0  0  0  0
    0.0900   -1.1010   -1.2840 O   0  0  0  0  0  0  0  0  0  0  0  0
   -0.5210    0.1620   -1.4020 C   0  0  2  0  0  0  0  0  0  0  0  0
    0.4120    1.2030   -0.7530 C   0  0  1  0  0  0  0  0  0  0  0  0
   -0.2580    2.3170   -0.0120 C   0  0  0  0  0  0  0  0  0  0  0  0
    0.4530    3.3750    0.3890 C   0  0  0  0  0  0  0  0  0  0  0  0
   -1.6870    2.2750    0.2110 C   0  0  0  0  0  0  0  0  0  0  0  0
   -2.3960    2.9760    1.1040 C   0  0  0  0  0  0  0  0  0  0  0  0
   -3.8580    2.6800    1.0010 C   0  0  0  0  0  0  0  0  0  0  0  0
   -3.9320    1.4020    0.1300 C   0  0  1  0  0  0  0  0  0  0  0  0
   -2.5740    1.3980   -0.6320 C   0  0  2  0  0  0  0  0  0  0  0  0
   -1.9000    0.0290   -0.7160 C   0  0  1  0  0  0  0  0  0  0  0  0
   -2.7090   -0.7760   -1.5440 O   0  0  0  0  0  0  0  0  0  0  0  0
   -2.6610   -2.1280   -1.3980 C   0  0  0  0  0  0  0  0  0  0  0  0
   -2.1250   -2.6550   -0.4450 O   0  0  0  0  0  0  0  0  0  0  0  0
   -3.3720   -2.8090   -2.5250 C   0  0  0  0  0  0  0  0  0  0  0  0
   -2.7590    2.0530   -1.9970 C   0  0  0  0  0  0  0  0  0  0  0  0
   -4.1390    0.2270    0.9970 C   0  0  0  0  0  0  0  0  0  0  0  0
   -3.5670   -0.0310    2.2200 C   0  0  0  0  0  0  0  0  0  0  0  0
   -4.0550   -1.2000    2.7380 O   0  0  0  0  0  0  0  0  0  0  0  0
   -4.9560   -1.6920    1.8300 C   0  0  0  0  0  0  0  0  0  0  0  0
   -5.0490   -0.8590    0.7450 C   0  0  0  0  0  0  0  0  0  0  0  0
    2.3950   -1.0950   -1.8040 C   0  0  0  0  0  0  0  0  0  0  0  0
    3.7270   -0.6420   -1.2910 C   0  0  0  0  0  0  0  0  0  0  0  0
    4.6920   -1.3790   -1.2640 O   0  0  0  0  0  0  0  0  0  0  0  0
    3.7720    0.7990   -0.8320 C   0  0  2  0  0  0  0  0  0  0  0  0
    5.2040    1.1830   -0.4370 C   0  0  0  0  0  0  0  0  0  0  0  0
    3.4410    1.6950   -2.0330 C   0  0  0  0  0  0  0  0  0  0  0  0
    3.3470   -3.6020    0.8070 H   0  0  0  0  0  0  0  0  0  0  0  0
    4.1470   -3.2900    2.3890 H   0  0  0  0  0  0  0  0  0  0  0  0
    5.0340   -2.9780    0.8630 H   0  0  0  0  0  0  0  0  0  0  0  0
    4.1650    1.4850    1.9120 H   0  0  0  0  0  0  0  0  0  0  0  0
    2.7080    0.8020    2.5260 H   0  0  0  0  0  0  0  0  0  0  0  0
    2.5570    2.1080    0.3670 H   0  0  0  0  0  0  0  0  0  0  0  0
    0.5700    0.9710    2.0550 H   0  0  0  0  0  0  0  0  0  0  0  0
    1.1690   -0.7020    2.0520 H   0  0  0  0  0  0  0  0  0  0  0  0
   -0.3590   -0.3160    1.2990 H   0  0  0  0  0  0  0  0  0  0  0  0
    1.4260   -1.9020   -0.0250 H   0  0  0  0  0  0  0  0  0  0  0  0
   -0.6470    0.3540   -2.5000 H   0  0  0  0  0  0  0  0  0  0  0  0
    0.9880    1.6860   -1.5870 H   0  0  0  0  0  0  0  0  0  0  0  0
    1.5270    3.4660    0.2350 H   0  0  0  0  0  0  0  0  0  0  0  0
    0.0380    4.2380    0.8960 H   0  0  0  0  0  0  0  0  0  0  0  0
   -2.0260    3.6860    1.8380 H   0  0  0  0  0  0  0  0  0  0  0  0
   -4.3900    3.5300    0.5270 H   0  0  0  0  0  0  0  0  0  0  0  0
   -4.3410    2.5630    1.9900 H   0  0  0  0  0  0  0  0  0  0  0  0
   -4.7850    1.4550   -0.5890 H   0  0  0  0  0  0  0  0  0  0  0  0
   -1.7650   -0.3960    0.3210 H   0  0  0  0  0  0  0  0  0  0  0  0
   -4.3500   -2.3520   -2.7390 H   0  0  0  0  0  0  0  0  0  0  0  0
   -2.7770   -2.7510   -3.4490 H   0  0  0  0  0  0  0  0  0  0  0  0
   -3.5410   -3.8720   -2.3030 H   0  0  0  0  0  0  0  0  0  0  0  0
   -3.3170    2.9990   -1.9210 H   0  0  0  0  0  0  0  0  0  0  0  0
   -1.8030    2.3090   -2.4760 H   0  0  0  0  0  0  0  0  0  0  0  0
   -3.3120    1.4120   -2.6980 H   0  0  0  0  0  0  0  0  0  0  0  0
   -2.8330    0.4830    2.8280 H   0  0  0  0  0  0  0  0  0  0  0  0
   -5.4240   -2.6290    2.1030 H   0  0  0  0  0  0  0  0  0  0  0  0
   -5.6720   -0.9750   -0.1310 H   0  0  0  0  0  0  0  0  0  0  0  0
    2.0990   -0.5090   -2.6990 H   0  0  0  0  0  0  0  0  0  0  0  0
    2.4380   -2.1400   -2.1850 H   0  0  0  0  0  0  0  0  0  0  0  0
    5.2610    2.1930   -0.0070 H   0  0  0  0  0  0  0  0  0  0  0  0
    5.8750    1.1790   -1.3110 H   0  0  0  0  0  0  0  0  0  0  0  0
    5.6780    0.4910    0.2720 H   0  0  0  0  0  0  0  0  0  0  0  0
    3.6060    2.7590   -1.8070 H   0  0  0  0  0  0  0  0  0  0  0  0
    2.3990    1.6200   -2.3780 H   0  0  0  0  0  0  0  0  0  0  0  0
    4.0670    1.4580   -2.9070 H   0  0  0  0  0  0  0  0  0  0  0  0
  1 37  1  0
  1 39  1  0
  1  2  1  0
  1 38  1  0
  2  3  1  0
  3  5  1  0
  3  4  2  0
  5  6  1  0
  5 40  1  0
  5 41  1  0
  6 34  1  0
  6  7  1  0
  6 42  1  1
  7 12  1  0
  7  9  1  0
  7  8  1  1
  8 45  1  0
  8 44  1  0
  8 43  1  0
  9 31  1  0
  9 10  1  0
  9 46  1  1
 10 11  1  0
 11 47  1  6
 11 12  1  0
 11 20  1  0
 12 48  1  6
 12 13  1  0
 13 15  1  0
 13 14  2  0
 14 49  1  0
 14 50  1  0
 15 19  1  0
 15 16  2  0
 16 17  1  0
 16 51  1  0
 17 18  1  0
 17 52  1  0
 17 53  1  0
 18 19  1  0
 18 54  1  6
 18 26  1  0
 19 25  1  6
 19 20  1  0
 20 21  1  0
 20 55  1  1
 21 22  1  0
 22 24  1  0
 22 23  2  0
 24 57  1  0
 24 56  1  0
 24 58  1  0
 25 61  1  0
 25 60  1  0
 25 59  1  0
 26 30  1  0
 26 27  2  0
 27 28  1  0
 27 62  1  0
 28 29  1  0
 29 30  2  0
 29 63  1  0
 30 64  1  0
 31 65  1  0
 31 66  1  0
 31 32  1  0
 32 33  2  0
 32 34  1  0
 34 36  1  6
 34 35  1  0
 35 68  1  0
 35 67  1  0
 35 69  1  0
 36 72  1  0
 36 71  1  0
 36 70  1  0
M  END
>  <id>  (708) 
812

>  <scaffolds>  (708) 
['c1ccoc1', 'C1CCCCC1', 'C=C1C2=CCC(c3ccoc3)C2CCC1C1CCCCC1', 'C=C1C2=CCC(c3ccoc3)C2CC2OC3CC(=O)CCC3C12', 'C=C1C2=CCC(c3ccoc3)C2CCC1C1CCC(=O)CC1']

>  <name>  (708) 
Turraflorin G

>  <formula>  (708) 
C29H36O7

>  <SMILES>  (708) 
COC(=O)C[C@@H]1[C@]2(C)[C@@H](O[C@@H]3[C@H]2C(=C)C2=CC[C@@H]([C@@]2([C@H]3OC(=O)C)C)c2cocc2)CC(=O)C1(C)C

>  <ChEMBL_id>  (708) 


>  <ZINC_id>  (708) 


>  <PubChem_id>  (708) 


>  <DrugBank_id>  (708) 


>  <CAS_no>  (708) 
760996-59-6

>  <references>  (708) 
[{'journal': {'name': 'Phytochemistry', 'id': 10}, 'title': 'Limonoids from Turraea floribunda (Meliaceae)', 'year': 2004, 'start_page': 2031, 'volume': 65, 'issue': None, 'doi': '10.1016/j.phytochem.2004.06.019', 'isbn': '', 'despositor': {'code': 'AMU', 'first_name': 'Arnold', 'last_name': 'Amusengeri', 'id': 25}, 'refauthors_set': [{'author': {'first_name': 'Kathryn', 'initials': 'K', 'last_name': 'McFarland', 'id': 936}, 'first_author': True, 'id': 1519}, {'author': {'first_name': 'Dulcie', 'initials': 'DA', 'last_name': 'Mulholland', 'id': 525}, 'first_author': None, 'id': 1520}, {'author': {'first_name': 'Leigh-Anne', 'initials': 'L', 'last_name': 'Fraser', 'id': 937}, 'first_author': None, 'id': 1521}], 'id': 429}]

>  <classifications>  (708) 
[{'classification': 'Limonoids', 'id': 877}, {'classification': 'Carboxylic acids and derivatives (Classyfire)', 'id': 950}]

>  <molecular_mass>  (708) 
496.59

$$$$
SANC00813_minRM1.pdb
     RDKit          3D

 80 83  0  0  1  0  0  0  0  0999 V2000
   -3.9460   -2.9090    2.6010 C   0  0  0  0  0  0  0  0  0  0  0  0
   -3.3120   -2.3200    1.4880 O   0  0  0  0  0  0  0  0  0  0  0  0
   -3.9850   -2.3290    0.3090 C   0  0  0  0  0  0  0  0  0  0  0  0
   -5.0830   -2.8580    0.2540 O   0  0  0  0  0  0  0  0  0  0  0  0
   -3.2300   -1.7600   -0.8550 C   0  0  0  0  0  0  0  0  0  0  0  0
   -2.7240   -0.3110   -0.8360 C   0  0  2  0  0  0  0  0  0  0  0  0
   -1.3440   -0.0530   -0.1230 C   0  0  2  0  0  0  0  0  0  0  0  0
   -0.6620   -1.3730    0.2210 C   0  0  0  0  0  0  0  0  0  0  0  0
   -1.6330    0.6900    1.2000 C   0  0  1  0  0  0  0  0  0  0  0  0
   -0.4250    0.7780    1.8940 O   0  0  0  0  0  0  0  0  0  0  0  0
   -2.2760    2.0660    0.9710 C   0  0  0  0  0  0  0  0  0  0  0  0
   -3.2000    2.0350   -0.2120 C   0  0  0  0  0  0  0  0  0  0  0  0
   -3.4310    3.0330   -0.8650 O   0  0  0  0  0  0  0  0  0  0  0  0
   -3.8480    0.6900   -0.4850 C   0  0  1  0  0  0  0  0  0  0  0  0
   -4.8130    0.8140   -1.6700 C   0  0  0  0  0  0  0  0  0  0  0  0
   -4.6840    0.3820    0.7560 C   0  0  0  0  0  0  0  0  0  0  0  0
   -0.4510    0.7850   -1.0920 C   0  0  1  0  0  0  0  0  0  0  0  0
    0.9000    1.4180   -0.6640 C   0  0  1  0  0  0  0  0  0  0  0  0
    0.7890    2.2520    0.4650 O   0  0  0  0  0  0  0  0  0  0  0  0
    0.8020    3.6050    0.2900 C   0  0  0  0  0  0  0  0  0  0  0  0
    0.6340    4.1030   -0.8050 O   0  0  0  0  0  0  0  0  0  0  0  0
    1.0170    4.3160    1.5870 C   0  0  0  0  0  0  0  0  0  0  0  0
    2.0110    0.3980   -0.3010 C   0  0  2  0  0  0  0  0  0  0  0  0
    3.1710    1.1290    0.0200 O   0  0  0  0  0  0  0  0  0  0  0  0
    3.4340    1.4550    1.3190 C   0  0  0  0  0  0  0  0  0  0  0  0
    4.3810    2.2160    1.4370 O   0  0  0  0  0  0  0  0  0  0  0  0
    2.6440    0.9130    2.4650 C   0  0  0  0  0  0  0  0  0  0  0  0
    2.3430   -0.4080   -1.5690 C   0  0  2  0  0  0  0  0  0  0  0  0
    1.0580   -0.9380   -2.1480 C   0  0  0  0  0  0  0  0  0  0  0  0
    1.1740   -2.2050   -2.5510 C   0  0  0  0  0  0  0  0  0  0  0  0
    2.5380   -2.7470   -2.2620 C   0  0  0  0  0  0  0  0  0  0  0  0
    3.2050   -1.6840   -1.3530 C   0  0  2  0  0  0  0  0  0  0  0  0
    3.2700   -2.1420    0.0490 C   0  0  0  0  0  0  0  0  0  0  0  0
    2.4370   -3.0070    0.7150 C   0  0  0  0  0  0  0  0  0  0  0  0
    2.8870   -3.2140    1.9930 O   0  0  0  0  0  0  0  0  0  0  0  0
    4.0280   -2.4680    2.1390 C   0  0  0  0  0  0  0  0  0  0  0  0
    4.3090   -1.7890    0.9820 C   0  0  0  0  0  0  0  0  0  0  0  0
   -0.0760   -0.0430   -2.2970 C   0  0  0  0  0  0  0  0  0  0  0  0
   -0.6570    0.0910   -3.4890 C   0  0  0  0  0  0  0  0  0  0  0  0
    3.0040    0.4720   -2.6310 C   0  0  0  0  0  0  0  0  0  0  0  0
   -4.8820   -2.3950    2.8740 H   0  0  0  0  0  0  0  0  0  0  0  0
   -4.1670   -3.9790    2.4490 H   0  0  0  0  0  0  0  0  0  0  0  0
   -3.2130   -2.7980    3.4120 H   0  0  0  0  0  0  0  0  0  0  0  0
   -2.3840   -2.4580   -1.0670 H   0  0  0  0  0  0  0  0  0  0  0  0
   -3.8930   -1.8830   -1.7450 H   0  0  0  0  0  0  0  0  0  0  0  0
   -2.5300   -0.1400   -1.9320 H   0  0  0  0  0  0  0  0  0  0  0  0
   -0.6990   -2.1000   -0.6060 H   0  0  0  0  0  0  0  0  0  0  0  0
   -1.0940   -1.8730    1.0990 H   0  0  0  0  0  0  0  0  0  0  0  0
    0.3970   -1.2510    0.4870 H   0  0  0  0  0  0  0  0  0  0  0  0
   -2.3540    0.0610    1.8080 H   0  0  0  0  0  0  0  0  0  0  0  0
   -0.5500    1.3960    2.6210 H   0  0  0  0  0  0  0  0  0  0  0  0
   -2.8610    2.3790    1.8650 H   0  0  0  0  0  0  0  0  0  0  0  0
   -1.5320    2.8800    0.8530 H   0  0  0  0  0  0  0  0  0  0  0  0
   -5.3130   -0.1340   -1.9090 H   0  0  0  0  0  0  0  0  0  0  0  0
   -5.6120    1.5440   -1.4660 H   0  0  0  0  0  0  0  0  0  0  0  0
   -4.3170    1.1620   -2.5880 H   0  0  0  0  0  0  0  0  0  0  0  0
   -4.0860    0.0390    1.6140 H   0  0  0  0  0  0  0  0  0  0  0  0
   -5.4670   -0.3660    0.5700 H   0  0  0  0  0  0  0  0  0  0  0  0
   -5.2310    1.2740    1.1030 H   0  0  0  0  0  0  0  0  0  0  0  0
   -1.0700    1.6650   -1.4200 H   0  0  0  0  0  0  0  0  0  0  0  0
    1.2680    1.9930   -1.5720 H   0  0  0  0  0  0  0  0  0  0  0  0
    2.0750    4.2510    1.8870 H   0  0  0  0  0  0  0  0  0  0  0  0
    0.4170    3.8950    2.4060 H   0  0  0  0  0  0  0  0  0  0  0  0
    0.7630    5.3830    1.5010 H   0  0  0  0  0  0  0  0  0  0  0  0
    1.6780   -0.2740    0.5390 H   0  0  0  0  0  0  0  0  0  0  0  0
    1.9040    1.6570    2.7980 H   0  0  0  0  0  0  0  0  0  0  0  0
    2.0970   -0.0150    2.2320 H   0  0  0  0  0  0  0  0  0  0  0  0
    3.2980    0.7000    3.3240 H   0  0  0  0  0  0  0  0  0  0  0  0
    0.4160   -2.8130   -3.0360 H   0  0  0  0  0  0  0  0  0  0  0  0
    2.5090   -3.7580   -1.8150 H   0  0  0  0  0  0  0  0  0  0  0  0
    3.1030   -2.8790   -3.2080 H   0  0  0  0  0  0  0  0  0  0  0  0
    4.2580   -1.5020   -1.6850 H   0  0  0  0  0  0  0  0  0  0  0  0
    1.5310   -3.5390    0.4530 H   0  0  0  0  0  0  0  0  0  0  0  0
    4.5080   -2.5380    3.1070 H   0  0  0  0  0  0  0  0  0  0  0  0
    5.1380   -1.1220    0.7850 H   0  0  0  0  0  0  0  0  0  0  0  0
   -1.4510    0.7970   -3.7120 H   0  0  0  0  0  0  0  0  0  0  0  0
   -0.3620   -0.4890   -4.3590 H   0  0  0  0  0  0  0  0  0  0  0  0
    2.4070    1.3740   -2.8440 H   0  0  0  0  0  0  0  0  0  0  0  0
    4.0020    0.8220   -2.3320 H   0  0  0  0  0  0  0  0  0  0  0  0
    3.1260   -0.0650   -3.5830 H   0  0  0  0  0  0  0  0  0  0  0  0
  1  2  1  0
  1 42  1  0
  1 41  1  0
  1 43  1  0
  2  3  1  0
  3  5  1  0
  3  4  2  0
  5 45  1  0
  5 44  1  0
  5  6  1  0
  6 46  1  6
  6 14  1  0
  6  7  1  0
  7 17  1  0
  7  8  1  1
  7  9  1  0
  8 47  1  0
  8 49  1  0
  8 48  1  0
  9 11  1  0
  9 50  1  1
  9 10  1  0
 10 51  1  0
 11 12  1  0
 11 53  1  0
 11 52  1  0
 12 13  2  0
 12 14  1  0
 14 15  1  6
 14 16  1  0
 15 56  1  0
 15 54  1  0
 15 55  1  0
 16 58  1  0
 16 59  1  0
 16 57  1  0
 17 38  1  0
 17 60  1  6
 17 18  1  0
 18 61  1  6
 18 23  1  0
 18 19  1  0
 19 20  1  0
 20 21  2  0
 20 22  1  0
 22 64  1  0
 22 62  1  0
 22 63  1  0
 23 28  1  0
 23 24  1  0
 23 65  1  1
 24 25  1  0
 25 26  2  0
 25 27  1  0
 27 67  1  0
 27 66  1  0
 27 68  1  0
 28 40  1  6
 28 29  1  0
 28 32  1  0
 29 30  2  0
 29 38  1  0
 30 69  1  0
 30 31  1  0
 31 71  1  0
 31 70  1  0
 31 32  1  0
 32 72  1  6
 32 33  1  0
 33 34  2  0
 33 37  1  0
 34 73  1  0
 34 35  1  0
 35 36  1  0
 36 37  2  0
 36 74  1  0
 37 75  1  0
 38 39  2  0
 39 77  1  0
 39 76  1  0
 40 80  1  0
 40 78  1  0
 40 79  1  0
M  END
>  <id>  (709) 
813

>  <scaffolds>  (709) 
['c1ccoc1', 'C1CCCCC1', 'C=C1C2=CCC(c3ccoc3)C2CCC1C1CCCCC1', 'C=C1C2=CCC(c3ccoc3)C2CCC1C1CCC(=O)CC1']

>  <name>  (709) 
Turraflorin H

>  <formula>  (709) 
C31H40O9

>  <SMILES>  (709) 
COC(=O)C[C@@H]1[C@](C)([C@@H](O)CC(=O)C1(C)C)[C@H]1[C@@H](OC(=O)C)[C@H](OC(=O)C)[C@@]2(C(=CC[C@@H]2c2cocc2)C1=C)C

>  <ChEMBL_id>  (709) 


>  <ZINC_id>  (709) 


>  <PubChem_id>  (709) 


>  <DrugBank_id>  (709) 


>  <CAS_no>  (709) 
760996-60-9

>  <references>  (709) 
[{'journal': {'name': 'Phytochemistry', 'id': 10}, 'title': 'Limonoids from Turraea floribunda (Meliaceae)', 'year': 2004, 'start_page': 2031, 'volume': 65, 'issue': None, 'doi': '10.1016/j.phytochem.2004.06.019', 'isbn': '', 'despositor': {'code': 'AMU', 'first_name': 'Arnold', 'last_name': 'Amusengeri', 'id': 25}, 'refauthors_set': [{'author': {'first_name': 'Kathryn', 'initials': 'K', 'last_name': 'McFarland', 'id': 936}, 'first_author': True, 'id': 1519}, {'author': {'first_name': 'Dulcie', 'initials': 'DA', 'last_name': 'Mulholland', 'id': 525}, 'first_author': None, 'id': 1520}, {'author': {'first_name': 'Leigh-Anne', 'initials': 'L', 'last_name': 'Fraser', 'id': 937}, 'first_author': None, 'id': 1521}], 'id': 429}]

>  <classifications>  (709) 
[{'classification': 'Limonoids', 'id': 877}, {'classification': 'Carboxylic acids and derivatives (Classyfire)', 'id': 950}]

>  <molecular_mass>  (709) 
556.64

$$$$
SANC00814_minRM1.pdb
     RDKit          3D

 92 95  0  0  1  0  0  0  0  0999 V2000
   -2.5560   -5.3350   -1.1220 C   0  0  0  0  0  0  0  0  0  0  0  0
   -2.5950   -4.1620   -0.3430 O   0  0  0  0  0  0  0  0  0  0  0  0
   -1.9030   -3.0820   -0.7980 C   0  0  0  0  0  0  0  0  0  0  0  0
   -1.2840   -3.1660   -1.8460 O   0  0  0  0  0  0  0  0  0  0  0  0
   -1.9750   -1.9290    0.1610 C   0  0  0  0  0  0  0  0  0  0  0  0
   -1.9700   -0.5660   -0.5550 C   0  0  2  0  0  0  0  0  0  0  0  0
   -1.3630    0.5220    0.3700 C   0  0  2  0  0  0  0  0  0  0  0  0
   -1.5970    0.2080    1.8640 C   0  0  0  0  0  0  0  0  0  0  0  0
   -2.0270    1.9140    0.1820 C   0  0  1  0  0  0  0  0  0  0  0  0
   -1.6710    2.3970   -1.0970 O   0  0  0  0  0  0  0  0  0  0  0  0
   -1.6950    3.7370   -1.3220 C   0  0  0  0  0  0  0  0  0  0  0  0
   -2.0320    4.5210   -0.4550 O   0  0  0  0  0  0  0  0  0  0  0  0
   -1.2750    4.0600   -2.7200 C   0  0  0  0  0  0  0  0  0  0  0  0
   -3.5500    1.8880    0.3170 C   0  0  0  0  0  0  0  0  0  0  0  0
   -4.2400    0.6230   -0.1940 C   0  0  1  0  0  0  0  0  0  0  0  0
   -3.3770   -0.2450   -1.1340 C   0  0  2  0  0  0  0  0  0  0  0  0
   -4.1880   -1.5060   -1.4850 C   0  0  0  0  0  0  0  0  0  0  0  0
   -3.2650    0.5040   -2.4720 C   0  0  0  0  0  0  0  0  0  0  0  0
   -4.5850   -0.2160    0.8960 O   0  0  0  0  0  0  0  0  0  0  0  0
   -5.6280    0.1390    1.6880 C   0  0  0  0  0  0  0  0  0  0  0  0
   -6.2740    1.1460    1.4680 O   0  0  0  0  0  0  0  0  0  0  0  0
   -5.8350   -0.8510    2.7880 C   0  0  0  0  0  0  0  0  0  0  0  0
    0.1800    0.7350    0.2430 C   0  0  1  0  0  0  0  0  0  0  0  0
    1.0620   -0.4420    0.7290 C   0  0  1  0  0  0  0  0  0  0  0  0
    1.0590   -1.3580   -0.3520 O   0  0  0  0  0  0  0  0  0  0  0  0
    1.5300   -2.6160   -0.1470 C   0  0  0  0  0  0  0  0  0  0  0  0
    1.7740   -3.0090    0.9800 O   0  0  0  0  0  0  0  0  0  0  0  0
    1.6710   -3.3810   -1.4220 C   0  0  0  0  0  0  0  0  0  0  0  0
    2.5450   -0.0050    0.9650 C   0  0  2  0  0  0  0  0  0  0  0  0
    2.9840   -0.1730    2.2900 O   0  0  0  0  0  0  0  0  0  0  0  0
    2.2920    0.2450    3.3740 C   0  0  0  0  0  0  0  0  0  0  0  0
    1.1990    0.7760    3.2930 O   0  0  0  0  0  0  0  0  0  0  0  0
    3.0450   -0.0610    4.6310 C   0  0  0  0  0  0  0  0  0  0  0  0
    2.9040    1.3910    0.4240 C   0  0  2  0  0  0  0  0  0  0  0  0
    2.1590    1.6630   -0.8600 C   0  0  0  0  0  0  0  0  0  0  0  0
    2.9130    2.3600   -1.7190 C   0  0  0  0  0  0  0  0  0  0  0  0
    4.2940    2.5720   -1.1860 C   0  0  0  0  0  0  0  0  0  0  0  0
    4.3930    1.5540   -0.0230 C   0  0  2  0  0  0  0  0  0  0  0  0
    4.9980    0.3080   -0.5320 C   0  0  0  0  0  0  0  0  0  0  0  0
    5.9890   -0.4920    0.1400 C   0  0  0  0  0  0  0  0  0  0  0  0
    6.2830   -1.5250   -0.7100 C   0  0  0  0  0  0  0  0  0  0  0  0
    5.5460   -1.4240   -1.8630 O   0  0  0  0  0  0  0  0  0  0  0  0
    4.7700   -0.3020   -1.7420 C   0  0  0  0  0  0  0  0  0  0  0  0
    0.8170    1.1380   -1.0550 C   0  0  0  0  0  0  0  0  0  0  0  0
    0.3660    0.9230   -2.2880 C   0  0  0  0  0  0  0  0  0  0  0  0
    2.6040    2.5250    1.4040 C   0  0  0  0  0  0  0  0  0  0  0  0
   -1.5350   -5.7360   -1.2330 H   0  0  0  0  0  0  0  0  0  0  0  0
   -3.1720   -6.0510   -0.5590 H   0  0  0  0  0  0  0  0  0  0  0  0
   -2.9860   -5.1910   -2.1270 H   0  0  0  0  0  0  0  0  0  0  0  0
   -1.0960   -2.0580    0.8310 H   0  0  0  0  0  0  0  0  0  0  0  0
   -2.8430   -2.0270    0.8490 H   0  0  0  0  0  0  0  0  0  0  0  0
   -1.2760   -0.6610   -1.4340 H   0  0  0  0  0  0  0  0  0  0  0  0
   -2.6410   -0.0020    2.1200 H   0  0  0  0  0  0  0  0  0  0  0  0
   -1.2910    1.0290    2.5330 H   0  0  0  0  0  0  0  0  0  0  0  0
   -1.0170   -0.6660    2.2100 H   0  0  0  0  0  0  0  0  0  0  0  0
   -1.6220    2.6140    0.9710 H   0  0  0  0  0  0  0  0  0  0  0  0
   -0.3510    3.5330   -3.0040 H   0  0  0  0  0  0  0  0  0  0  0  0
   -2.0530    3.7650   -3.4410 H   0  0  0  0  0  0  0  0  0  0  0  0
   -1.1000    5.1390   -2.8430 H   0  0  0  0  0  0  0  0  0  0  0  0
   -3.9910    2.7710   -0.1980 H   0  0  0  0  0  0  0  0  0  0  0  0
   -3.8100    2.0780    1.3830 H   0  0  0  0  0  0  0  0  0  0  0  0
   -5.1800    0.9220   -0.7410 H   0  0  0  0  0  0  0  0  0  0  0  0
   -4.4120   -2.1640   -0.6340 H   0  0  0  0  0  0  0  0  0  0  0  0
   -5.1730   -1.2490   -1.9060 H   0  0  0  0  0  0  0  0  0  0  0  0
   -3.6930   -2.1210   -2.2500 H   0  0  0  0  0  0  0  0  0  0  0  0
   -4.2480    0.7600   -2.8950 H   0  0  0  0  0  0  0  0  0  0  0  0
   -2.7610   -0.1000   -3.2420 H   0  0  0  0  0  0  0  0  0  0  0  0
   -2.7140    1.4520   -2.4050 H   0  0  0  0  0  0  0  0  0  0  0  0
   -6.0540   -1.8540    2.3900 H   0  0  0  0  0  0  0  0  0  0  0  0
   -6.6740   -0.5580    3.4360 H   0  0  0  0  0  0  0  0  0  0  0  0
   -4.9390   -0.9420    3.4210 H   0  0  0  0  0  0  0  0  0  0  0  0
    0.3780    1.5810    0.9690 H   0  0  0  0  0  0  0  0  0  0  0  0
    0.6330   -0.9180    1.6530 H   0  0  0  0  0  0  0  0  0  0  0  0
    2.7320   -3.6050   -1.6110 H   0  0  0  0  0  0  0  0  0  0  0  0
    1.2810   -2.8500   -2.3040 H   0  0  0  0  0  0  0  0  0  0  0  0
    1.1340   -4.3390   -1.3590 H   0  0  0  0  0  0  0  0  0  0  0  0
    3.2250   -0.7660    0.4860 H   0  0  0  0  0  0  0  0  0  0  0  0
    4.0160    0.4550    4.6540 H   0  0  0  0  0  0  0  0  0  0  0  0
    2.4790    0.2510    5.5210 H   0  0  0  0  0  0  0  0  0  0  0  0
    3.2480   -1.1390    4.7240 H   0  0  0  0  0  0  0  0  0  0  0  0
    2.6250    2.7480   -2.6910 H   0  0  0  0  0  0  0  0  0  0  0  0
    4.4370    3.6160   -0.8410 H   0  0  0  0  0  0  0  0  0  0  0  0
    5.0750    2.4250   -1.9580 H   0  0  0  0  0  0  0  0  0  0  0  0
    5.0230    1.9410    0.8130 H   0  0  0  0  0  0  0  0  0  0  0  0
    6.3990   -0.3010    1.1220 H   0  0  0  0  0  0  0  0  0  0  0  0
    6.9520   -2.3750   -0.6610 H   0  0  0  0  0  0  0  0  0  0  0  0
    4.1200   -0.0820   -2.5800 H   0  0  0  0  0  0  0  0  0  0  0  0
    0.9130    1.1880   -3.1870 H   0  0  0  0  0  0  0  0  0  0  0  0
   -0.5790    0.4390   -2.5120 H   0  0  0  0  0  0  0  0  0  0  0  0
    3.1650    2.4390    2.3440 H   0  0  0  0  0  0  0  0  0  0  0  0
    1.5340    2.5890    1.6600 H   0  0  0  0  0  0  0  0  0  0  0  0
    2.8630    3.5090    0.9860 H   0  0  0  0  0  0  0  0  0  0  0  0
  1 49  1  0
  1 47  1  0
  1 48  1  0
  1  2  1  0
  2  3  1  0
  3  4  2  0
  3  5  1  0
  5  6  1  0
  5 50  1  0
  5 51  1  0
  6 52  1  6
  6 16  1  0
  6  7  1  0
  7  9  1  0
  7 23  1  0
  7  8  1  1
  8 53  1  0
  8 55  1  0
  8 54  1  0
  9 10  1  0
  9 14  1  0
  9 56  1  1
 10 11  1  0
 11 13  1  0
 11 12  2  0
 13 58  1  0
 13 57  1  0
 13 59  1  0
 14 60  1  0
 14 15  1  0
 14 61  1  0
 15 16  1  0
 15 62  1  6
 15 19  1  0
 16 18  1  6
 16 17  1  0
 17 65  1  0
 17 64  1  0
 17 63  1  0
 18 67  1  0
 18 66  1  0
 18 68  1  0
 19 20  1  0
 20 21  2  0
 20 22  1  0
 22 69  1  0
 22 71  1  0
 22 70  1  0
 23 44  1  0
 23 24  1  0
 23 72  1  1
 24 25  1  0
 24 29  1  0
 24 73  1  1
 25 26  1  0
 26 28  1  0
 26 27  2  0
 28 75  1  0
 28 74  1  0
 28 76  1  0
 29 34  1  0
 29 77  1  6
 29 30  1  0
 30 31  1  0
 31 32  2  0
 31 33  1  0
 33 78  1  0
 33 80  1  0
 33 79  1  0
 34 35  1  0
 34 38  1  0
 34 46  1  1
 35 36  2  0
 35 44  1  0
 36 81  1  0
 36 37  1  0
 37 83  1  0
 37 82  1  0
 37 38  1  0
 38 39  1  0
 38 84  1  1
 39 43  2  0
 39 40  1  0
 40 41  2  0
 40 85  1  0
 41 42  1  0
 41 86  1  0
 42 43  1  0
 43 87  1  0
 44 45  2  0
 45 88  1  0
 45 89  1  0
 46 92  1  0
 46 91  1  0
 46 90  1  0
M  END
>  <id>  (710) 
814

>  <scaffolds>  (710) 
['c1ccoc1', 'C1CCCCC1', 'C=C1C2=CCC(c3ccoc3)C2CCC1C1CCCCC1']

>  <name>  (710) 
Turraflorin I

>  <formula>  (710) 
C35H46O11

>  <SMILES>  (710) 
COC(=O)C[C@@H]1[C@](C)([C@@H](OC(=O)C)C[C@@H](C1(C)C)OC(=O)C)[C@H]1[C@@H](OC(=O)C)[C@H](OC(=O)C)[C@@]2(C(=CC[C@@H]2c2ccoc2)C1=C)C

>  <ChEMBL_id>  (710) 


>  <ZINC_id>  (710) 


>  <PubChem_id>  (710) 


>  <DrugBank_id>  (710) 


>  <CAS_no>  (710) 
760996-61-0

>  <references>  (710) 
[{'journal': {'name': 'Phytochemistry', 'id': 10}, 'title': 'Limonoids from Turraea floribunda (Meliaceae)', 'year': 2004, 'start_page': 2031, 'volume': 65, 'issue': None, 'doi': '10.1016/j.phytochem.2004.06.019', 'isbn': '', 'despositor': {'code': 'AMU', 'first_name': 'Arnold', 'last_name': 'Amusengeri', 'id': 25}, 'refauthors_set': [{'author': {'first_name': 'Kathryn', 'initials': 'K', 'last_name': 'McFarland', 'id': 936}, 'first_author': True, 'id': 1519}, {'author': {'first_name': 'Dulcie', 'initials': 'DA', 'last_name': 'Mulholland', 'id': 525}, 'first_author': None, 'id': 1520}, {'author': {'first_name': 'Leigh-Anne', 'initials': 'L', 'last_name': 'Fraser', 'id': 937}, 'first_author': None, 'id': 1521}], 'id': 429}]

>  <classifications>  (710) 
[{'classification': 'Limonoids', 'id': 877}, {'classification': 'Phenol lipids (Classyfire)', 'id': 951}]

>  <molecular_mass>  (710) 
642.73

$$$$
SANC00815_minRM1.pdb
     RDKit          3D

 44 47  0  0  1  0  0  0  0  0999 V2000
   -0.6540    1.9590   -0.3770 C   0  0  1  0  0  0  0  0  0  0  0  0
    0.2260    1.0780   -1.2740 C   0  0  0  0  0  0  0  0  0  0  0  0
    0.4700   -0.2220   -0.6130 N   0  0  0  0  0  0  0  0  0  0  0  0
    1.1870   -1.1920   -1.4710 C   0  0  0  0  0  0  0  0  0  0  0  0
    2.6930   -0.9600   -1.5830 C   0  0  0  0  0  0  0  0  0  0  0  0
    3.3570   -0.8600   -0.2070 C   0  0  2  0  0  0  0  0  0  0  0  0
    3.4700   -2.0970    0.4160 O   0  0  0  0  0  0  0  0  0  0  0  0
    2.6190    0.1590    0.7030 C   0  0  1  0  0  0  0  0  0  0  0  0
    2.9610    1.4500    0.3260 O   0  0  0  0  0  0  0  0  0  0  0  0
    1.0940   -0.1150    0.7240 C   0  0  1  0  0  0  0  0  0  0  0  0
    0.3410    0.8970    1.6070 C   0  0  2  0  0  0  0  0  0  0  0  0
   -1.0400    0.3250    1.9840 C   0  0  0  0  0  0  0  0  0  0  0  0
   -1.8980    0.1160    0.8030 N   0  0  0  0  0  0  0  0  0  0  0  0
   -2.0190   -1.1780    0.2700 C   0  0  0  0  0  0  0  0  0  0  0  0
   -1.5250   -2.1530    0.8330 O   0  0  0  0  0  0  0  0  0  0  0  0
   -2.9150   -1.3600   -0.9340 C   0  0  0  0  0  0  0  0  0  0  0  0
   -3.7440   -0.1190   -1.2140 C   0  0  0  0  0  0  0  0  0  0  0  0
   -2.7960    1.0590   -1.3570 C   0  0  0  0  0  0  0  0  0  0  0  0
   -2.0230    1.3100   -0.0530 C   0  0  2  0  0  0  0  0  0  0  0  0
    0.0960    2.2330    0.9180 C   0  0  0  0  0  0  0  0  0  0  0  0
   -0.8500    2.9220   -0.9160 H   0  0  0  0  0  0  0  0  0  0  0  0
    1.1550    1.6380   -1.5580 H   0  0  0  0  0  0  0  0  0  0  0  0
   -0.2970    0.8910   -2.2450 H   0  0  0  0  0  0  0  0  0  0  0  0
    0.7270   -1.2080   -2.4860 H   0  0  0  0  0  0  0  0  0  0  0  0
    0.9680   -2.2080   -1.0650 H   0  0  0  0  0  0  0  0  0  0  0  0
    3.1600   -1.7810   -2.1680 H   0  0  0  0  0  0  0  0  0  0  0  0
    2.9120   -0.0510   -2.1810 H   0  0  0  0  0  0  0  0  0  0  0  0
    4.4320   -0.5510   -0.3180 H   0  0  0  0  0  0  0  0  0  0  0  0
    2.5970   -2.4890    0.5140 H   0  0  0  0  0  0  0  0  0  0  0  0
    3.0300    0.0910    1.7470 H   0  0  0  0  0  0  0  0  0  0  0  0
    2.6260    1.6110   -0.5660 H   0  0  0  0  0  0  0  0  0  0  0  0
    0.9590   -1.1320    1.1950 H   0  0  0  0  0  0  0  0  0  0  0  0
    0.9310    1.0590    2.5450 H   0  0  0  0  0  0  0  0  0  0  0  0
   -0.9370   -0.6100    2.5820 H   0  0  0  0  0  0  0  0  0  0  0  0
   -1.5720    1.0250    2.6730 H   0  0  0  0  0  0  0  0  0  0  0  0
   -3.5650   -2.2470   -0.7740 H   0  0  0  0  0  0  0  0  0  0  0  0
   -2.2810   -1.6310   -1.8060 H   0  0  0  0  0  0  0  0  0  0  0  0
   -4.4850    0.0580   -0.4070 H   0  0  0  0  0  0  0  0  0  0  0  0
   -4.3540   -0.2530   -2.1320 H   0  0  0  0  0  0  0  0  0  0  0  0
   -3.3470    1.9800   -1.6420 H   0  0  0  0  0  0  0  0  0  0  0  0
   -2.1060    0.8830   -2.2150 H   0  0  0  0  0  0  0  0  0  0  0  0
   -2.6140    2.0470    0.5660 H   0  0  0  0  0  0  0  0  0  0  0  0
   -0.4830    2.9150    1.5790 H   0  0  0  0  0  0  0  0  0  0  0  0
    1.0280    2.8060    0.7420 H   0  0  0  0  0  0  0  0  0  0  0  0
  1  2  1  0
  1 21  1  6
  1 19  1  0
  1 20  1  0
  2 23  1  0
  2 22  1  0
  3  2  1  0
  3  4  1  0
  3 10  1  0
  4 24  1  0
  4  5  1  0
  4 25  1  0
  5 27  1  0
  5 26  1  0
  5  6  1  0
  6 28  1  6
  6  7  1  0
  6  8  1  0
  7 29  1  0
  8  9  1  0
  8 10  1  0
  8 30  1  1
  9 31  1  0
 10 32  1  1
 10 11  1  0
 11 20  1  0
 11 12  1  0
 11 33  1  1
 12 13  1  0
 12 34  1  0
 12 35  1  0
 13 19  1  0
 13 14  1  0
 14 16  1  0
 14 15  2  0
 16 37  1  0
 16 17  1  0
 16 36  1  0
 17 39  1  0
 17 18  1  0
 17 38  1  0
 18 41  1  0
 18 40  1  0
 18 19  1  0
 19 42  1  1
 20 44  1  0
 20 43  1  0
M  END
>  <id>  (711) 
815

>  <scaffolds>  (711) 
['C1CCNCC1', 'O=C1CCCCN1', 'O=C1CCCC2C3CC(CN12)C1CCCCN1C3']

>  <name>  (711) 
Calpurmenine

>  <formula>  (711) 
C15H24N2O3

>  <SMILES>  (711) 
[H][C@]34CN1CC[C@H](O)[C@@H](O)[C@@]1([H])[C@]([H])(CN2C(=O)CCC[C@@]23[H])C4

>  <ChEMBL_id>  (711) 


>  <ZINC_id>  (711) 


>  <PubChem_id>  (711) 
15939844

>  <DrugBank_id>  (711) 


>  <CAS_no>  (711) 
72047-67-7

>  <references>  (711) 
[{'journal': {'name': 'Phytochemistry', 'id': 10}, 'title': 'Alkaloids of South African samples of Calpurnia aurea subsp. sylvatica', 'year': 1979, 'start_page': 2063, 'volume': 18, 'issue': 12, 'doi': '10.1016/S0031-9422(00)82751-X', 'isbn': '', 'despositor': {'code': 'GU2', 'first_name': 'Gugu', 'last_name': 'Mahlangu', 'id': 24}, 'refauthors_set': [{'author': {'first_name': '', 'initials': 'MH', 'last_name': 'Radema', 'id': 938}, 'first_author': True, 'id': 1522}, {'author': {'first_name': '', 'initials': 'JL', 'last_name': 'Van Eijk', 'id': 939}, 'first_author': None, 'id': 1523}, {'author': {'first_name': '', 'initials': 'W', 'last_name': 'Vermin', 'id': 940}, 'first_author': None, 'id': 1524}, {'author': {'first_name': '', 'initials': 'AJ', 'last_name': 'De Kok', 'id': 941}, 'first_author': None, 'id': 1525}, {'author': {'first_name': '', 'initials': 'C', 'last_name': 'Romers', 'id': 942}, 'first_author': None, 'id': 1526}], 'id': 430}]

>  <classifications>  (711) 
[{'classification': 'Alkaloid', 'id': 738}, {'classification': 'Lupin alkaloids (Classyfire)', 'id': 1001}]

>  <molecular_mass>  (711) 
280.363

$$$$
SANC00816_minRM1.pdb
     RDKit          3D

 54 58  0  0  1  0  0  0  0  0999 V2000
   -3.3860   -1.5730   -0.3320 C   0  0  1  0  0  0  0  0  0  0  0  0
   -2.6010   -1.3910    0.9750 C   0  0  0  0  0  0  0  0  0  0  0  0
   -1.1270   -1.3530    0.7760 N   0  0  0  0  0  0  0  0  0  0  0  0
   -0.4560   -1.0630    2.0790 C   0  0  0  0  0  0  0  0  0  0  0  0
    0.8690   -0.3160    1.9250 C   0  0  0  0  0  0  0  0  0  0  0  0
    1.6320   -0.9000    0.7350 C   0  0  2  0  0  0  0  0  0  0  0  0
    2.7830   -0.0880    0.6050 O   0  0  0  0  0  0  0  0  0  0  0  0
    3.9640   -0.6520    0.2220 C   0  0  0  0  0  0  0  0  0  0  0  0
    4.0700   -1.8520    0.0520 O   0  0  0  0  0  0  0  0  0  0  0  0
    5.0220    0.3300    0.0810 C   0  0  0  0  0  0  0  0  0  0  0  0
    6.3430    0.0840   -0.2970 C   0  0  0  0  0  0  0  0  0  0  0  0
    7.0170    1.3270   -0.2920 C   0  0  0  0  0  0  0  0  0  0  0  0
    6.0980    2.3080    0.0870 C   0  0  0  0  0  0  0  0  0  0  0  0
    4.8790    1.6970    0.3150 N   0  0  0  0  0  0  0  0  0  0  0  0
    0.8090   -0.7760   -0.5810 C   0  0  1  0  0  0  0  0  0  0  0  0
    0.9320   -1.9430   -1.3250 O   0  0  0  0  0  0  0  0  0  0  0  0
   -0.6820   -0.4180   -0.2940 C   0  0  1  0  0  0  0  0  0  0  0  0
   -1.5190   -0.5760   -1.5820 C   0  0  2  0  0  0  0  0  0  0  0  0
   -2.3790    0.6760   -1.8490 C   0  0  0  0  0  0  0  0  0  0  0  0
   -3.4380    0.8410   -0.8390 N   0  0  0  0  0  0  0  0  0  0  0  0
   -3.4830    1.9610   -0.0170 C   0  0  0  0  0  0  0  0  0  0  0  0
   -2.6150    2.8310   -0.0870 O   0  0  0  0  0  0  0  0  0  0  0  0
   -4.6700    2.1200    0.9030 C   0  0  0  0  0  0  0  0  0  0  0  0
   -5.1040    0.7840    1.4720 C   0  0  0  0  0  0  0  0  0  0  0  0
   -5.4320   -0.1640    0.3310 C   0  0  0  0  0  0  0  0  0  0  0  0
   -4.2810   -0.3490   -0.6690 C   0  0  2  0  0  0  0  0  0  0  0  0
   -2.4300   -1.7940   -1.4990 C   0  0  0  0  0  0  0  0  0  0  0  0
   -4.0500   -2.4690   -0.2310 H   0  0  0  0  0  0  0  0  0  0  0  0
   -2.7900   -2.2610    1.6480 H   0  0  0  0  0  0  0  0  0  0  0  0
   -2.9910   -0.5110    1.5480 H   0  0  0  0  0  0  0  0  0  0  0  0
   -1.0890   -0.5030    2.8130 H   0  0  0  0  0  0  0  0  0  0  0  0
   -0.2900   -2.0590    2.5530 H   0  0  0  0  0  0  0  0  0  0  0  0
    1.4670   -0.4060    2.8580 H   0  0  0  0  0  0  0  0  0  0  0  0
    0.7160    0.7790    1.8150 H   0  0  0  0  0  0  0  0  0  0  0  0
    1.8810   -1.9740    0.9580 H   0  0  0  0  0  0  0  0  0  0  0  0
    6.7630   -0.8830   -0.5470 H   0  0  0  0  0  0  0  0  0  0  0  0
    8.0580    1.4910   -0.5380 H   0  0  0  0  0  0  0  0  0  0  0  0
    6.2470    3.3790    0.2040 H   0  0  0  0  0  0  0  0  0  0  0  0
    4.0220    2.1480    0.5980 H   0  0  0  0  0  0  0  0  0  0  0  0
    1.2460    0.0050   -1.2590 H   0  0  0  0  0  0  0  0  0  0  0  0
    0.4990   -2.6600   -0.8470 H   0  0  0  0  0  0  0  0  0  0  0  0
   -0.7210    0.6620    0.0270 H   0  0  0  0  0  0  0  0  0  0  0  0
   -0.8400   -0.6860   -2.4680 H   0  0  0  0  0  0  0  0  0  0  0  0
   -2.8600    0.5930   -2.8550 H   0  0  0  0  0  0  0  0  0  0  0  0
   -1.7360    1.5830   -1.9300 H   0  0  0  0  0  0  0  0  0  0  0  0
   -5.4930    2.6100    0.3380 H   0  0  0  0  0  0  0  0  0  0  0  0
   -4.4230    2.8390    1.7140 H   0  0  0  0  0  0  0  0  0  0  0  0
   -5.9810    0.9090    2.1420 H   0  0  0  0  0  0  0  0  0  0  0  0
   -4.3100    0.3610    2.1290 H   0  0  0  0  0  0  0  0  0  0  0  0
   -5.7520   -1.1500    0.7290 H   0  0  0  0  0  0  0  0  0  0  0  0
   -6.3310    0.2100   -0.2070 H   0  0  0  0  0  0  0  0  0  0  0  0
   -4.7620   -0.5590   -1.6710 H   0  0  0  0  0  0  0  0  0  0  0  0
   -2.9770   -1.9520   -2.4530 H   0  0  0  0  0  0  0  0  0  0  0  0
   -1.8500   -2.7310   -1.3700 H   0  0  0  0  0  0  0  0  0  0  0  0
  1 27  1  0
  1 26  1  0
  1 28  1  1
  1  2  1  0
  2 30  1  0
  2 29  1  0
  3  2  1  0
  3 17  1  0
  3  4  1  0
  4  5  1  0
  4 32  1  0
  4 31  1  0
  5  6  1  0
  5 34  1  0
  5 33  1  0
  6 15  1  0
  6  7  1  0
  6 35  1  1
  7  8  1  0
  8  9  2  0
  8 10  1  0
 10 11  2  0
 10 14  1  0
 11 36  1  0
 11 12  1  0
 12 37  1  0
 12 13  2  0
 13 38  1  0
 13 14  1  0
 14 39  1  0
 15 16  1  0
 15 40  1  6
 15 17  1  0
 16 41  1  0
 17 18  1  0
 17 42  1  1
 18 43  1  6
 18 19  1  0
 18 27  1  0
 19 44  1  0
 19 45  1  0
 19 20  1  0
 20 26  1  0
 20 21  1  0
 21 22  2  0
 21 23  1  0
 23 46  1  0
 23 24  1  0
 23 47  1  0
 24 25  1  0
 24 49  1  0
 24 48  1  0
 25 26  1  0
 25 51  1  0
 25 50  1  0
 26 52  1  6
 27 53  1  0
 27 54  1  0
M  END
>  <id>  (712) 
816

>  <scaffolds>  (712) 
['C1CCNCC1', 'O=C1CCCCN1', 'O=C(OC1CCN2CC3CC(CN4C(=O)CCCC34)C2C1)c1ccc[nH]1', 'O=C1CCCC2C3CC(CN12)C1CCCCN1C3']

>  <name>  (712) 
13-(2'-pyrrolecarboxyl)calpurmenine

>  <formula>  (712) 
C20H27N3O4

>  <SMILES>  (712) 
[H][C@]45CN2CC[C@H](OC(=O)c1ccc[nH]1)C(O)[C@@]2([H])[C@]([H])(CN3C(=O)CCC[C@@]34[H])C5

>  <ChEMBL_id>  (712) 


>  <ZINC_id>  (712) 


>  <PubChem_id>  (712) 


>  <DrugBank_id>  (712) 


>  <CAS_no>  (712) 
72047-68-8

>  <references>  (712) 
[{'journal': {'name': 'Phytochemistry', 'id': 10}, 'title': 'Alkaloids of South African samples of Calpurnia aurea subsp. sylvatica', 'year': 1979, 'start_page': 2063, 'volume': 18, 'issue': 12, 'doi': '10.1016/S0031-9422(00)82751-X', 'isbn': '', 'despositor': {'code': 'GU2', 'first_name': 'Gugu', 'last_name': 'Mahlangu', 'id': 24}, 'refauthors_set': [{'author': {'first_name': '', 'initials': 'MH', 'last_name': 'Radema', 'id': 938}, 'first_author': True, 'id': 1522}, {'author': {'first_name': '', 'initials': 'JL', 'last_name': 'Van Eijk', 'id': 939}, 'first_author': None, 'id': 1523}, {'author': {'first_name': '', 'initials': 'W', 'last_name': 'Vermin', 'id': 940}, 'first_author': None, 'id': 1524}, {'author': {'first_name': '', 'initials': 'AJ', 'last_name': 'De Kok', 'id': 941}, 'first_author': None, 'id': 1525}, {'author': {'first_name': '', 'initials': 'C', 'last_name': 'Romers', 'id': 942}, 'first_author': None, 'id': 1526}], 'id': 430}]

>  <classifications>  (712) 
[{'classification': 'Alkaloid', 'id': 738}, {'classification': 'Lupin alkaloids (Classyfire)', 'id': 1001}]

>  <molecular_mass>  (712) 
373.44

$$$$
SANC00817_minRM1.pdb
     RDKit          3D

 44 47  0  0  1  0  0  0  0  0999 V2000
   -2.6540    2.3450   -0.4390 O   0  0  0  0  0  0  0  0  0  0  0  0
   -2.6360    1.1340   -0.2030 C   0  0  0  0  0  0  0  0  0  0  0  0
   -3.9340    0.3830   -0.0310 C   0  0  0  0  0  0  0  0  0  0  0  0
   -3.7840   -1.1020    0.2520 C   0  0  0  0  0  0  0  0  0  0  0  0
   -2.5520   -1.3420    1.1070 C   0  0  0  0  0  0  0  0  0  0  0  0
   -1.2800   -0.9180    0.3400 C   0  0  2  0  0  0  0  0  0  0  0  0
   -1.1020   -1.8320   -0.8880 C   0  0  0  0  0  0  0  0  0  0  0  0
    0.2970   -1.8410   -1.4830 C   0  0  0  0  0  0  0  0  0  0  0  0
    0.8700   -0.4440   -1.6780 C   0  0  0  0  0  0  0  0  0  0  0  0
    1.0720    0.3460   -0.3610 C   0  0  2  0  0  0  0  0  0  0  0  0
    2.3030    1.2680   -0.4810 C   0  0  0  0  0  0  0  0  0  0  0  0
    3.6420    0.5860   -0.1550 C   0  0  2  0  0  0  0  0  0  0  0  0
    4.0630   -0.2650   -1.1820 O   0  0  0  0  0  0  0  0  0  0  0  0
    3.5720   -0.2860    1.1100 C   0  0  0  0  0  0  0  0  0  0  0  0
    2.1930   -0.2230    1.7680 C   0  0  0  0  0  0  0  0  0  0  0  0
    1.2070   -0.6310    0.7390 N   0  0  0  0  0  0  0  0  0  0  0  0
   -0.0920   -1.0300    1.3300 C   0  0  0  0  0  0  0  0  0  0  0  0
   -0.1720    1.2860   -0.1650 C   0  0  2  0  0  0  0  0  0  0  0  0
   -0.0050    1.9280    1.0630 O   0  0  0  0  0  0  0  0  0  0  0  0
   -1.4120    0.4800   -0.1030 N   0  0  0  0  0  0  0  0  0  0  0  0
   -4.5620    0.5540   -0.9320 H   0  0  0  0  0  0  0  0  0  0  0  0
   -4.4920    0.8820    0.7930 H   0  0  0  0  0  0  0  0  0  0  0  0
   -4.6940   -1.4860    0.7630 H   0  0  0  0  0  0  0  0  0  0  0  0
   -3.7510   -1.6900   -0.6890 H   0  0  0  0  0  0  0  0  0  0  0  0
   -2.6470   -0.7880    2.0650 H   0  0  0  0  0  0  0  0  0  0  0  0
   -2.4830   -2.4070    1.4130 H   0  0  0  0  0  0  0  0  0  0  0  0
   -1.3820   -2.8740   -0.6220 H   0  0  0  0  0  0  0  0  0  0  0  0
   -1.8290   -1.5430   -1.6790 H   0  0  0  0  0  0  0  0  0  0  0  0
    0.2670   -2.3620   -2.4680 H   0  0  0  0  0  0  0  0  0  0  0  0
    0.9850   -2.4740   -0.8820 H   0  0  0  0  0  0  0  0  0  0  0  0
    0.2390    0.1340   -2.3860 H   0  0  0  0  0  0  0  0  0  0  0  0
    1.8380   -0.5490   -2.2130 H   0  0  0  0  0  0  0  0  0  0  0  0
    2.3300    1.7210   -1.4950 H   0  0  0  0  0  0  0  0  0  0  0  0
    2.2140    2.1480    0.1920 H   0  0  0  0  0  0  0  0  0  0  0  0
    4.4100    1.3990   -0.0030 H   0  0  0  0  0  0  0  0  0  0  0  0
    4.2180    0.2730   -1.9640 H   0  0  0  0  0  0  0  0  0  0  0  0
    3.8330   -1.3440    0.8840 H   0  0  0  0  0  0  0  0  0  0  0  0
    4.3460    0.0350    1.8380 H   0  0  0  0  0  0  0  0  0  0  0  0
    2.0060    0.7760    2.2310 H   0  0  0  0  0  0  0  0  0  0  0  0
    2.1490   -0.9380    2.6220 H   0  0  0  0  0  0  0  0  0  0  0  0
   -0.3370   -0.4660    2.2650 H   0  0  0  0  0  0  0  0  0  0  0  0
    0.0250   -2.0930    1.6470 H   0  0  0  0  0  0  0  0  0  0  0  0
   -0.2400    2.0200   -1.0220 H   0  0  0  0  0  0  0  0  0  0  0  0
   -0.6270    2.6630    1.1120 H   0  0  0  0  0  0  0  0  0  0  0  0
  1  2  2  0
  2 20  1  0
  2  3  1  0
  3 21  1  0
  3  4  1  0
  3 22  1  0
  4 24  1  0
  4 23  1  0
  4  5  1  0
  5 26  1  0
  5 25  1  0
  6  5  1  1
  6  7  1  0
  6 20  1  0
  6 17  1  0
  7 28  1  0
  7  8  1  0
  7 27  1  0
  8 29  1  0
  8  9  1  0
  8 30  1  0
  9 31  1  0
  9 32  1  0
 10  9  1  6
 10 11  1  0
 10 18  1  0
 10 16  1  0
 11 33  1  0
 11 12  1  0
 11 34  1  0
 12 13  1  0
 12 35  1  1
 12 14  1  0
 13 36  1  0
 14 37  1  0
 14 15  1  0
 14 38  1  0
 15 39  1  0
 15 40  1  0
 16 15  1  0
 16 17  1  0
 17 42  1  0
 17 41  1  0
 18 43  1  6
 18 20  1  0
 18 19  1  0
 19 44  1  0
M  END
>  <id>  (713) 
817

>  <scaffolds>  (713) 
['C1CCNCC1', 'O=C1CCCCN1', 'O=C1CCCC23CCCC4(CCCCN4C2)CN13']

>  <name>  (713) 
10,13-Dihydroxylupanine

>  <formula>  (713) 
C15H24N2O3

>  <SMILES>  (713) 
O=C1N4[C@@]3(C([H])([H])C([H])([H])C1([H])[H])C([H])([H])C([H])([H])C([H])([H])[C@]2(N(C([H])([H])C([H])([H])[C@@]([H])(O[H])C2([H])[H])C3([H])[H])[C@]4([H])O[H]

>  <ChEMBL_id>  (713) 


>  <ZINC_id>  (713) 


>  <PubChem_id>  (713) 


>  <DrugBank_id>  (713) 


>  <CAS_no>  (713) 
61166-47-0

>  <references>  (713) 
[{'journal': {'name': 'Phytochemistry', 'id': 10}, 'title': 'Alkaloids of South African samples of Calpurnia aurea subsp. sylvatica', 'year': 1979, 'start_page': 2063, 'volume': 18, 'issue': 12, 'doi': '10.1016/S0031-9422(00)82751-X', 'isbn': '', 'despositor': {'code': 'GU2', 'first_name': 'Gugu', 'last_name': 'Mahlangu', 'id': 24}, 'refauthors_set': [{'author': {'first_name': '', 'initials': 'MH', 'last_name': 'Radema', 'id': 938}, 'first_author': True, 'id': 1522}, {'author': {'first_name': '', 'initials': 'JL', 'last_name': 'Van Eijk', 'id': 939}, 'first_author': None, 'id': 1523}, {'author': {'first_name': '', 'initials': 'W', 'last_name': 'Vermin', 'id': 940}, 'first_author': None, 'id': 1524}, {'author': {'first_name': '', 'initials': 'AJ', 'last_name': 'De Kok', 'id': 941}, 'first_author': None, 'id': 1525}, {'author': {'first_name': '', 'initials': 'C', 'last_name': 'Romers', 'id': 942}, 'first_author': None, 'id': 1526}], 'id': 430}]

>  <classifications>  (713) 
[{'classification': 'Alkaloid', 'id': 738}, {'classification': 'Piperazinopiperidines (Classyfire)', 'id': 1002}]

>  <molecular_mass>  (713) 
280.36

$$$$
SANC00818_minRM1.pdb
     RDKit          3D

 62 66  0  0  1  0  0  0  0  0999 V2000
   -3.6090    0.6900   -1.0070 C   0  0  1  0  0  0  0  0  0  0  0  0
   -3.0120    1.8600   -0.2340 C   0  0  0  0  0  0  0  0  0  0  0  0
   -1.4970    1.8500   -0.4090 C   0  0  0  0  0  0  0  0  0  0  0  0
   -0.9170    0.4280   -0.4520 C   0  0  2  0  0  0  0  0  0  0  0  0
   -1.8120   -0.5670    0.2890 C   0  0  2  0  0  0  0  0  0  0  0  0
   -1.1360   -1.9390    0.3050 C   0  0  0  0  0  0  0  0  0  0  0  0
    0.2250   -1.8640    0.9820 C   0  0  0  0  0  0  0  0  0  0  0  0
    1.1660   -0.9370    0.2030 C   0  0  2  0  0  0  0  0  0  0  0  0
    1.4980   -1.5700   -1.1380 C   0  0  0  0  0  0  0  0  0  0  0  0
    2.4260   -0.6930    1.0680 C   0  0  1  0  0  0  0  0  0  0  0  0
    3.6340   -0.3130    0.2820 C   0  0  0  0  0  0  0  0  0  0  0  0
    4.8660   -1.0310    0.4880 C   0  0  0  0  0  0  0  0  0  0  0  0
    5.9590   -0.6890   -0.2170 C   0  0  0  0  0  0  0  0  0  0  0  0
    5.8990    0.3990   -1.1780 C   0  0  0  0  0  0  0  0  0  0  0  0
    6.7830    0.8250   -1.8950 O   0  0  0  0  0  0  0  0  0  0  0  0
    4.7020    1.0780   -1.3370 O   0  0  0  0  0  0  0  0  0  0  0  0
    3.6280    0.7020   -0.6110 C   0  0  0  0  0  0  0  0  0  0  0  0
    1.9770    0.4100    2.0670 C   0  0  1  0  0  0  0  0  0  0  0  0
    2.9710    1.3090    2.4200 O   0  0  0  0  0  0  0  0  0  0  0  0
    0.7320    1.0860    1.4490 C   0  0  0  0  0  0  0  0  0  0  0  0
    0.5250    0.4530    0.0690 C   0  0  2  0  0  0  0  0  0  0  0  0
   -3.2560   -0.6360   -0.3030 C   0  0  2  0  0  0  0  0  0  0  0  0
   -3.4150   -1.7470   -1.3440 C   0  0  0  0  0  0  0  0  0  0  0  0
   -4.1970   -0.9200    0.8810 C   0  0  0  0  0  0  0  0  0  0  0  0
   -5.6680   -0.7820    0.5300 C   0  0  0  0  0  0  0  0  0  0  0  0
   -5.9240    0.6420    0.0300 C   0  0  2  0  0  0  0  0  0  0  0  0
   -7.2810    0.8740   -0.1890 O   0  0  0  0  0  0  0  0  0  0  0  0
   -5.1060    0.8750   -1.2430 C   0  0  0  0  0  0  0  0  0  0  0  0
   -3.1370    0.6920   -2.0280 H   0  0  0  0  0  0  0  0  0  0  0  0
   -3.2900    1.8240    0.8390 H   0  0  0  0  0  0  0  0  0  0  0  0
   -3.4260    2.8310   -0.5800 H   0  0  0  0  0  0  0  0  0  0  0  0
   -1.0500    2.4780    0.3880 H   0  0  0  0  0  0  0  0  0  0  0  0
   -1.2150    2.3830   -1.3430 H   0  0  0  0  0  0  0  0  0  0  0  0
   -0.8680    0.0950   -1.5240 H   0  0  0  0  0  0  0  0  0  0  0  0
   -1.8910   -0.2130    1.3510 H   0  0  0  0  0  0  0  0  0  0  0  0
   -1.0000   -2.3470   -0.7210 H   0  0  0  0  0  0  0  0  0  0  0  0
   -1.7720   -2.6820    0.8310 H   0  0  0  0  0  0  0  0  0  0  0  0
    0.1100   -1.5430    2.0380 H   0  0  0  0  0  0  0  0  0  0  0  0
    0.6650   -2.8830    1.0570 H   0  0  0  0  0  0  0  0  0  0  0  0
    2.0010   -0.8880   -1.8370 H   0  0  0  0  0  0  0  0  0  0  0  0
    0.5960   -1.9270   -1.6610 H   0  0  0  0  0  0  0  0  0  0  0  0
    2.1580   -2.4420   -1.0220 H   0  0  0  0  0  0  0  0  0  0  0  0
    2.6700   -1.6230    1.6410 H   0  0  0  0  0  0  0  0  0  0  0  0
    4.8970   -1.8460    1.2190 H   0  0  0  0  0  0  0  0  0  0  0  0
    6.9240   -1.1900   -0.1110 H   0  0  0  0  0  0  0  0  0  0  0  0
    2.7740    1.3410   -0.8770 H   0  0  0  0  0  0  0  0  0  0  0  0
    1.7330   -0.0460    3.0620 H   0  0  0  0  0  0  0  0  0  0  0  0
    3.2480    1.8050    1.6430 H   0  0  0  0  0  0  0  0  0  0  0  0
    0.8490    2.1880    1.3910 H   0  0  0  0  0  0  0  0  0  0  0  0
   -0.1470    0.9480    2.1090 H   0  0  0  0  0  0  0  0  0  0  0  0
    1.1110    1.0600   -0.6760 H   0  0  0  0  0  0  0  0  0  0  0  0
   -4.3750   -1.6930   -1.8790 H   0  0  0  0  0  0  0  0  0  0  0  0
   -3.3850   -2.7590   -0.9160 H   0  0  0  0  0  0  0  0  0  0  0  0
   -2.6410   -1.7030   -2.1250 H   0  0  0  0  0  0  0  0  0  0  0  0
   -3.9680   -0.2450    1.7350 H   0  0  0  0  0  0  0  0  0  0  0  0
   -4.0020   -1.9350    1.2870 H   0  0  0  0  0  0  0  0  0  0  0  0
   -6.3010   -0.9990    1.4170 H   0  0  0  0  0  0  0  0  0  0  0  0
   -5.9850   -1.5400   -0.2160 H   0  0  0  0  0  0  0  0  0  0  0  0
   -5.6750    1.4000    0.8170 H   0  0  0  0  0  0  0  0  0  0  0  0
   -7.5980    0.2540   -0.8530 H   0  0  0  0  0  0  0  0  0  0  0  0
   -5.3140    1.8890   -1.6460 H   0  0  0  0  0  0  0  0  0  0  0  0
   -5.4560    0.1990   -2.0530 H   0  0  0  0  0  0  0  0  0  0  0  0
  1 29  1  6
  1 28  1  0
  1 22  1  0
  1  2  1  0
  2 31  1  0
  2  3  1  0
  2 30  1  0
  3 33  1  0
  3  4  1  0
  3 32  1  0
  4 34  1  6
  4 21  1  0
  4  5  1  0
  5 22  1  0
  5  6  1  0
  5 35  1  1
  6 36  1  0
  6 37  1  0
  6  7  1  0
  7  8  1  0
  7 39  1  0
  7 38  1  0
  8  9  1  6
  8 21  1  0
  8 10  1  0
  9 40  1  0
  9 41  1  0
  9 42  1  0
 10 11  1  0
 10 43  1  1
 10 18  1  0
 11 17  2  0
 11 12  1  0
 12 13  2  0
 12 44  1  0
 13 14  1  0
 13 45  1  0
 14 15  2  0
 14 16  1  0
 16 17  1  0
 17 46  1  0
 18 20  1  0
 18 19  1  0
 18 47  1  1
 19 48  1  0
 20 21  1  0
 20 49  1  0
 20 50  1  0
 21 51  1  6
 22 23  1  6
 22 24  1  0
 23 54  1  0
 23 52  1  0
 23 53  1  0
 24 25  1  0
 24 56  1  0
 24 55  1  0
 25 58  1  0
 25 26  1  0
 25 57  1  0
 26 28  1  0
 26 27  1  0
 26 59  1  1
 27 60  1  0
 28 62  1  0
 28 61  1  0
M  END
>  <id>  (714) 
818

>  <scaffolds>  (714) 
['C1CCC(C2CCCC2)CC1', 'C1CCCCC1', 'C1CCC2C(C1)CCC1C3CCCC3CCC21', 'O=c1ccc(C2CCC3C2CCC2C4CCCCC4CCC23)co1', 'C1CCC2CCCCC2C1']

>  <name>  (714) 
3[beta],16[beta]-dihydroxy-5[beta]-bufa-20,22-dienolide

>  <formula>  (714) 
C24H34O4

>  <SMILES>  (714) 
[H][C@]45CC[C@]2([H])[C@]([H])(CC[C@]3(C)[C@@H](c1ccc(=O)oc1)[C@@H](O)C[C@]23[H])[C@@]4(C)CC[C@H](O)C5

>  <ChEMBL_id>  (714) 


>  <ZINC_id>  (714) 


>  <PubChem_id>  (714) 


>  <DrugBank_id>  (714) 


>  <CAS_no>  (714) 
946568-37-2

>  <references>  (714) 
[{'journal': {'name': 'Phytochemistry', 'id': 10}, 'title': 'Bufadienolides from the southern African Drimia depressa (Hyacinthaceae: Urgineoideae)', 'year': 2007, 'start_page': 1731, 'volume': 68, 'issue': 13, 'doi': '10.1016/j.phytochem.2007.04.003', 'isbn': '', 'despositor': {'code': 'GU2', 'first_name': 'Gugu', 'last_name': 'Mahlangu', 'id': 24}, 'refauthors_set': [{'author': {'first_name': 'Neil', 'initials': 'NR', 'last_name': 'Crouch', 'id': 524}, 'first_author': True, 'id': 1527}, {'author': {'first_name': 'Angela', 'initials': 'A', 'last_name': 'Langlois', 'id': 712}, 'first_author': None, 'id': 1528}, {'author': {'first_name': 'Dulcie', 'initials': 'DA', 'last_name': 'Mulholland', 'id': 525}, 'first_author': None, 'id': 1529}], 'id': 431}]

>  <classifications>  (714) 
[{'classification': 'Bufadienolide', 'id': 752}, {'classification': 'Steroids and steroid derivatives (Classyfire)', 'id': 942}]

>  <molecular_mass>  (714) 
386.52

$$$$
SANC00819_minRM1.pdb
     RDKit          3D

 83 88  0  0  1  0  0  0  0  0999 V2000
   -0.7410    1.3080    0.5250 C   0  0  1  0  0  0  0  0  0  0  0  0
    0.4980    2.1340    0.8940 C   0  0  0  0  0  0  0  0  0  0  0  0
    1.5240    2.2270   -0.2370 C   0  0  0  0  0  0  0  0  0  0  0  0
    1.5400    0.9660   -1.1030 C   0  0  2  0  0  0  0  0  0  0  0  0
    1.1350   -0.2130   -0.2160 C   0  0  2  0  0  0  0  0  0  0  0  0
    1.5570   -1.5170   -0.8780 C   0  0  0  0  0  0  0  0  0  0  0  0
    3.0750   -1.6170   -0.7950 C   0  0  0  0  0  0  0  0  0  0  0  0
    3.7800   -0.3890   -1.3850 C   0  0  2  0  0  0  0  0  0  0  0  0
    4.6660   -0.8560   -2.5460 C   0  0  0  0  0  0  0  0  0  0  0  0
    4.6000    0.4040   -0.3480 C   0  0  1  0  0  0  0  0  0  0  0  0
    5.8620   -0.2020    0.1570 C   0  0  0  0  0  0  0  0  0  0  0  0
    6.7260    0.6310    0.9580 C   0  0  0  0  0  0  0  0  0  0  0  0
    7.8500    0.1130    1.4830 C   0  0  0  0  0  0  0  0  0  0  0  0
    8.1910   -1.2780    1.2510 C   0  0  0  0  0  0  0  0  0  0  0  0
    9.1580   -1.8980    1.6500 O   0  0  0  0  0  0  0  0  0  0  0  0
    7.3360   -2.0490    0.4830 O   0  0  0  0  0  0  0  0  0  0  0  0
    6.2170   -1.4910   -0.0280 C   0  0  0  0  0  0  0  0  0  0  0  0
    4.8320    1.7870   -1.0210 C   0  0  1  0  0  0  0  0  0  0  0  0
    6.1050    1.9420   -1.5540 O   0  0  0  0  0  0  0  0  0  0  0  0
    3.7290    1.9190   -2.0930 C   0  0  0  0  0  0  0  0  0  0  0  0
    2.8160    0.6990   -1.9260 C   0  0  2  0  0  0  0  0  0  0  0  0
   -0.3840   -0.1230    0.0560 C   0  0  2  0  0  0  0  0  0  0  0  0
   -1.1420   -0.4490   -1.2350 C   0  0  0  0  0  0  0  0  0  0  0  0
   -0.7620   -1.1460    1.1310 C   0  0  0  0  0  0  0  0  0  0  0  0
   -2.2600   -1.1340    1.4070 C   0  0  0  0  0  0  0  0  0  0  0  0
   -2.7920    0.2830    1.6710 C   0  0  2  0  0  0  0  0  0  0  0  0
   -3.6140    0.6960    0.5950 O   0  0  0  0  0  0  0  0  0  0  0  0
   -4.9880    0.5730    0.7850 C   0  0  2  0  0  0  0  0  0  0  0  0
   -5.2030   -0.8010    1.0000 O   0  0  0  0  0  0  0  0  0  0  0  0
   -6.5590   -1.1470    1.0850 C   0  0  2  0  0  0  0  0  0  0  0  0
   -6.5620   -2.6690    1.3730 C   0  0  0  0  0  0  0  0  0  0  0  0
   -7.8720   -3.1050    1.5490 O   0  0  0  0  0  0  0  0  0  0  0  0
   -7.3000   -0.8190   -0.2300 C   0  0  2  0  0  0  0  0  0  0  0  0
   -6.6740   -1.5510   -1.2340 O   0  0  0  0  0  0  0  0  0  0  0  0
   -7.1400    0.7000   -0.5040 C   0  0  2  0  0  0  0  0  0  0  0  0
   -7.7560    0.9130   -1.7350 O   0  0  0  0  0  0  0  0  0  0  0  0
   -5.6290    1.0360   -0.5530 C   0  0  1  0  0  0  0  0  0  0  0  0
   -5.4430    2.3910   -0.7880 O   0  0  0  0  0  0  0  0  0  0  0  0
   -1.6680    1.3210    1.7470 C   0  0  0  0  0  0  0  0  0  0  0  0
   -1.2640    1.8420   -0.3110 H   0  0  0  0  0  0  0  0  0  0  0  0
    0.1910    3.1590    1.1980 H   0  0  0  0  0  0  0  0  0  0  0  0
    0.9800    1.7250    1.8090 H   0  0  0  0  0  0  0  0  0  0  0  0
    1.3060    3.1170   -0.8650 H   0  0  0  0  0  0  0  0  0  0  0  0
    2.5150    2.4370    0.2140 H   0  0  0  0  0  0  0  0  0  0  0  0
    0.7340    1.1050   -1.8820 H   0  0  0  0  0  0  0  0  0  0  0  0
    1.6730   -0.1550    0.7670 H   0  0  0  0  0  0  0  0  0  0  0  0
    1.2200   -1.5810   -1.9330 H   0  0  0  0  0  0  0  0  0  0  0  0
    1.0830   -2.3910   -0.3800 H   0  0  0  0  0  0  0  0  0  0  0  0
    3.3880   -2.5570   -1.3020 H   0  0  0  0  0  0  0  0  0  0  0  0
    3.3880   -1.7830    0.2590 H   0  0  0  0  0  0  0  0  0  0  0  0
    5.3100   -1.7110   -2.2840 H   0  0  0  0  0  0  0  0  0  0  0  0
    5.3510   -0.0820   -2.9260 H   0  0  0  0  0  0  0  0  0  0  0  0
    4.0710   -1.1930   -3.4090 H   0  0  0  0  0  0  0  0  0  0  0  0
    3.9560    0.5610    0.5580 H   0  0  0  0  0  0  0  0  0  0  0  0
    6.4570    1.6790    1.1280 H   0  0  0  0  0  0  0  0  0  0  0  0
    8.5500    0.6910    2.0920 H   0  0  0  0  0  0  0  0  0  0  0  0
    5.6910   -2.2560   -0.6140 H   0  0  0  0  0  0  0  0  0  0  0  0
    4.7870    2.6230   -0.2770 H   0  0  0  0  0  0  0  0  0  0  0  0
    6.2730    1.2080   -2.1610 H   0  0  0  0  0  0  0  0  0  0  0  0
    4.1540    1.9530   -3.1190 H   0  0  0  0  0  0  0  0  0  0  0  0
    3.2020    2.8890   -2.0340 H   0  0  0  0  0  0  0  0  0  0  0  0
    2.4450    0.3780   -2.9340 H   0  0  0  0  0  0  0  0  0  0  0  0
   -0.7200    0.0860   -2.1030 H   0  0  0  0  0  0  0  0  0  0  0  0
   -1.1240   -1.5200   -1.4800 H   0  0  0  0  0  0  0  0  0  0  0  0
   -2.2040   -0.1700   -1.2040 H   0  0  0  0  0  0  0  0  0  0  0  0
   -0.1910   -0.9620    2.0660 H   0  0  0  0  0  0  0  0  0  0  0  0
   -0.4440   -2.1680    0.8250 H   0  0  0  0  0  0  0  0  0  0  0  0
   -2.4810   -1.7840    2.2810 H   0  0  0  0  0  0  0  0  0  0  0  0
   -2.8120   -1.6250    0.5770 H   0  0  0  0  0  0  0  0  0  0  0  0
   -3.3550    0.2930    2.6460 H   0  0  0  0  0  0  0  0  0  0  0  0
   -5.3600    1.1830    1.6620 H   0  0  0  0  0  0  0  0  0  0  0  0
   -7.0610   -0.5970    1.9300 H   0  0  0  0  0  0  0  0  0  0  0  0
   -5.9000   -2.9050    2.2380 H   0  0  0  0  0  0  0  0  0  0  0  0
   -6.1740   -3.2570    0.5140 H   0  0  0  0  0  0  0  0  0  0  0  0
   -8.1790   -2.7920    2.4060 H   0  0  0  0  0  0  0  0  0  0  0  0
   -8.3880   -1.0820   -0.1280 H   0  0  0  0  0  0  0  0  0  0  0  0
   -7.2130   -1.4740   -2.0290 H   0  0  0  0  0  0  0  0  0  0  0  0
   -7.6540    1.2970    0.2970 H   0  0  0  0  0  0  0  0  0  0  0  0
   -7.4920    1.7810   -2.0600 H   0  0  0  0  0  0  0  0  0  0  0  0
   -5.1330    0.5390   -1.4290 H   0  0  0  0  0  0  0  0  0  0  0  0
   -5.6700    2.8830    0.0080 H   0  0  0  0  0  0  0  0  0  0  0  0
   -2.1010    2.3370    1.8760 H   0  0  0  0  0  0  0  0  0  0  0  0
   -1.1040    1.1450    2.6880 H   0  0  0  0  0  0  0  0  0  0  0  0
  1 40  1  6
  1 22  1  0
  1  2  1  0
  1 39  1  0
  2  3  1  0
  2 41  1  0
  2 42  1  0
  3  4  1  0
  3 43  1  0
  3 44  1  0
  4 21  1  0
  4 45  1  6
  4  5  1  0
  5  6  1  0
  5 22  1  0
  5 46  1  1
  6 47  1  0
  6  7  1  0
  6 48  1  0
  7  8  1  0
  7 49  1  0
  7 50  1  0
  8  9  1  6
  8 21  1  0
  8 10  1  0
  9 53  1  0
  9 52  1  0
  9 51  1  0
 10 18  1  0
 10 11  1  0
 10 54  1  1
 11 17  2  0
 11 12  1  0
 12 55  1  0
 12 13  2  0
 13 14  1  0
 13 56  1  0
 14 16  1  0
 14 15  2  0
 16 17  1  0
 17 57  1  0
 18 20  1  0
 18 19  1  0
 18 58  1  1
 19 59  1  0
 20 60  1  0
 20 61  1  0
 20 21  1  0
 21 62  1  6
 22 23  1  6
 22 24  1  0
 23 63  1  0
 23 64  1  0
 23 65  1  0
 24 67  1  0
 24 25  1  0
 24 66  1  0
 25 69  1  0
 25 26  1  0
 25 68  1  0
 26 27  1  0
 26 39  1  0
 26 70  1  1
 27 28  1  0
 28 37  1  0
 28 29  1  0
 28 71  1  1
 29 30  1  0
 30 33  1  0
 30 31  1  0
 30 72  1  1
 31 74  1  0
 31 32  1  0
 31 73  1  0
 32 75  1  0
 33 34  1  0
 33 35  1  0
 33 76  1  1
 34 77  1  0
 35 36  1  0
 35 37  1  0
 35 78  1  1
 36 79  1  0
 37 80  1  6
 37 38  1  0
 38 81  1  0
 39 82  1  0
 39 83  1  0
M  END
>  <id>  (715) 
819

>  <scaffolds>  (715) 
['C1CCOCC1', 'C1CCC(C2CCCC2)CC1', 'C1CCCCC1', 'O=c1ccc(C2CCC3C2CCC2C4CCC(OC5CCCCO5)CC4CCC23)co1', 'C1CCC2C(C1)CCC1C3CCCC3CCC21', 'O=c1ccc(C2CCC3C2CCC2C4CCCCC4CCC23)co1', 'C1CCC2CCCCC2C1']

>  <name>  (715) 
16[beta]-hydroxy-5[beta]-bufa-20,22-dienolide-3[beta]-O-[beta]-d-galactoside

>  <formula>  (715) 
C30H44O9

>  <SMILES>  (715) 
[H][C@]46CC[C@]2([H])[C@]([H])(CC[C@]3(C)[C@@H](c1ccc(=O)oc1)[C@@H](O)C[C@]23[H])[C@@]4(C)CC[C@H](O[C@]5([H])O[C@H](CO)[C@H](O)[C@H](O)[C@H]5O)C6

>  <ChEMBL_id>  (715) 


>  <ZINC_id>  (715) 


>  <PubChem_id>  (715) 


>  <DrugBank_id>  (715) 


>  <CAS_no>  (715) 
946568-38-3

>  <references>  (715) 
[{'journal': {'name': 'Phytochemistry', 'id': 10}, 'title': 'Bufadienolides from the southern African Drimia depressa (Hyacinthaceae: Urgineoideae)', 'year': 2007, 'start_page': 1731, 'volume': 68, 'issue': 13, 'doi': '10.1016/j.phytochem.2007.04.003', 'isbn': '', 'despositor': {'code': 'GU2', 'first_name': 'Gugu', 'last_name': 'Mahlangu', 'id': 24}, 'refauthors_set': [{'author': {'first_name': 'Neil', 'initials': 'NR', 'last_name': 'Crouch', 'id': 524}, 'first_author': True, 'id': 1527}, {'author': {'first_name': 'Angela', 'initials': 'A', 'last_name': 'Langlois', 'id': 712}, 'first_author': None, 'id': 1528}, {'author': {'first_name': 'Dulcie', 'initials': 'DA', 'last_name': 'Mulholland', 'id': 525}, 'first_author': None, 'id': 1529}], 'id': 431}]

>  <classifications>  (715) 
[{'classification': 'Bufadienolide', 'id': 752}, {'classification': 'Steroids and steroid derivatives (Classyfire)', 'id': 942}]

>  <molecular_mass>  (715) 
548.66

$$$$
SANC00820_minRM1.pdb
     RDKit          3D

 94 97  0  0  1  0  0  0  0  0999 V2000
   -6.3770   -0.4340   -0.9770 C   0  0  0  0  0  0  0  0  0  0  0  0
   -5.4210   -0.7810   -0.0090 O   0  0  0  0  0  0  0  0  0  0  0  0
   -4.1170   -1.0050   -0.4530 C   0  0  2  0  0  0  0  0  0  0  0  0
   -3.5030    0.1610   -1.1600 C   0  0  0  0  0  0  0  0  0  0  0  0
   -3.6500    1.4270   -0.7780 C   0  0  0  0  0  0  0  0  0  0  0  0
   -4.5200    1.8860    0.2970 C   0  0  0  0  0  0  0  0  0  0  0  0
   -4.1020    2.1260    1.5400 C   0  0  0  0  0  0  0  0  0  0  0  0
   -5.0250    2.6340    2.5900 C   0  0  0  0  0  0  0  0  0  0  0  0
   -2.6980    1.8660    1.9780 C   0  0  0  0  0  0  0  0  0  0  0  0
   -1.6700    2.7050    1.2890 C   0  0  0  0  0  0  0  0  0  0  0  0
   -2.0200    3.8270    0.5460 C   0  0  0  0  0  0  0  0  0  0  0  0
   -1.0170    4.5600   -0.0880 C   0  0  0  0  0  0  0  0  0  0  0  0
   -1.2100    5.6610   -0.8600 O   0  0  0  0  0  0  0  0  0  0  0  0
   -2.5270    6.1350   -0.9990 C   0  0  0  0  0  0  0  0  0  0  0  0
    0.3220    4.1760    0.0260 C   0  0  0  0  0  0  0  0  0  0  0  0
    0.6710    3.0820    0.8180 C   0  0  0  0  0  0  0  0  0  0  0  0
   -0.3330    2.3460    1.4520 C   0  0  0  0  0  0  0  0  0  0  0  0
    2.0370    2.7490    1.0200 N   0  0  0  0  0  0  0  0  0  0  0  0
    2.6070    1.5420    0.5980 C   0  0  0  0  0  0  0  0  0  0  0  0
    3.8190    1.3860    0.7270 O   0  0  0  0  0  0  0  0  0  0  0  0
    1.7450    0.4530    0.0080 C   0  0  0  0  0  0  0  0  0  0  0  0
    1.8340   -0.7920    0.9020 C   0  0  1  0  0  0  0  0  0  0  0  0
    1.0100   -1.9700    0.3660 C   0  0  1  0  0  0  0  0  0  0  0  0
   -0.4910   -1.7820    0.4410 C   0  0  2  0  0  0  0  0  0  0  0  0
   -1.5310   -2.8720    0.6180 C   0  0  1  0  0  0  0  0  0  0  0  0
   -1.8450   -3.5660   -0.7210 C   0  0  2  0  0  0  0  0  0  0  0  0
   -2.5570   -2.6500   -1.7150 C   0  0  0  0  0  0  0  0  0  0  0  0
   -4.0110   -2.3320   -1.2990 C   0  0  2  0  0  0  0  0  0  0  0  0
   -4.8140   -2.2500   -2.4440 O   0  0  0  0  0  0  0  0  0  0  0  0
   -4.5930   -3.4180   -0.5180 N   0  0  0  0  0  0  0  0  0  0  0  0
   -3.9250   -4.5970   -0.2200 C   0  0  0  0  0  0  0  0  0  0  0  0
   -4.4600   -5.5580    0.3160 O   0  0  0  0  0  0  0  0  0  0  0  0
   -2.5970   -4.7330   -0.5100 O   0  0  0  0  0  0  0  0  0  0  0  0
   -1.1010   -3.8730    1.6810 C   0  0  0  0  0  0  0  0  0  0  0  0
    0.2250   -1.7040   -0.7810 O   0  0  0  0  0  0  0  0  0  0  0  0
    1.6680   -3.3180    0.3890 C   0  0  0  0  0  0  0  0  0  0  0  0
    3.1520   -1.1520    1.2110 O   0  0  0  0  0  0  0  0  0  0  0  0
    4.0660   -1.4260    0.2400 C   0  0  0  0  0  0  0  0  0  0  0  0
    3.7570   -1.4200   -0.9320 O   0  0  0  0  0  0  0  0  0  0  0  0
    5.4070   -1.7880    0.8760 C   0  0  1  0  0  0  0  0  0  0  0  0
    6.3280   -2.2990   -0.1390 N   0  0  0  0  0  0  0  0  0  0  0  0
    6.8660   -1.5280   -1.1810 C   0  0  0  0  0  0  0  0  0  0  0  0
    7.7750   -2.0020   -1.8590 O   0  0  0  0  0  0  0  0  0  0  0  0
    6.3160   -0.1670   -1.4960 C   0  0  0  0  0  0  0  0  0  0  0  0
    6.7760   -3.6870    0.0570 C   0  0  0  0  0  0  0  0  0  0  0  0
    5.9690   -0.5940    1.6510 C   0  0  0  0  0  0  0  0  0  0  0  0
    2.9280    3.8260    1.4910 C   0  0  0  0  0  0  0  0  0  0  0  0
    1.5180    5.0480   -0.8080 Cl  0  0  0  0  0  0  0  0  0  0  0  0
   -7.1500    0.1170   -0.4170 H   0  0  0  0  0  0  0  0  0  0  0  0
   -6.8520   -1.3250   -1.4200 H   0  0  0  0  0  0  0  0  0  0  0  0
   -6.0090    0.2100   -1.7920 H   0  0  0  0  0  0  0  0  0  0  0  0
   -3.5720   -1.1660    0.5220 H   0  0  0  0  0  0  0  0  0  0  0  0
   -2.8250   -0.0780   -1.9900 H   0  0  0  0  0  0  0  0  0  0  0  0
   -3.1220    2.2320   -1.3090 H   0  0  0  0  0  0  0  0  0  0  0  0
   -5.5630    2.0490   -0.0020 H   0  0  0  0  0  0  0  0  0  0  0  0
   -6.0450    2.8260    2.2260 H   0  0  0  0  0  0  0  0  0  0  0  0
   -4.6610    3.5790    3.0230 H   0  0  0  0  0  0  0  0  0  0  0  0
   -5.1210    1.9160    3.4190 H   0  0  0  0  0  0  0  0  0  0  0  0
   -2.4760    0.7850    1.8240 H   0  0  0  0  0  0  0  0  0  0  0  0
   -2.5860    2.0130    3.0770 H   0  0  0  0  0  0  0  0  0  0  0  0
   -3.0700    4.1250    0.4820 H   0  0  0  0  0  0  0  0  0  0  0  0
   -2.4060    7.0200   -1.6430 H   0  0  0  0  0  0  0  0  0  0  0  0
   -2.9810    6.4500   -0.0450 H   0  0  0  0  0  0  0  0  0  0  0  0
   -3.1960    5.4190   -1.5040 H   0  0  0  0  0  0  0  0  0  0  0  0
   -0.0670    1.5020    2.0970 H   0  0  0  0  0  0  0  0  0  0  0  0
    0.6870    0.7460   -0.1450 H   0  0  0  0  0  0  0  0  0  0  0  0
    2.0870    0.2510   -1.0330 H   0  0  0  0  0  0  0  0  0  0  0  0
    1.4560   -0.5540    1.9350 H   0  0  0  0  0  0  0  0  0  0  0  0
   -0.8640   -0.8050    0.8210 H   0  0  0  0  0  0  0  0  0  0  0  0
   -2.4680   -2.3720    0.9930 H   0  0  0  0  0  0  0  0  0  0  0  0
   -0.9060   -3.9830   -1.1760 H   0  0  0  0  0  0  0  0  0  0  0  0
   -1.9850   -1.7140   -1.8840 H   0  0  0  0  0  0  0  0  0  0  0  0
   -2.5500   -3.1490   -2.7120 H   0  0  0  0  0  0  0  0  0  0  0  0
   -4.5050   -1.5170   -2.9850 H   0  0  0  0  0  0  0  0  0  0  0  0
   -5.5920   -3.3750   -0.3210 H   0  0  0  0  0  0  0  0  0  0  0  0
   -0.6640   -3.3750    2.5590 H   0  0  0  0  0  0  0  0  0  0  0  0
   -1.9500   -4.4730    2.0430 H   0  0  0  0  0  0  0  0  0  0  0  0
   -0.3560   -4.5950    1.3100 H   0  0  0  0  0  0  0  0  0  0  0  0
    2.3890   -3.4350   -0.4330 H   0  0  0  0  0  0  0  0  0  0  0  0
    2.1940   -3.5010    1.3370 H   0  0  0  0  0  0  0  0  0  0  0  0
    0.9540   -4.1500    0.2700 H   0  0  0  0  0  0  0  0  0  0  0  0
    5.1930   -2.6090    1.6210 H   0  0  0  0  0  0  0  0  0  0  0  0
    7.1070    0.4810   -1.9050 H   0  0  0  0  0  0  0  0  0  0  0  0
    5.8730    0.3840   -0.6530 H   0  0  0  0  0  0  0  0  0  0  0  0
    5.5420   -0.2460   -2.2770 H   0  0  0  0  0  0  0  0  0  0  0  0
    7.3200   -4.0900   -0.8160 H   0  0  0  0  0  0  0  0  0  0  0  0
    7.4510   -3.7830    0.9270 H   0  0  0  0  0  0  0  0  0  0  0  0
    5.9210   -4.3690    0.2200 H   0  0  0  0  0  0  0  0  0  0  0  0
    6.9310   -0.8420    2.1230 H   0  0  0  0  0  0  0  0  0  0  0  0
    5.2840   -0.2780    2.4510 H   0  0  0  0  0  0  0  0  0  0  0  0
    6.1400    0.2950    1.0240 H   0  0  0  0  0  0  0  0  0  0  0  0
    3.6250    4.1650    0.7030 H   0  0  0  0  0  0  0  0  0  0  0  0
    2.3600    4.7060    1.8380 H   0  0  0  0  0  0  0  0  0  0  0  0
    3.5380    3.4680    2.3410 H   0  0  0  0  0  0  0  0  0  0  0  0
  1 51  1  0
  1 50  1  0
  1 49  1  0
  1  2  1  0
  2  3  1  0
  3 28  1  0
  3  4  1  0
  3 52  1  1
  4 53  1  0
  4  5  2  0
  5 54  1  0
  5  6  1  0
  6 55  1  0
  6  7  2  0
  7  9  1  0
  7  8  1  0
  8 56  1  0
  8 57  1  0
  8 58  1  0
  9 10  1  0
  9 59  1  0
  9 60  1  0
 10 11  2  0
 10 17  1  0
 11 12  1  0
 11 61  1  0
 12 13  1  0
 12 15  2  0
 13 14  1  0
 14 62  1  0
 14 64  1  0
 14 63  1  0
 15 48  1  0
 15 16  1  0
 16 18  1  0
 16 17  2  0
 17 65  1  0
 18 19  1  0
 18 47  1  0
 19 21  1  0
 19 20  2  0
 21 67  1  0
 21 66  1  0
 21 22  1  0
 22 23  1  0
 22 37  1  0
 22 68  1  1
 23 35  1  0
 23 36  1  6
 23 24  1  0
 24 35  1  0
 24 25  1  0
 24 69  1  1
 25 26  1  0
 25 70  1  1
 25 34  1  0
 26 27  1  0
 26 71  1  6
 26 33  1  0
 27 73  1  0
 27 72  1  0
 27 28  1  0
 28 29  1  6
 28 30  1  0
 29 74  1  0
 30 75  1  0
 30 31  1  0
 31 33  1  0
 31 32  2  0
 34 78  1  0
 34 77  1  0
 34 76  1  0
 36 79  1  0
 36 81  1  0
 36 80  1  0
 37 38  1  0
 38 39  2  0
 38 40  1  0
 40 41  1  0
 40 82  1  1
 40 46  1  0
 41 42  1  0
 41 45  1  0
 42 43  2  0
 42 44  1  0
 44 85  1  0
 44 83  1  0
 44 84  1  0
 45 86  1  0
 45 88  1  0
 45 87  1  0
 46 91  1  0
 46 89  1  0
 46 90  1  0
 47 92  1  0
 47 93  1  0
 47 94  1  0
M  END
>  <id>  (716) 
820

>  <scaffolds>  (716) 
['c1ccccc1', 'O=C1CCC2OC2CC2CC(CC=CC=CCc3cccc(c3)N1)NC(=O)O2']

>  <name>  (716) 
Maytansine

>  <formula>  (716) 
C34H46ClN3O10

>  <SMILES>  (716) 
CO[C@@H]1C=CC=C(C)Cc2cc(OC)c(c(c2)N(C(=O)C[C@@H]([C@]2([C@H]([C@@H]([C@@H]3C[C@@]1(O)NC(=O)O3)C)O2)C)OC(=O)[C@@H](N(C(=O)C)C)C)C)Cl	

>  <ChEMBL_id>  (716) 
CHEMBL292702

>  <ZINC_id>  (716) 


>  <PubChem_id>  (716) 
 5281828

>  <DrugBank_id>  (716) 


>  <CAS_no>  (716) 
35846-53-8

>  <references>  (716) 
[{'journal': {'name': 'Phytochemistry', 'id': 10}, 'title': 'Occurrence and non-detectability of maytansinoids in individual plants of the genera Maytenus and Putterlickia', 'year': 2003, 'start_page': 377, 'volume': 62, 'issue': None, 'doi': '10.1016/S0031-9422(02)00550-2', 'isbn': '', 'despositor': {'code': 'AMU', 'first_name': 'Arnold', 'last_name': 'Amusengeri', 'id': 25}, 'refauthors_set': [{'author': {'first_name': 'Christian', 'initials': 'B', 'last_name': 'Pullen', 'id': 943}, 'first_author': True, 'id': 1530}, {'author': {'first_name': 'Petra', 'initials': 'P', 'last_name': 'Schmitz', 'id': 944}, 'first_author': None, 'id': 1531}, {'author': {'first_name': 'Dietmar', 'initials': 'D', 'last_name': 'Hoffmann', 'id': 945}, 'first_author': None, 'id': 1532}, {'author': {'first_name': 'Theresa', 'initials': 'T', 'last_name': 'Boettcher', 'id': 947}, 'first_author': None, 'id': 1533}, {'author': {'first_name': 'Kristina', 'initials': 'K', 'last_name': 'Meurer', 'id': 946}, 'first_author': None, 'id': 1534}, {'author': {'first_name': 'Daniel', 'initials': 'D', 'last_name': 'von Bamberg', 'id': 948}, 'first_author': None, 'id': 1535}, {'author': {'first_name': 'Ana Maria', 'initials': 'A', 'last_name': 'Pereira', 'id': 949}, 'first_author': None, 'id': 1536}, {'author': {'first_name': 'Suzelei', 'initials': 'S', 'last_name': 'de Castro Franca', 'id': 950}, 'first_author': None, 'id': 1537}, {'author': {'first_name': 'Manfred', 'initials': 'M', 'last_name': 'Hauser', 'id': 951}, 'first_author': None, 'id': 1538}, {'author': {'first_name': 'Henk', 'initials': 'H', 'last_name': 'Geertsema', 'id': 952}, 'first_author': None, 'id': 1539}, {'author': {'first_name': 'Abraam', 'initials': 'A', 'last_name': 'van Wyk', 'id': 953}, 'first_author': None, 'id': 1540}, {'author': {'first_name': 'Taifo', 'initials': 'T', 'last_name': 'Mahmud', 'id': 954}, 'first_author': None, 'id': 1541}, {'author': {'first_name': 'Heinz', 'initials': 'G', 'last_name': 'Floss', 'id': 955}, 'first_author': None, 'id': 1542}, {'author': {'first_name': 'Eckhard', 'initials': 'E', 'last_name': 'Leistner', 'id': 956}, 'first_author': None, 'id': 1543}], 'id': 432}]

>  <classifications>  (716) 
[{'classification': 'maytansinoids', 'id': 878}, {'classification': 'Macrolactams (Classyfire)', 'id': 1003}]

>  <molecular_mass>  (716) 
692.19

$$$$
SANC00821_minRM1.pdb
     RDKit          3D

 63 65  0  0  1  0  0  0  0  0999 V2000
   -0.9210    5.0930    0.2180 C   0  0  0  0  0  0  0  0  0  0  0  0
   -0.2580    3.9100   -0.4070 C   0  0  0  0  0  0  0  0  0  0  0  0
    0.4040    3.8810   -1.4280 O   0  0  0  0  0  0  0  0  0  0  0  0
   -0.4550    2.7860    0.3310 O   0  0  0  0  0  0  0  0  0  0  0  0
   -0.0500    1.5430   -0.2030 C   0  0  1  0  0  0  0  0  0  0  0  0
    1.4510    1.3350    0.1210 C   0  0  2  0  0  0  0  0  0  0  0  0
    1.9000   -0.0580   -0.3650 C   0  0  2  0  0  0  0  0  0  0  0  0
    1.1080   -1.2020    0.2950 C   0  0  2  0  0  0  0  0  0  0  0  0
    1.5090   -2.5840   -0.3520 C   0  0  2  0  0  0  0  0  0  0  0  0
    2.8610   -2.5370   -1.0860 C   0  0  0  0  0  0  0  0  0  0  0  0
    3.8400   -1.6950   -0.2970 C   0  0  0  0  0  0  0  0  0  0  0  0
    3.4430   -0.2120   -0.3290 C   0  0  2  0  0  0  0  0  0  0  0  0
    4.1390    0.4660    0.8530 C   0  0  0  0  0  0  0  0  0  0  0  0
    4.0170    0.4220   -1.6070 C   0  0  0  0  0  0  0  0  0  0  0  0
    0.6230   -3.0120   -1.3430 O   0  0  0  0  0  0  0  0  0  0  0  0
   -0.4060   -0.9310    0.0500 C   0  0  2  0  0  0  0  0  0  0  0  0
   -0.9480    0.4710    0.4700 C   0  0  2  0  0  0  0  0  0  0  0  0
   -2.1840    0.6650   -0.1730 O   0  0  0  0  0  0  0  0  0  0  0  0
   -3.1860   -0.3200   -0.0570 C   0  0  1  0  0  0  0  0  0  0  0  0
   -2.8030   -1.6240    0.6660 C   0  0  0  0  0  0  0  0  0  0  0  0
   -1.3330   -1.9310    0.7360 C   0  0  0  0  0  0  0  0  0  0  0  0
   -0.9320   -2.9340    1.2940 O   0  0  0  0  0  0  0  0  0  0  0  0
   -4.3480    0.3680    0.6820 C   0  0  0  0  0  0  0  0  0  0  0  0
   -3.6170   -0.6290   -1.4730 C   0  0  0  0  0  0  0  0  0  0  0  0
   -4.6990   -1.3450   -1.7450 C   0  0  0  0  0  0  0  0  0  0  0  0
   -1.1520    0.6770    1.9680 C   0  0  0  0  0  0  0  0  0  0  0  0
   -0.7550   -1.0770   -1.2970 O   0  0  0  0  0  0  0  0  0  0  0  0
    1.4100   -1.3210    1.7870 C   0  0  0  0  0  0  0  0  0  0  0  0
    1.6650    1.4480    1.4920 O   0  0  0  0  0  0  0  0  0  0  0  0
   -0.6700    6.0200   -0.3190 H   0  0  0  0  0  0  0  0  0  0  0  0
   -0.6240    5.2240    1.2690 H   0  0  0  0  0  0  0  0  0  0  0  0
   -2.0160    4.9820    0.2020 H   0  0  0  0  0  0  0  0  0  0  0  0
   -0.2040    1.5160   -1.3190 H   0  0  0  0  0  0  0  0  0  0  0  0
    2.0380    2.1190   -0.4390 H   0  0  0  0  0  0  0  0  0  0  0  0
    1.6080   -0.0940   -1.4570 H   0  0  0  0  0  0  0  0  0  0  0  0
    1.5720   -3.3400    0.4810 H   0  0  0  0  0  0  0  0  0  0  0  0
    2.7530   -2.1640   -2.1270 H   0  0  0  0  0  0  0  0  0  0  0  0
    3.2420   -3.5720   -1.2200 H   0  0  0  0  0  0  0  0  0  0  0  0
    3.9120   -2.0810    0.7430 H   0  0  0  0  0  0  0  0  0  0  0  0
    4.8710   -1.8290   -0.6910 H   0  0  0  0  0  0  0  0  0  0  0  0
    4.0840    1.5620    0.8210 H   0  0  0  0  0  0  0  0  0  0  0  0
    3.7260    0.1430    1.8230 H   0  0  0  0  0  0  0  0  0  0  0  0
    5.2130    0.2240    0.8810 H   0  0  0  0  0  0  0  0  0  0  0  0
    3.7190    1.4720   -1.7300 H   0  0  0  0  0  0  0  0  0  0  0  0
    5.1170    0.4180   -1.6130 H   0  0  0  0  0  0  0  0  0  0  0  0
    3.7100   -0.1000   -2.5250 H   0  0  0  0  0  0  0  0  0  0  0  0
   -0.0770   -3.5250   -0.9320 H   0  0  0  0  0  0  0  0  0  0  0  0
   -3.3020   -2.4900    0.1740 H   0  0  0  0  0  0  0  0  0  0  0  0
   -3.2210   -1.6520    1.6980 H   0  0  0  0  0  0  0  0  0  0  0  0
   -4.0480    0.7480    1.6690 H   0  0  0  0  0  0  0  0  0  0  0  0
   -5.2000   -0.3060    0.8400 H   0  0  0  0  0  0  0  0  0  0  0  0
   -4.7240    1.2340    0.1170 H   0  0  0  0  0  0  0  0  0  0  0  0
   -2.9860   -0.2270   -2.2740 H   0  0  0  0  0  0  0  0  0  0  0  0
   -5.0160   -1.5670   -2.7600 H   0  0  0  0  0  0  0  0  0  0  0  0
   -5.3670   -1.7770   -1.0070 H   0  0  0  0  0  0  0  0  0  0  0  0
   -1.5850    1.6640    2.1880 H   0  0  0  0  0  0  0  0  0  0  0  0
   -0.2250    0.6000    2.5540 H   0  0  0  0  0  0  0  0  0  0  0  0
   -1.8400   -0.0490    2.4230 H   0  0  0  0  0  0  0  0  0  0  0  0
   -0.0200   -0.7810   -1.8510 H   0  0  0  0  0  0  0  0  0  0  0  0
    2.4110   -0.9480    2.0560 H   0  0  0  0  0  0  0  0  0  0  0  0
    1.3720   -2.3640    2.1450 H   0  0  0  0  0  0  0  0  0  0  0  0
    0.7180   -0.7630    2.4330 H   0  0  0  0  0  0  0  0  0  0  0  0
    1.5130    2.3660    1.7360 H   0  0  0  0  0  0  0  0  0  0  0  0
  1  2  1  0
  1 30  1  0
  1 32  1  0
  1 31  1  0
  2  3  2  0
  2  4  1  0
  4  5  1  0
  5 33  1  6
  5  6  1  0
  5 17  1  0
  6 34  1  6
  6  7  1  0
  6 29  1  0
  7 35  1  6
  7 12  1  0
  7  8  1  0
  8  9  1  0
  8 16  1  0
  8 28  1  1
  9 15  1  0
  9 10  1  0
  9 36  1  1
 10 37  1  0
 10 38  1  0
 10 11  1  0
 11 40  1  0
 11 12  1  0
 11 39  1  0
 12 14  1  6
 12 13  1  0
 13 41  1  0
 13 43  1  0
 13 42  1  0
 14 46  1  0
 14 44  1  0
 14 45  1  0
 15 47  1  0
 16 27  1  6
 16 17  1  0
 16 21  1  0
 17 18  1  0
 17 26  1  1
 18 19  1  0
 19 24  1  6
 19 20  1  0
 19 23  1  0
 20 48  1  0
 20 21  1  0
 20 49  1  0
 21 22  2  0
 23 52  1  0
 23 51  1  0
 23 50  1  0
 24 53  1  0
 24 25  2  0
 25 54  1  0
 25 55  1  0
 26 56  1  0
 26 58  1  0
 26 57  1  0
 27 59  1  0
 28 60  1  0
 28 61  1  0
 28 62  1  0
 29 63  1  0
M  END
>  <id>  (717) 
821

>  <scaffolds>  (717) 
['C1CCOCC1', 'C1CCCCC1', 'O=C1CCOC2CCC3CCCCC3C12', 'C1CCC2C(C1)CCC1OCCCC12', 'C1CCC2CCCCC2C1']

>  <name>  (717) 
forskolin

>  <formula>  (717) 
C22H34O7	

>  <SMILES>  (717) 
CC(=O)O[C@H]1[C@H]([C@@H]2[C@]([C@H](CCC2(C)C)O)([C@@]3([C@@]1(O[C@@](CC3=O)(C)C=C)C)O)C)O

>  <ChEMBL_id>  (717) 
SCHEMBL4928	

>  <ZINC_id>  (717) 
ZINC3977779	

>  <PubChem_id>  (717) 
47936	

>  <DrugBank_id>  (717) 
DB02587	

>  <CAS_no>  (717) 
66575-29-9

>  <references>  (717) 
[{'journal': {'name': 'Journal of Ethnopharmacology', 'id': 7}, 'title': 'Cytotoxicity of South-African medicinal plants towards sensitive and multidrug-resistant cancer cells', 'year': 2016, 'start_page': None, 'volume': None, 'issue': None, 'doi': 'https://doi.org/10.1016/j.jep.2016.04.005', 'isbn': '', 'despositor': {'code': 'BND', 'first_name': "Bakary N'tji", 'last_name': 'Diallo', 'id': 26}, 'refauthors_set': [{'author': {'first_name': 'Mohamed', 'initials': 'M.E.M.S', 'last_name': ' Saeed', 'id': 1096}, 'first_author': True, 'id': 1679}], 'id': 459}]

>  <classifications>  (717) 
[{'classification': 'Triterpene', 'id': 842}, {'classification': 'Phenol lipids (Classyfire)', 'id': 951}]

>  <molecular_mass>  (717) 
410.23

$$$$
SANC00822_minRM1.pdb
     RDKit          3D

 42 45  0  0  1  0  0  0  0  0999 V2000
   -5.0550   -0.2240    0.7210 C   0  0  0  0  0  0  0  0  0  0  0  0
   -4.1600    0.3890   -0.3400 C   0  0  1  0  0  0  0  0  0  0  0  0
   -3.9840    1.9240   -0.1480 C   0  0  0  0  0  0  0  0  0  0  0  0
   -2.5870    2.1870    0.0320 O   0  0  0  0  0  0  0  0  0  0  0  0
   -1.9360    0.9950   -0.0130 C   0  0  0  0  0  0  0  0  0  0  0  0
   -2.7480   -0.0690   -0.2130 C   0  0  0  0  0  0  0  0  0  0  0  0
   -2.2170   -1.4050   -0.3040 C   0  0  0  0  0  0  0  0  0  0  0  0
   -2.7900   -2.3660   -0.7720 O   0  0  0  0  0  0  0  0  0  0  0  0
   -0.8160   -1.5180    0.2790 C   0  0  0  0  0  0  0  0  0  0  0  0
   -0.5150   -2.5090    0.9120 O   0  0  0  0  0  0  0  0  0  0  0  0
    0.0840   -0.3510    0.1280 C   0  0  0  0  0  0  0  0  0  0  0  0
   -0.4950    0.9260    0.0810 C   0  0  0  0  0  0  0  0  0  0  0  0
    0.2990    2.0610    0.0730 C   0  0  0  0  0  0  0  0  0  0  0  0
    1.6810    1.9190    0.0950 C   0  0  0  0  0  0  0  0  0  0  0  0
    2.2770    0.6620    0.0970 C   0  0  0  0  0  0  0  0  0  0  0  0
    1.4720   -0.4870    0.0860 C   0  0  0  0  0  0  0  0  0  0  0  0
    2.0750   -1.8490    0.0220 C   0  0  0  0  0  0  0  0  0  0  0  0
    3.5070   -1.8220   -0.4880 C   0  0  0  0  0  0  0  0  0  0  0  0
    4.3010   -0.8210    0.3290 C   0  0  0  0  0  0  0  0  0  0  0  0
    3.7800    0.6020    0.1000 C   0  0  2  0  0  0  0  0  0  0  0  0
    4.3330    1.4850    1.2250 C   0  0  0  0  0  0  0  0  0  0  0  0
    4.2820    1.1290   -1.2480 C   0  0  0  0  0  0  0  0  0  0  0  0
   -4.6910   -0.0360    1.7410 H   0  0  0  0  0  0  0  0  0  0  0  0
   -6.0800    0.1690    0.6670 H   0  0  0  0  0  0  0  0  0  0  0  0
   -5.1210   -1.3160    0.6050 H   0  0  0  0  0  0  0  0  0  0  0  0
   -4.5610    0.1560   -1.3570 H   0  0  0  0  0  0  0  0  0  0  0  0
   -4.3110    2.5160   -1.0250 H   0  0  0  0  0  0  0  0  0  0  0  0
   -4.5080    2.3280    0.7400 H   0  0  0  0  0  0  0  0  0  0  0  0
   -0.1530    3.0580    0.0480 H   0  0  0  0  0  0  0  0  0  0  0  0
    2.2900    2.8300    0.1010 H   0  0  0  0  0  0  0  0  0  0  0  0
    1.4720   -2.5230   -0.6260 H   0  0  0  0  0  0  0  0  0  0  0  0
    2.0310   -2.3130    1.0340 H   0  0  0  0  0  0  0  0  0  0  0  0
    3.5400   -1.5860   -1.5720 H   0  0  0  0  0  0  0  0  0  0  0  0
    3.9590   -2.8350   -0.4170 H   0  0  0  0  0  0  0  0  0  0  0  0
    4.2480   -1.0880    1.4070 H   0  0  0  0  0  0  0  0  0  0  0  0
    5.3830   -0.8830    0.0870 H   0  0  0  0  0  0  0  0  0  0  0  0
    4.1880    2.5600    1.0460 H   0  0  0  0  0  0  0  0  0  0  0  0
    5.4160    1.3470    1.3550 H   0  0  0  0  0  0  0  0  0  0  0  0
    3.8630    1.2610    2.1930 H   0  0  0  0  0  0  0  0  0  0  0  0
    5.3790    1.0980   -1.3190 H   0  0  0  0  0  0  0  0  0  0  0  0
    3.8920    0.5510   -2.0970 H   0  0  0  0  0  0  0  0  0  0  0  0
    3.9940    2.1740   -1.4300 H   0  0  0  0  0  0  0  0  0  0  0  0
  1  2  1  0
  1 25  1  0
  1 24  1  0
  1 23  1  0
  2 26  1  6
  2  6  1  0
  2  3  1  0
  3 27  1  0
  3  4  1  0
  3 28  1  0
  4  5  1  0
  5  6  2  0
  5 12  1  0
  6  7  1  0
  7  8  2  0
  7  9  1  0
  9 11  1  0
  9 10  2  0
 11 12  2  0
 11 16  1  0
 12 13  1  0
 13 29  1  0
 13 14  2  0
 14 15  1  0
 14 30  1  0
 15 16  2  0
 15 20  1  0
 16 17  1  0
 17 31  1  0
 17 18  1  0
 17 32  1  0
 18 33  1  0
 18 34  1  0
 18 19  1  0
 19 36  1  0
 19 20  1  0
 19 35  1  0
 20 22  1  6
 20 21  1  0
 21 37  1  0
 21 38  1  0
 21 39  1  0
 22 41  1  0
 22 42  1  0
 22 40  1  0
M  END
>  <id>  (718) 
822

>  <scaffolds>  (718) 
['c1ccccc1', 'O=C1C(=O)c2ccccc2C2=C1CCO2', 'O=C1C(=O)c2c(ccc3c2CCCC3)C2=C1[CH]CO2', 'c1ccc2c(c1)CCCC2']

>  <name>  (718) 
Cryptotanshinone	

>  <formula>  (718) 
C19H20O3	

>  <SMILES>  (718) 
C[C@H]1COC2=C1C(=O)C(=O)C3=C2C=CC4=C3CCCC4(C)C

>  <ChEMBL_id>  (718) 
SCHEMBL5940386	

>  <ZINC_id>  (718) 
ZINC2109876	

>  <PubChem_id>  (718) 
160254	

>  <DrugBank_id>  (718) 


>  <CAS_no>  (718) 
35825-57-1

>  <references>  (718) 
[{'journal': {'name': 'Journal of Ethnopharmacology', 'id': 7}, 'title': 'Cytotoxicity of South-African medicinal plants towards sensitive and multidrug-resistant cancer cells', 'year': 2016, 'start_page': None, 'volume': None, 'issue': None, 'doi': 'https://doi.org/10.1016/j.jep.2016.04.005', 'isbn': '', 'despositor': {'code': 'BND', 'first_name': "Bakary N'tji", 'last_name': 'Diallo', 'id': 26}, 'refauthors_set': [{'author': {'first_name': 'Mohamed', 'initials': 'M.E.M.S', 'last_name': ' Saeed', 'id': 1096}, 'first_author': True, 'id': 1679}], 'id': 459}]

>  <classifications>  (718) 
[{'classification': 'Diterpenoid', 'id': 772}, {'classification': 'Phenol lipids (Classyfire)', 'id': 951}]

>  <molecular_mass>  (718) 
296.14

$$$$
SANC00823_minRM1.pdb
     RDKit          3D

 82 86  0  0  1  0  0  0  0  0999 V2000
   -5.7260    2.5710    0.4780 C   0  0  0  0  0  0  0  0  0  0  0  0
   -4.9720    1.2560    0.2900 C   0  0  2  0  0  0  0  0  0  0  0  0
   -4.9560    0.5050    1.6190 C   0  0  0  0  0  0  0  0  0  0  0  0
   -3.8670   -0.5570    1.6830 C   0  0  0  0  0  0  0  0  0  0  0  0
   -3.4190   -1.0300    0.2970 C   0  0  2  0  0  0  0  0  0  0  0  0
   -2.5430   -2.2920    0.4430 C   0  0  0  0  0  0  0  0  0  0  0  0
   -1.2030   -2.1670   -0.2560 C   0  0  0  0  0  0  0  0  0  0  0  0
   -0.4720   -0.8980    0.1890 C   0  0  2  0  0  0  0  0  0  0  0  0
   -1.2680    0.2820   -0.2920 C   0  0  0  0  0  0  0  0  0  0  0  0
   -0.6420    1.3900   -0.7020 C   0  0  0  0  0  0  0  0  0  0  0  0
    0.8310    1.6000   -0.7090 C   0  0  0  0  0  0  0  0  0  0  0  0
    1.6050    0.4760   -0.0320 C   0  0  1  0  0  0  0  0  0  0  0  0
    0.9660   -0.8670   -0.4390 C   0  0  1  0  0  0  0  0  0  0  0  0
    1.8090   -2.0280    0.1000 C   0  0  0  0  0  0  0  0  0  0  0  0
    3.2840   -1.8660   -0.2550 C   0  0  0  0  0  0  0  0  0  0  0  0
    3.8200   -0.5930    0.3960 C   0  0  2  0  0  0  0  0  0  0  0  0
    3.1380    0.6290   -0.2410 C   0  0  2  0  0  0  0  0  0  0  0  0
    3.5950    1.9190    0.4850 C   0  0  0  0  0  0  0  0  0  0  0  0
    4.7600    1.7050    1.4420 C   0  0  0  0  0  0  0  0  0  0  0  0
    5.8700    0.8840    0.7770 C   0  0  1  0  0  0  0  0  0  0  0  0
    5.3650   -0.5440    0.4180 C   0  0  2  0  0  0  0  0  0  0  0  0
    6.0130   -1.0400   -0.8720 C   0  0  0  0  0  0  0  0  0  0  0  0
    5.8420   -1.4800    1.5450 C   0  0  0  0  0  0  0  0  0  0  0  0
    6.3170    1.5060   -0.3940 O   0  0  0  0  0  0  0  0  0  0  0  0
    3.4900    0.7600   -1.7190 C   0  0  0  0  0  0  0  0  0  0  0  0
    0.8320   -1.0220   -1.9550 C   0  0  0  0  0  0  0  0  0  0  0  0
   -2.7610    0.1380   -0.4720 C   0  0  2  0  0  0  0  0  0  0  0  0
   -3.5290    1.4850   -0.2180 C   0  0  1  0  0  0  0  0  0  0  0  0
   -3.5990    2.2900   -1.5280 C   0  0  0  0  0  0  0  0  0  0  0  0
   -2.8680    2.3180    0.6870 O   0  0  0  0  0  0  0  0  0  0  0  0
   -0.4000   -0.8490    1.7190 C   0  0  0  0  0  0  0  0  0  0  0  0
   -4.6310   -1.5430   -0.4850 C   0  0  0  0  0  0  0  0  0  0  0  0
   -4.8030   -1.4580   -1.6880 O   0  0  0  0  0  0  0  0  0  0  0  0
   -5.5960   -2.2450    0.1620 O   0  0  0  0  0  0  0  0  0  0  0  0
   -6.0050    3.0350   -0.4780 H   0  0  0  0  0  0  0  0  0  0  0  0
   -5.1530    3.3200    1.0410 H   0  0  0  0  0  0  0  0  0  0  0  0
   -6.6710    2.4210    1.0230 H   0  0  0  0  0  0  0  0  0  0  0  0
   -5.5370    0.6680   -0.4760 H   0  0  0  0  0  0  0  0  0  0  0  0
   -4.8330    1.2110    2.4700 H   0  0  0  0  0  0  0  0  0  0  0  0
   -5.9570    0.0550    1.7980 H   0  0  0  0  0  0  0  0  0  0  0  0
   -4.2240   -1.4130    2.3010 H   0  0  0  0  0  0  0  0  0  0  0  0
   -2.9770   -0.1920    2.2440 H   0  0  0  0  0  0  0  0  0  0  0  0
   -2.3960   -2.5630    1.5110 H   0  0  0  0  0  0  0  0  0  0  0  0
   -3.0610   -3.1970    0.0490 H   0  0  0  0  0  0  0  0  0  0  0  0
   -1.3700   -2.1770   -1.3540 H   0  0  0  0  0  0  0  0  0  0  0  0
   -0.5920   -3.0730   -0.0570 H   0  0  0  0  0  0  0  0  0  0  0  0
   -1.1830    2.2500   -1.1200 H   0  0  0  0  0  0  0  0  0  0  0  0
    1.1650    1.7400   -1.7650 H   0  0  0  0  0  0  0  0  0  0  0  0
    1.0510    2.5800   -0.2300 H   0  0  0  0  0  0  0  0  0  0  0  0
    1.4520    0.5820    1.0800 H   0  0  0  0  0  0  0  0  0  0  0  0
    1.7110   -2.1320    1.2010 H   0  0  0  0  0  0  0  0  0  0  0  0
    1.4350   -3.0020   -0.2850 H   0  0  0  0  0  0  0  0  0  0  0  0
    3.4340   -1.8660   -1.3550 H   0  0  0  0  0  0  0  0  0  0  0  0
    3.8420   -2.7610    0.0950 H   0  0  0  0  0  0  0  0  0  0  0  0
    3.4930   -0.6180    1.4730 H   0  0  0  0  0  0  0  0  0  0  0  0
    2.7700    2.3920    1.0620 H   0  0  0  0  0  0  0  0  0  0  0  0
    3.8670    2.7060   -0.2510 H   0  0  0  0  0  0  0  0  0  0  0  0
    5.1520    2.6850    1.7930 H   0  0  0  0  0  0  0  0  0  0  0  0
    4.4330    1.2110    2.3810 H   0  0  0  0  0  0  0  0  0  0  0  0
    6.7440    0.8110    1.4860 H   0  0  0  0  0  0  0  0  0  0  0  0
    5.8480   -2.1120   -1.0500 H   0  0  0  0  0  0  0  0  0  0  0  0
    5.6530   -0.5070   -1.7650 H   0  0  0  0  0  0  0  0  0  0  0  0
    7.1060   -0.9040   -0.8560 H   0  0  0  0  0  0  0  0  0  0  0  0
    6.9380   -1.5830    1.5660 H   0  0  0  0  0  0  0  0  0  0  0  0
    5.4460   -2.5000    1.4390 H   0  0  0  0  0  0  0  0  0  0  0  0
    5.5430   -1.1330    2.5450 H   0  0  0  0  0  0  0  0  0  0  0  0
    6.5080    2.4240   -0.1830 H   0  0  0  0  0  0  0  0  0  0  0  0
    2.9460    1.5860   -2.2060 H   0  0  0  0  0  0  0  0  0  0  0  0
    3.2480   -0.1480   -2.2970 H   0  0  0  0  0  0  0  0  0  0  0  0
    4.5610    0.9370   -1.8960 H   0  0  0  0  0  0  0  0  0  0  0  0
    0.0220   -0.4210   -2.3930 H   0  0  0  0  0  0  0  0  0  0  0  0
    1.7370   -0.7360   -2.5080 H   0  0  0  0  0  0  0  0  0  0  0  0
    0.6360   -2.0620   -2.2620 H   0  0  0  0  0  0  0  0  0  0  0  0
   -2.8510   -0.1000   -1.5690 H   0  0  0  0  0  0  0  0  0  0  0  0
   -3.9080    3.3330   -1.3650 H   0  0  0  0  0  0  0  0  0  0  0  0
   -4.3040    1.8450   -2.2430 H   0  0  0  0  0  0  0  0  0  0  0  0
   -2.6230    2.3530   -2.0360 H   0  0  0  0  0  0  0  0  0  0  0  0
   -2.5570    1.7880    1.4250 H   0  0  0  0  0  0  0  0  0  0  0  0
   -0.1760   -1.8270    2.1700 H   0  0  0  0  0  0  0  0  0  0  0  0
   -1.3390   -0.4990    2.1780 H   0  0  0  0  0  0  0  0  0  0  0  0
    0.3680   -0.1520    2.0940 H   0  0  0  0  0  0  0  0  0  0  0  0
   -5.3890   -2.3300    1.1000 H   0  0  0  0  0  0  0  0  0  0  0  0
  1 35  1  0
  1  2  1  0
  1 37  1  0
  1 36  1  0
  2 38  1  6
  2 28  1  0
  2  3  1  0
  3  4  1  0
  3 40  1  0
  3 39  1  0
  4  5  1  0
  4 42  1  0
  4 41  1  0
  5 32  1  6
  5 27  1  0
  5  6  1  0
  6  7  1  0
  6 44  1  0
  6 43  1  0
  7 45  1  0
  7 46  1  0
  7  8  1  0
  8 13  1  0
  8  9  1  0
  8 31  1  1
  9 10  2  0
  9 27  1  0
 10 47  1  0
 10 11  1  0
 11 48  1  0
 11 49  1  0
 11 12  1  0
 12 13  1  0
 12 17  1  0
 12 50  1  1
 13 26  1  6
 13 14  1  0
 14 52  1  0
 14 15  1  0
 14 51  1  0
 15 53  1  0
 15 54  1  0
 15 16  1  0
 16 17  1  0
 16 21  1  0
 16 55  1  1
 17 25  1  6
 17 18  1  0
 18 57  1  0
 18 56  1  0
 18 19  1  0
 19 20  1  0
 19 58  1  0
 19 59  1  0
 20 24  1  0
 20 21  1  0
 20 60  1  1
 21 22  1  6
 21 23  1  0
 22 62  1  0
 22 61  1  0
 22 63  1  0
 23 65  1  0
 23 64  1  0
 23 66  1  0
 24 67  1  0
 25 69  1  0
 25 68  1  0
 25 70  1  0
 26 72  1  0
 26 71  1  0
 26 73  1  0
 27 74  1  6
 27 28  1  0
 28 29  1  0
 28 30  1  1
 29 76  1  0
 29 77  1  0
 29 75  1  0
 30 78  1  0
 31 81  1  0
 31 79  1  0
 31 80  1  0
 32 33  2  0
 32 34  1  0
 34 82  1  0
M  END
>  <id>  (719) 
823

>  <scaffolds>  (719) 
['C1=C2C3CCCCC3CCC2C2CCC3CCCCC3C2C1', 'C1=CCCCC1', 'C1=CCC2CCCCC2C1', 'C1CCCCC1', 'C=C1CCCC2CCCCC12', 'C1=C2CCCCC2CCC1', 'C1=C2C3CCCCC3CCC2C2CCCCC2C1', 'C1CCC2CCCCC2C1']

>  <name>  (719) 
Pomolic acid

>  <formula>  (719) 
C30H48O4	

>  <SMILES>  (719) 
C[C@@H]1CC[C@@]2(CC[C@@]3(C(=CC[C@H]4[C@]3(CC[C@@H]5[C@@]4(CC[C@@H](C5(C)C)O)C)C)[C@@H]2[C@]1(C)O)C)C(=O)O

>  <ChEMBL_id>  (719) 
SCHEMBL1049001

>  <ZINC_id>  (719) 
ZINC6003698	

>  <PubChem_id>  (719) 
382831

>  <DrugBank_id>  (719) 


>  <CAS_no>  (719) 
13849-91-7

>  <references>  (719) 
[{'journal': {'name': 'Journal of Ethnopharmacology', 'id': 7}, 'title': 'Cytotoxicity of South-African medicinal plants towards sensitive and multidrug-resistant cancer cells', 'year': 2016, 'start_page': None, 'volume': None, 'issue': None, 'doi': 'https://doi.org/10.1016/j.jep.2016.04.005', 'isbn': '', 'despositor': {'code': 'BND', 'first_name': "Bakary N'tji", 'last_name': 'Diallo', 'id': 26}, 'refauthors_set': [{'author': {'first_name': 'Mohamed', 'initials': 'M.E.M.S', 'last_name': ' Saeed', 'id': 1096}, 'first_author': True, 'id': 1679}], 'id': 459}, {'journal': {'name': 'Chinese Journal of Applied and Environmental Biology', 'id': 55}, 'title': 'Studies on the triterpenoids from Rosa soulieana fruit', 'year': 2014, 'start_page': None, 'volume': None, 'issue': None, 'doi': '10.3724/SP.J.1145.2014.02022', 'isbn': '', 'despositor': {'code': 'BND', 'first_name': "Bakary N'tji", 'last_name': 'Diallo', 'id': 26}, 'refauthors_set': [], 'id': 471}]

>  <classifications>  (719) 
[{'classification': 'Triterpene', 'id': 842}, {'classification': 'Phenol lipids (Classyfire)', 'id': 951}]

>  <molecular_mass>  (719) 
472.35

$$$$
SANC00824_minRM1.pdb
     RDKit          3D

 30 32  0  0  0  0  0  0  0  0999 V2000
   -3.0150    0.9550    0.6890 C   0  0  0  0  0  0  0  0  0  0  0  0
   -4.3800    0.7090    0.7170 C   0  0  0  0  0  0  0  0  0  0  0  0
   -4.8810   -0.3880    0.0120 C   0  0  0  0  0  0  0  0  0  0  0  0
   -4.0400   -1.2410   -0.7130 C   0  0  0  0  0  0  0  0  0  0  0  0
   -2.6810   -0.9820   -0.7280 C   0  0  0  0  0  0  0  0  0  0  0  0
   -2.1690    0.1160   -0.0330 C   0  0  0  0  0  0  0  0  0  0  0  0
   -0.7400    0.4150   -0.0610 C   0  0  0  0  0  0  0  0  0  0  0  0
   -0.2160    1.6460   -0.2150 C   0  0  0  0  0  0  0  0  0  0  0  0
    1.2250    1.8290   -0.2130 C   0  0  0  0  0  0  0  0  0  0  0  0
    1.7880    2.9190   -0.3370 O   0  0  0  0  0  0  0  0  0  0  0  0
    1.9970    0.6140   -0.0540 C   0  0  0  0  0  0  0  0  0  0  0  0
    3.4070    0.6450   -0.0430 C   0  0  0  0  0  0  0  0  0  0  0  0
    4.1500   -0.5280    0.1080 C   0  0  0  0  0  0  0  0  0  0  0  0
    3.4530   -1.7300    0.2490 C   0  0  0  0  0  0  0  0  0  0  0  0
    2.0520   -1.8090    0.2450 C   0  0  0  0  0  0  0  0  0  0  0  0
    1.3580   -0.6160    0.0920 C   0  0  0  0  0  0  0  0  0  0  0  0
   -0.0030   -0.7250    0.0950 O   0  0  0  0  0  0  0  0  0  0  0  0
    4.2290   -2.8240    0.3910 O   0  0  0  0  0  0  0  0  0  0  0  0
    4.0930    1.7830   -0.1770 O   0  0  0  0  0  0  0  0  0  0  0  0
   -6.1950   -0.7070   -0.0230 O   0  0  0  0  0  0  0  0  0  0  0  0
   -2.6090    1.8060    1.2460 H   0  0  0  0  0  0  0  0  0  0  0  0
   -5.0400    1.3690    1.2850 H   0  0  0  0  0  0  0  0  0  0  0  0
   -4.4560   -2.0950   -1.2560 H   0  0  0  0  0  0  0  0  0  0  0  0
   -2.0100   -1.6390   -1.2910 H   0  0  0  0  0  0  0  0  0  0  0  0
   -0.8470    2.5260   -0.3580 H   0  0  0  0  0  0  0  0  0  0  0  0
    5.2430   -0.5030    0.1150 H   0  0  0  0  0  0  0  0  0  0  0  0
    1.5210   -2.7560    0.3580 H   0  0  0  0  0  0  0  0  0  0  0  0
    3.6710   -3.6060    0.4840 H   0  0  0  0  0  0  0  0  0  0  0  0
    3.4760    2.5530   -0.2750 H   0  0  0  0  0  0  0  0  0  0  0  0
   -6.6910   -0.0660    0.4990 H   0  0  0  0  0  0  0  0  0  0  0  0
  1  6  2  0
  1  2  1  0
  1 21  1  0
  2  3  2  0
  2 22  1  0
  3  4  1  0
  3 20  1  0
  4 23  1  0
  4  5  2  0
  5 24  1  0
  5  6  1  0
  6  7  1  0
  7  8  2  0
  7 17  1  0
  8 25  1  0
  8  9  1  0
  9 10  2  0
  9 11  1  0
 11 12  2  0
 11 16  1  0
 12 19  1  0
 12 13  1  0
 13 26  1  0
 13 14  2  0
 14 15  1  0
 14 18  1  0
 15 16  2  0
 15 27  1  0
 16 17  1  0
 18 28  1  0
 19 29  1  0
 20 30  1  0
M  END
>  <id>  (720) 
824

>  <scaffolds>  (720) 
['c1ccccc1', 'O=c1cc(-c2ccccc2)oc2ccccc12', 'O=c1ccoc2ccccc12']

>  <name>  (720) 
apigenin

>  <formula>  (720) 
C15H10O5

>  <SMILES>  (720) 
C1=CC(=CC=C1C2=CC(=O)C3=C(C=C(C=C3O2)O)O)O


>  <ChEMBL_id>  (720) 
SCHEMBL222227

>  <ZINC_id>  (720) 
ZINC3871576

>  <PubChem_id>  (720) 
5280443

>  <DrugBank_id>  (720) 
DB07352

>  <CAS_no>  (720) 
520-36-5

>  <references>  (720) 
[{'journal': {'name': 'Journal of Ethnopharmacology', 'id': 7}, 'title': 'Cytotoxicity of South-African medicinal plants towards sensitive and multidrug-resistant cancer cells', 'year': 2016, 'start_page': None, 'volume': None, 'issue': None, 'doi': 'https://doi.org/10.1016/j.jep.2016.04.005', 'isbn': '', 'despositor': {'code': 'BND', 'first_name': "Bakary N'tji", 'last_name': 'Diallo', 'id': 26}, 'refauthors_set': [{'author': {'first_name': 'Mohamed', 'initials': 'M.E.M.S', 'last_name': ' Saeed', 'id': 1096}, 'first_author': True, 'id': 1679}], 'id': 459}]

>  <classifications>  (720) 
[{'classification': 'Flavonoids', 'id': 776}, {'classification': 'Flavonoids (Classyfire)', 'id': 941}]

>  <molecular_mass>  (720) 
270.05

$$$$
SANC00825_minRM1.pdb
     RDKit          3D

 45 48  0  0  1  0  0  0  0  0999 V2000
   -2.5300    3.9360   -0.5090 C   0  0  0  0  0  0  0  0  0  0  0  0
   -2.7030    2.4700   -0.5780 N   0  0  0  0  0  0  0  0  0  0  0  0
   -3.7230    1.9870    0.3810 C   0  0  0  0  0  0  0  0  0  0  0  0
   -4.0950    0.5680   -0.0580 C   0  0  0  0  0  0  0  0  0  0  0  0
   -2.8850   -0.2990   -0.0230 C   0  0  0  0  0  0  0  0  0  0  0  0
   -3.0310   -1.6570    0.2480 C   0  0  0  0  0  0  0  0  0  0  0  0
   -1.8910   -2.4450    0.3390 C   0  0  0  0  0  0  0  0  0  0  0  0
   -0.6150   -1.8980    0.1290 C   0  0  0  0  0  0  0  0  0  0  0  0
   -0.4650   -0.5340   -0.1150 C   0  0  0  0  0  0  0  0  0  0  0  0
   -1.6260    0.2520   -0.2150 C   0  0  0  0  0  0  0  0  0  0  0  0
   -1.4290    1.7170   -0.4930 C   0  0  2  0  0  0  0  0  0  0  0  0
   -0.4070    2.1950    0.5620 C   0  0  0  0  0  0  0  0  0  0  0  0
    0.8730    1.4780    0.2860 C   0  0  0  0  0  0  0  0  0  0  0  0
    2.0810    2.1480    0.4220 C   0  0  0  0  0  0  0  0  0  0  0  0
    3.2610    1.5050    0.0460 C   0  0  0  0  0  0  0  0  0  0  0  0
    3.2090    0.2150   -0.4950 C   0  0  0  0  0  0  0  0  0  0  0  0
    1.9980   -0.4620   -0.5980 C   0  0  0  0  0  0  0  0  0  0  0  0
    0.8270    0.1470   -0.1580 C   0  0  0  0  0  0  0  0  0  0  0  0
    4.3340   -0.3620   -1.0210 O   0  0  0  0  0  0  0  0  0  0  0  0
    5.1670   -0.9190   -0.0300 C   0  0  0  0  0  0  0  0  0  0  0  0
    4.4910    2.0580    0.1630 O   0  0  0  0  0  0  0  0  0  0  0  0
    0.4720   -2.7130    0.3160 O   0  0  0  0  0  0  0  0  0  0  0  0
    0.6460   -3.6390   -0.7380 C   0  0  0  0  0  0  0  0  0  0  0  0
   -2.0810   -3.7660    0.5970 O   0  0  0  0  0  0  0  0  0  0  0  0
   -3.4490    4.4190   -0.8870 H   0  0  0  0  0  0  0  0  0  0  0  0
   -1.7110    4.2690   -1.1700 H   0  0  0  0  0  0  0  0  0  0  0  0
   -2.3410    4.3630    0.4950 H   0  0  0  0  0  0  0  0  0  0  0  0
   -4.6190    2.6480    0.3470 H   0  0  0  0  0  0  0  0  0  0  0  0
   -3.3980    1.9990    1.4490 H   0  0  0  0  0  0  0  0  0  0  0  0
   -4.9040    0.1720    0.5920 H   0  0  0  0  0  0  0  0  0  0  0  0
   -4.5250    0.5650   -1.0830 H   0  0  0  0  0  0  0  0  0  0  0  0
   -4.0190   -2.1030    0.3990 H   0  0  0  0  0  0  0  0  0  0  0  0
   -0.9800    1.8330   -1.5210 H   0  0  0  0  0  0  0  0  0  0  0  0
   -0.2570    3.2930    0.5340 H   0  0  0  0  0  0  0  0  0  0  0  0
   -0.7590    1.9860    1.5940 H   0  0  0  0  0  0  0  0  0  0  0  0
    2.1060    3.1710    0.8070 H   0  0  0  0  0  0  0  0  0  0  0  0
    2.0020   -1.4530   -1.0570 H   0  0  0  0  0  0  0  0  0  0  0  0
    6.0040   -1.3530   -0.5970 H   0  0  0  0  0  0  0  0  0  0  0  0
    5.5650   -0.1770    0.6800 H   0  0  0  0  0  0  0  0  0  0  0  0
    4.6690   -1.7190    0.5450 H   0  0  0  0  0  0  0  0  0  0  0  0
    4.3900    2.9700    0.4610 H   0  0  0  0  0  0  0  0  0  0  0  0
   -0.0340   -4.5020   -0.6700 H   0  0  0  0  0  0  0  0  0  0  0  0
    1.6790   -3.9980   -0.6140 H   0  0  0  0  0  0  0  0  0  0  0  0
    0.5340   -3.2050   -1.7460 H   0  0  0  0  0  0  0  0  0  0  0  0
   -1.4200   -4.0300    1.2490 H   0  0  0  0  0  0  0  0  0  0  0  0
  1 26  1  0
  1 25  1  0
  1  2  1  0
  1 27  1  0
  2 11  1  0
  2  3  1  0
  3  4  1  0
  3 28  1  0
  3 29  1  0
  4 31  1  0
  4  5  1  0
  4 30  1  0
  5 10  2  0
  5  6  1  0
  6  7  2  0
  6 32  1  0
  7  8  1  0
  7 24  1  0
  8  9  2  0
  8 22  1  0
  9 10  1  0
  9 18  1  0
 10 11  1  0
 11 33  1  6
 11 12  1  0
 12 13  1  0
 12 34  1  0
 12 35  1  0
 13 18  2  0
 13 14  1  0
 14 15  2  0
 14 36  1  0
 15 16  1  0
 15 21  1  0
 16 19  1  0
 16 17  2  0
 17 37  1  0
 17 18  1  0
 19 20  1  0
 20 38  1  0
 20 40  1  0
 20 39  1  0
 21 41  1  0
 22 23  1  0
 23 44  1  0
 23 42  1  0
 23 43  1  0
 24 45  1  0
M  END
>  <id>  (721) 
825

>  <scaffolds>  (721) 
['c1ccccc1', 'c1ccc(CCc2ccccc2)cc1', 'c1ccc2c(c1)CC1NCCc3cccc-2c31', 'c1ccc(CC2NCCc3ccccc32)cc1']

>  <name>  (721) 
Boldine

>  <formula>  (721) 
C19H21NO4

>  <SMILES>  (721) 
CN1CCC2=CC(=C(C3=C2[C@@H]1CC4=CC(=C(C=C43)OC)O)OC)O					


>  <ChEMBL_id>  (721) 
SCHEMBL177550

>  <ZINC_id>  (721) 
ZINC135449

>  <PubChem_id>  (721) 
10154

>  <DrugBank_id>  (721) 


>  <CAS_no>  (721) 
476-70-0	

>  <references>  (721) 
[{'journal': {'name': 'Journal of Ethnopharmacology', 'id': 7}, 'title': 'Cytotoxicity of South-African medicinal plants towards sensitive and multidrug-resistant cancer cells', 'year': 2016, 'start_page': None, 'volume': None, 'issue': None, 'doi': 'https://doi.org/10.1016/j.jep.2016.04.005', 'isbn': '', 'despositor': {'code': 'BND', 'first_name': "Bakary N'tji", 'last_name': 'Diallo', 'id': 26}, 'refauthors_set': [{'author': {'first_name': 'Mohamed', 'initials': 'M.E.M.S', 'last_name': ' Saeed', 'id': 1096}, 'first_author': True, 'id': 1679}], 'id': 459}]

>  <classifications>  (721) 
[{'classification': 'Bisbenzylisoquinoline', 'id': 748}, {'classification': 'Aporphines (Classyfire)', 'id': 976}]

>  <molecular_mass>  (721) 
327.14

$$$$
SANC00830_minRM1.pdb
     RDKit          3D

 38 39  0  0  0  0  0  0  0  0999 V2000
    3.0090   -2.2670   -0.7610 C   0  0  0  0  0  0  0  0  0  0  0  0
    1.8680   -1.4010   -0.3730 C   0  0  0  0  0  0  0  0  0  0  0  0
    1.9230   -0.0640   -0.4350 C   0  0  0  0  0  0  0  0  0  0  0  0
    0.7980    0.7740    0.0420 C   0  0  0  0  0  0  0  0  0  0  0  0
    0.9760    1.9250    0.3990 O   0  0  0  0  0  0  0  0  0  0  0  0
   -0.5300    0.1300    0.1020 C   0  0  0  0  0  0  0  0  0  0  0  0
   -0.5870   -1.2660    0.1850 C   0  0  0  0  0  0  0  0  0  0  0  0
    0.6280   -2.0680    0.0780 C   0  0  0  0  0  0  0  0  0  0  0  0
    0.5750   -3.2750    0.3130 O   0  0  0  0  0  0  0  0  0  0  0  0
   -1.8230   -1.8980    0.3600 C   0  0  0  0  0  0  0  0  0  0  0  0
   -3.0240   -1.1580    0.3500 C   0  0  0  0  0  0  0  0  0  0  0  0
   -2.9480    0.2140    0.2030 C   0  0  0  0  0  0  0  0  0  0  0  0
   -1.6960    0.8690    0.1080 C   0  0  0  0  0  0  0  0  0  0  0  0
   -1.6490    2.2240   -0.0690 O   0  0  0  0  0  0  0  0  0  0  0  0
   -1.7620    2.9270    1.1510 C   0  0  0  0  0  0  0  0  0  0  0  0
   -4.1270    0.8960    0.2520 O   0  0  0  0  0  0  0  0  0  0  0  0
   -4.3480    1.7770   -0.8310 C   0  0  0  0  0  0  0  0  0  0  0  0
   -1.9670   -3.2190    0.5200 O   0  0  0  0  0  0  0  0  0  0  0  0
    3.1050    0.6970   -0.9260 C   0  0  0  0  0  0  0  0  0  0  0  0
    3.9410    1.1370    0.2590 C   0  0  0  0  0  0  0  0  0  0  0  0
    4.3410    0.3320    1.0780 O   0  0  0  0  0  0  0  0  0  0  0  0
    4.2500    2.5980    0.3490 C   0  0  0  0  0  0  0  0  0  0  0  0
    3.9470   -1.9450   -0.2800 H   0  0  0  0  0  0  0  0  0  0  0  0
    2.8810   -3.3250   -0.4850 H   0  0  0  0  0  0  0  0  0  0  0  0
    3.1700   -2.2500   -1.8510 H   0  0  0  0  0  0  0  0  0  0  0  0
   -3.9880   -1.6660    0.4620 H   0  0  0  0  0  0  0  0  0  0  0  0
   -2.7480    2.7950    1.6260 H   0  0  0  0  0  0  0  0  0  0  0  0
   -0.9830    2.6620    1.8840 H   0  0  0  0  0  0  0  0  0  0  0  0
   -1.6340    3.9800    0.8600 H   0  0  0  0  0  0  0  0  0  0  0  0
   -3.8340    1.5040   -1.7660 H   0  0  0  0  0  0  0  0  0  0  0  0
   -4.0660    2.8070   -0.5620 H   0  0  0  0  0  0  0  0  0  0  0  0
   -5.4360    1.7410   -0.9980 H   0  0  0  0  0  0  0  0  0  0  0  0
   -1.0880   -3.6680    0.5330 H   0  0  0  0  0  0  0  0  0  0  0  0
    3.7370    0.1090   -1.6250 H   0  0  0  0  0  0  0  0  0  0  0  0
    2.7750    1.5660   -1.5360 H   0  0  0  0  0  0  0  0  0  0  0  0
    4.7330    2.9660   -0.5670 H   0  0  0  0  0  0  0  0  0  0  0  0
    3.3270    3.1820    0.4890 H   0  0  0  0  0  0  0  0  0  0  0  0
    4.9160    2.8420    1.1900 H   0  0  0  0  0  0  0  0  0  0  0  0
  1 25  1  0
  1 24  1  0
  1  2  1  0
  1 23  1  0
  2  3  2  0
  2  8  1  0
  3 19  1  0
  3  4  1  0
  4  6  1  0
  4  5  2  0
  6 13  2  0
  6  7  1  0
  7  8  1  0
  7 10  2  0
  8  9  2  0
 10 11  1  0
 10 18  1  0
 11 12  2  0
 11 26  1  0
 12 13  1  0
 12 16  1  0
 13 14  1  0
 14 15  1  0
 15 29  1  0
 15 27  1  0
 15 28  1  0
 16 17  1  0
 17 30  1  0
 17 32  1  0
 17 31  1  0
 18 33  1  0
 19 34  1  0
 19 35  1  0
 19 20  1  0
 20 22  1  0
 20 21  2  0
 22 36  1  0
 22 37  1  0
 22 38  1  0
M  END
>  <id>  (722) 
830

>  <scaffolds>  (722) 
['c1ccccc1', 'O=C1C=CC(=O)c2ccccc21']

>  <name>  (722) 
8-hydroxy-5,6-dimethoxy-2-methyl-3-(2-oxo-propyl)-1,4-naphthoquinone

>  <formula>  (722) 
C16H16O6

>  <SMILES>  (722) 
CC1=C(C(=O)C2=C(C1=O)C(=CC(=C2OC)OC)O)CC(=O)C

>  <ChEMBL_id>  (722) 


>  <ZINC_id>  (722) 


>  <PubChem_id>  (722) 
13846918

>  <DrugBank_id>  (722) 


>  <CAS_no>  (722) 
107948-89-0

>  <references>  (722) 
[{'journal': {'name': 'Natural Product Research', 'id': 18}, 'title': 'Bioactive compounds from the endophytic fungus Fusarium proliferatum', 'year': 2015, 'start_page': None, 'volume': None, 'issue': None, 'doi': 'https://doi.org/10.1080/14786419.2015.1053089', 'isbn': '', 'despositor': {'code': 'BND', 'first_name': "Bakary N'tji", 'last_name': 'Diallo', 'id': 26}, 'refauthors_set': [{'author': {'first_name': 'Zerihun T. ', 'initials': 'ZTD', 'last_name': 'Dame', 'id': 971}, 'first_author': True, 'id': 1557}], 'id': 447}]

>  <classifications>  (722) 
[{'classification': 'Naphthoquinone', 'id': 798}, {'classification': 'Naphthalenes (Classyfire)', 'id': 983}]

>  <molecular_mass>  (722) 
304.09

$$$$
SANC00831_minRM1.pdb
     RDKit          3D

 32 34  0  0  0  0  0  0  0  0999 V2000
    5.5310    1.3000    0.0200 C   0  0  0  0  0  0  0  0  0  0  0  0
    4.2360    0.5620   -0.0160 C   0  0  0  0  0  0  0  0  0  0  0  0
    3.0280    1.2800    0.0420 C   0  0  0  0  0  0  0  0  0  0  0  0
    1.8370    0.5710    0.0060 C   0  0  0  0  0  0  0  0  0  0  0  0
    1.8680   -0.8200   -0.0860 C   0  0  0  0  0  0  0  0  0  0  0  0
    3.1160   -1.4560   -0.1400 C   0  0  0  0  0  0  0  0  0  0  0  0
    4.2900   -0.7900   -0.1060 N   0  0  0  0  0  0  0  0  0  0  0  0
    0.6310   -1.6040   -0.1270 C   0  0  0  0  0  0  0  0  0  0  0  0
    0.6500   -2.8360   -0.2090 O   0  0  0  0  0  0  0  0  0  0  0  0
   -0.6410   -0.9050   -0.0690 C   0  0  0  0  0  0  0  0  0  0  0  0
   -0.6890    0.5020    0.0260 C   0  0  0  0  0  0  0  0  0  0  0  0
    0.5450    1.2830    0.0650 C   0  0  0  0  0  0  0  0  0  0  0  0
    0.4920    2.5100    0.1470 O   0  0  0  0  0  0  0  0  0  0  0  0
   -1.9060    1.1510    0.0800 C   0  0  0  0  0  0  0  0  0  0  0  0
   -3.1240    0.3860    0.0410 C   0  0  0  0  0  0  0  0  0  0  0  0
   -3.0920   -0.9810   -0.0510 C   0  0  0  0  0  0  0  0  0  0  0  0
   -1.8270   -1.6270   -0.1050 C   0  0  0  0  0  0  0  0  0  0  0  0
   -1.8870   -2.9620   -0.1940 O   0  0  0  0  0  0  0  0  0  0  0  0
   -4.2310    1.1630    0.1030 O   0  0  0  0  0  0  0  0  0  0  0  0
   -5.4780    0.5090    0.0690 C   0  0  0  0  0  0  0  0  0  0  0  0
   -2.0780    2.4780    0.1700 O   0  0  0  0  0  0  0  0  0  0  0  0
    6.4130    0.6430   -0.0300 H   0  0  0  0  0  0  0  0  0  0  0  0
    5.6080    2.0030   -0.8240 H   0  0  0  0  0  0  0  0  0  0  0  0
    5.6230    1.8890    0.9450 H   0  0  0  0  0  0  0  0  0  0  0  0
    3.0370    2.3730    0.1150 H   0  0  0  0  0  0  0  0  0  0  0  0
    3.2030   -2.5520   -0.2130 H   0  0  0  0  0  0  0  0  0  0  0  0
   -3.9910   -1.6030   -0.0840 H   0  0  0  0  0  0  0  0  0  0  0  0
   -0.9800   -3.3520   -0.2290 H   0  0  0  0  0  0  0  0  0  0  0  0
   -5.6530   -0.0450   -0.8680 H   0  0  0  0  0  0  0  0  0  0  0  0
   -6.1970    1.3400    0.1310 H   0  0  0  0  0  0  0  0  0  0  0  0
   -5.6380   -0.1650    0.9260 H   0  0  0  0  0  0  0  0  0  0  0  0
   -1.2050    2.9300    0.1900 H   0  0  0  0  0  0  0  0  0  0  0  0
  1 23  1  0
  1 22  1  0
  1  2  1  0
  1 24  1  0
  2  7  2  0
  2  3  1  0
  3  4  2  0
  3 25  1  0
  4  5  1  0
  4 12  1  0
  5  6  2  0
  5  8  1  0
  6 26  1  0
  6  7  1  0
  8  9  2  0
  8 10  1  0
 10 17  2  0
 10 11  1  0
 11 12  1  0
 11 14  2  0
 12 13  2  0
 14 15  1  0
 14 21  1  0
 15 16  2  0
 15 19  1  0
 16 17  1  0
 16 27  1  0
 17 18  1  0
 18 28  1  0
 19 20  1  0
 20 29  1  0
 20 30  1  0
 20 31  1  0
 21 32  1  0
M  END
>  <id>  (723) 
831

>  <scaffolds>  (723) 
['c1ccccc1']

>  <name>  (723) 
Bostrycoidin

>  <formula>  (723) 
C15H11NO5

>  <SMILES>  (723) 
CC1=CC2=C(C=N1)C(=O)C3=C(C2=O)C(=C(C=C3O)OC)O

>  <ChEMBL_id>  (723) 
CHEMBL1999208

>  <ZINC_id>  (723) 
ZINC1680483

>  <PubChem_id>  (723) 
72631

>  <DrugBank_id>  (723) 


>  <CAS_no>  (723) 
4589-33-7

>  <references>  (723) 
[{'journal': {'name': 'Natural Product Research', 'id': 18}, 'title': 'Bioactive compounds from the endophytic fungus Fusarium proliferatum', 'year': 2015, 'start_page': None, 'volume': None, 'issue': None, 'doi': 'https://doi.org/10.1080/14786419.2015.1053089', 'isbn': '', 'despositor': {'code': 'BND', 'first_name': "Bakary N'tji", 'last_name': 'Diallo', 'id': 26}, 'refauthors_set': [{'author': {'first_name': 'Zerihun T. ', 'initials': 'ZTD', 'last_name': 'Dame', 'id': 971}, 'first_author': True, 'id': 1557}], 'id': 447}]

>  <classifications>  (723) 
[{'classification': 'Isoquinoline', 'id': 790}, {'classification': 'Isoquinolines and derivatives (Classyfire)', 'id': 979}]

>  <molecular_mass>  (723) 
285.06

$$$$
SANC00832_minRM1.pdb
     RDKit          3D

 73 76  0  0  1  0  0  0  0  0999 V2000
    3.4170    2.5150   -1.6380 C   0  0  0  0  0  0  0  0  0  0  0  0
    3.2780    1.8020   -0.2970 C   0  0  2  0  0  0  0  0  0  0  0  0
    3.6450    0.3580   -0.4360 C   0  0  0  0  0  0  0  0  0  0  0  0
    4.1980   -0.3230    0.5660 C   0  0  0  0  0  0  0  0  0  0  0  0
    4.5670   -1.7710    0.4620 C   0  0  2  0  0  0  0  0  0  0  0  0
    3.7840   -2.5400    1.5230 C   0  0  0  0  0  0  0  0  0  0  0  0
    6.0860   -1.9200    0.6640 C   0  0  2  0  0  0  0  0  0  0  0  0
    6.8280   -1.1650   -0.4340 C   0  0  0  0  0  0  0  0  0  0  0  0
    6.4990   -3.3870    0.6380 C   0  0  0  0  0  0  0  0  0  0  0  0
    1.9230    1.9300    0.4090 C   0  0  1  0  0  0  0  0  0  0  0  0
    1.4380    3.3930    0.4870 C   0  0  0  0  0  0  0  0  0  0  0  0
   -0.1000    3.3590    0.4790 C   0  0  0  0  0  0  0  0  0  0  0  0
   -0.4350    1.8790    0.6480 C   0  0  2  0  0  0  0  0  0  0  0  0
    0.6930    1.1720   -0.1300 C   0  0  2  0  0  0  0  0  0  0  0  0
    0.6150   -0.3060    0.2360 C   0  0  0  0  0  0  0  0  0  0  0  0
   -0.7260   -0.8840   -0.2080 C   0  0  0  0  0  0  0  0  0  0  0  0
   -1.9500   -0.0990    0.2820 C   0  0  1  0  0  0  0  0  0  0  0  0
   -1.7830    1.3920    0.2690 C   0  0  0  0  0  0  0  0  0  0  0  0
   -2.8420    2.2040    0.1620 C   0  0  0  0  0  0  0  0  0  0  0  0
   -4.1820    1.6560    0.0840 C   0  0  0  0  0  0  0  0  0  0  0  0
   -4.3700    0.3550   -0.1580 C   0  0  0  0  0  0  0  0  0  0  0  0
   -3.2080   -0.5270   -0.5120 C   0  0  2  0  0  0  0  0  0  0  0  0
   -3.5520   -1.9940   -0.2100 C   0  0  0  0  0  0  0  0  0  0  0  0
   -4.4030   -2.0950    1.0480 C   0  0  0  0  0  0  0  0  0  0  0  0
   -5.7740   -1.4250    0.8390 C   0  0  1  0  0  0  0  0  0  0  0  0
   -5.7120   -0.2820   -0.1930 C   0  0  0  0  0  0  0  0  0  0  0  0
   -6.7000   -2.3330    0.3110 O   0  0  0  0  0  0  0  0  0  0  0  0
   -2.9920   -0.3380   -2.0170 C   0  0  0  0  0  0  0  0  0  0  0  0
    0.5250    1.3630   -1.6290 C   0  0  0  0  0  0  0  0  0  0  0  0
    4.4770    2.6700   -1.8930 H   0  0  0  0  0  0  0  0  0  0  0  0
    2.9490    3.5130   -1.6260 H   0  0  0  0  0  0  0  0  0  0  0  0
    2.9930    1.9710   -2.4920 H   0  0  0  0  0  0  0  0  0  0  0  0
    4.0190    2.3030    0.3890 H   0  0  0  0  0  0  0  0  0  0  0  0
    3.4420   -0.1080   -1.4060 H   0  0  0  0  0  0  0  0  0  0  0  0
    4.4060    0.1440    1.5350 H   0  0  0  0  0  0  0  0  0  0  0  0
    4.2950   -2.1790   -0.5470 H   0  0  0  0  0  0  0  0  0  0  0  0
    2.7170   -2.2730    1.5120 H   0  0  0  0  0  0  0  0  0  0  0  0
    4.1470   -2.3410    2.5420 H   0  0  0  0  0  0  0  0  0  0  0  0
    3.8290   -3.6270    1.3720 H   0  0  0  0  0  0  0  0  0  0  0  0
    6.3700   -1.4850    1.6580 H   0  0  0  0  0  0  0  0  0  0  0  0
    6.5630   -0.0980   -0.4590 H   0  0  0  0  0  0  0  0  0  0  0  0
    7.9190   -1.2100   -0.3000 H   0  0  0  0  0  0  0  0  0  0  0  0
    6.6170   -1.5680   -1.4340 H   0  0  0  0  0  0  0  0  0  0  0  0
    6.1150   -3.9170   -0.2460 H   0  0  0  0  0  0  0  0  0  0  0  0
    7.5930   -3.5060    0.6230 H   0  0  0  0  0  0  0  0  0  0  0  0
    6.1490   -3.9410    1.5210 H   0  0  0  0  0  0  0  0  0  0  0  0
    2.1050    1.5570    1.4550 H   0  0  0  0  0  0  0  0  0  0  0  0
    1.8330    3.8940    1.3930 H   0  0  0  0  0  0  0  0  0  0  0  0
    1.8270    4.0070   -0.3520 H   0  0  0  0  0  0  0  0  0  0  0  0
   -0.5120    3.7770   -0.4600 H   0  0  0  0  0  0  0  0  0  0  0  0
   -0.5390    3.9870    1.2780 H   0  0  0  0  0  0  0  0  0  0  0  0
   -0.3510    1.6350    1.7450 H   0  0  0  0  0  0  0  0  0  0  0  0
    1.4430   -0.8820   -0.2280 H   0  0  0  0  0  0  0  0  0  0  0  0
    0.7620   -0.4570    1.3260 H   0  0  0  0  0  0  0  0  0  0  0  0
   -0.7340   -0.9930   -1.3160 H   0  0  0  0  0  0  0  0  0  0  0  0
   -0.8090   -1.9360    0.1490 H   0  0  0  0  0  0  0  0  0  0  0  0
   -2.1080   -0.3550    1.3660 H   0  0  0  0  0  0  0  0  0  0  0  0
   -2.7580    3.2930    0.1870 H   0  0  0  0  0  0  0  0  0  0  0  0
   -5.0130    2.3420    0.2700 H   0  0  0  0  0  0  0  0  0  0  0  0
   -4.0940   -2.4610   -1.0600 H   0  0  0  0  0  0  0  0  0  0  0  0
   -2.6320   -2.6080   -0.1100 H   0  0  0  0  0  0  0  0  0  0  0  0
   -3.8850   -1.6250    1.9100 H   0  0  0  0  0  0  0  0  0  0  0  0
   -4.5180   -3.1570    1.3510 H   0  0  0  0  0  0  0  0  0  0  0  0
   -6.1360   -1.0190    1.8250 H   0  0  0  0  0  0  0  0  0  0  0  0
   -5.9180   -0.6520   -1.2230 H   0  0  0  0  0  0  0  0  0  0  0  0
   -6.5310    0.4430   -0.0020 H   0  0  0  0  0  0  0  0  0  0  0  0
   -6.8630   -3.0090    0.9760 H   0  0  0  0  0  0  0  0  0  0  0  0
   -3.8710   -0.6320   -2.6080 H   0  0  0  0  0  0  0  0  0  0  0  0
   -2.1450   -0.9340   -2.3930 H   0  0  0  0  0  0  0  0  0  0  0  0
   -2.7860    0.7120   -2.2710 H   0  0  0  0  0  0  0  0  0  0  0  0
    1.1690    0.6820   -2.2030 H   0  0  0  0  0  0  0  0  0  0  0  0
    0.7480    2.3850   -1.9640 H   0  0  0  0  0  0  0  0  0  0  0  0
   -0.5040    1.1760   -1.9700 H   0  0  0  0  0  0  0  0  0  0  0  0
  1 32  1  0
  1 30  1  0
  1 31  1  0
  1  2  1  0
  2  3  1  0
  2 33  1  1
  2 10  1  0
  3 34  1  0
  3  4  2  0
  4  5  1  0
  4 35  1  0
  5 36  1  6
  5  7  1  0
  5  6  1  0
  6 39  1  0
  6 37  1  0
  6 38  1  0
  7  8  1  0
  7  9  1  0
  7 40  1  1
  8 43  1  0
  8 41  1  0
  8 42  1  0
  9 44  1  0
  9 45  1  0
  9 46  1  0
 10 14  1  0
 10 11  1  0
 10 47  1  1
 11 49  1  0
 11 12  1  0
 11 48  1  0
 12 50  1  0
 12 13  1  0
 12 51  1  0
 13 14  1  0
 13 18  1  0
 13 52  1  1
 14 29  1  6
 14 15  1  0
 15 53  1  0
 15 16  1  0
 15 54  1  0
 16 55  1  0
 16 56  1  0
 16 17  1  0
 17 22  1  0
 17 18  1  0
 17 57  1  1
 18 19  2  0
 19 20  1  0
 19 58  1  0
 20 21  2  0
 20 59  1  0
 21 22  1  0
 21 26  1  0
 22 28  1  6
 22 23  1  0
 23 60  1  0
 23 61  1  0
 23 24  1  0
 24 25  1  0
 24 63  1  0
 24 62  1  0
 25 26  1  0
 25 27  1  0
 25 64  1  1
 26 65  1  0
 26 66  1  0
 27 67  1  0
 28 68  1  0
 28 69  1  0
 28 70  1  0
 29 71  1  0
 29 73  1  0
 29 72  1  0
M  END
>  <id>  (724) 
832

>  <scaffolds>  (724) 
['C1CCCCC1', 'C1=C2CCCCC2C2CCC3CCCC3C2=C1']

>  <name>  (724) 
Ergosterol

>  <formula>  (724) 
C28H44O

>  <SMILES>  (724) 
C[C@H](/C=C/[C@H](C)C(C)C)[C@H]1CC[C@@H]2[C@@]1(CC[C@H]3C2=CC=C4[C@@]3(CC[C@@H](C4)O)C)C

>  <ChEMBL_id>  (724) 
CHEMBL1232562

>  <ZINC_id>  (724) 
ZINC4084618

>  <PubChem_id>  (724) 
444679

>  <DrugBank_id>  (724) 
DB04038

>  <CAS_no>  (724) 
57-87-4

>  <references>  (724) 
[{'journal': {'name': 'Natural Product Research', 'id': 18}, 'title': 'Bioactive compounds from the endophytic fungus Fusarium proliferatum', 'year': 2015, 'start_page': None, 'volume': None, 'issue': None, 'doi': 'https://doi.org/10.1080/14786419.2015.1053089', 'isbn': '', 'despositor': {'code': 'BND', 'first_name': "Bakary N'tji", 'last_name': 'Diallo', 'id': 26}, 'refauthors_set': [{'author': {'first_name': 'Zerihun T. ', 'initials': 'ZTD', 'last_name': 'Dame', 'id': 971}, 'first_author': True, 'id': 1557}], 'id': 447}]

>  <classifications>  (724) 
[{'classification': 'Steroids', 'id': 879}, {'classification': 'Steroids and steroid derivatives (Classyfire)', 'id': 942}]

>  <molecular_mass>  (724) 
396.34

$$$$
SANC00834_minRM1.pdb
     RDKit          3D

 50 49  0  0  0  0  0  0  0  0999 V2000
    8.7740   -0.0760    0.7590 C   0  0  0  0  0  0  0  0  0  0  0  0
    7.3460   -0.4490    0.3880 C   0  0  0  0  0  0  0  0  0  0  0  0
    6.6060    0.7170   -0.1660 C   0  0  0  0  0  0  0  0  0  0  0  0
    5.4890    0.6200   -0.8840 C   0  0  0  0  0  0  0  0  0  0  0  0
    4.8360   -0.6700   -1.2480 C   0  0  0  0  0  0  0  0  0  0  0  0
    4.4480   -1.4350   -0.0280 C   0  0  0  0  0  0  0  0  0  0  0  0
    3.3910   -1.1440    0.7250 C   0  0  0  0  0  0  0  0  0  0  0  0
    2.4480   -0.0220    0.4460 C   0  0  0  0  0  0  0  0  0  0  0  0
    1.4200   -0.4430   -0.5480 C   0  0  0  0  0  0  0  0  0  0  0  0
    0.3480    0.2820   -0.8620 C   0  0  0  0  0  0  0  0  0  0  0  0
    0.0140    1.6040   -0.2650 C   0  0  0  0  0  0  0  0  0  0  0  0
   -0.9130    1.4410    0.9380 C   0  0  0  0  0  0  0  0  0  0  0  0
   -2.1930    0.6730    0.6200 C   0  0  0  0  0  0  0  0  0  0  0  0
   -3.0430    1.3830   -0.4300 C   0  0  0  0  0  0  0  0  0  0  0  0
   -4.4100    0.7200   -0.5960 C   0  0  0  0  0  0  0  0  0  0  0  0
   -5.3320    1.0130    0.5840 C   0  0  0  0  0  0  0  0  0  0  0  0
   -6.7510    0.5150    0.3190 C   0  0  0  0  0  0  0  0  0  0  0  0
   -6.7320   -0.9850    0.1730 C   0  0  0  0  0  0  0  0  0  0  0  0
   -6.7450   -1.7760    1.0970 O   0  0  0  0  0  0  0  0  0  0  0  0
   -6.6970   -1.5450   -1.0610 O   0  0  0  0  0  0  0  0  0  0  0  0
    9.3380    0.3090   -0.1030 H   0  0  0  0  0  0  0  0  0  0  0  0
    8.8160    0.6990    1.5380 H   0  0  0  0  0  0  0  0  0  0  0  0
    9.3340   -0.9400    1.1440 H   0  0  0  0  0  0  0  0  0  0  0  0
    7.3560   -1.2970   -0.3300 H   0  0  0  0  0  0  0  0  0  0  0  0
    6.8070   -0.8350    1.2810 H   0  0  0  0  0  0  0  0  0  0  0  0
    7.0260    1.7050    0.0560 H   0  0  0  0  0  0  0  0  0  0  0  0
    4.9980    1.5240   -1.2610 H   0  0  0  0  0  0  0  0  0  0  0  0
    3.9450   -0.4980   -1.8930 H   0  0  0  0  0  0  0  0  0  0  0  0
    5.5150   -1.2700   -1.8950 H   0  0  0  0  0  0  0  0  0  0  0  0
    5.0880   -2.2870    0.2280 H   0  0  0  0  0  0  0  0  0  0  0  0
    3.1510   -1.7530    1.6040 H   0  0  0  0  0  0  0  0  0  0  0  0
    2.9900    0.8790    0.0810 H   0  0  0  0  0  0  0  0  0  0  0  0
    1.9690    0.3140    1.3920 H   0  0  0  0  0  0  0  0  0  0  0  0
    1.5910   -1.4090   -1.0380 H   0  0  0  0  0  0  0  0  0  0  0  0
   -0.3650   -0.0880   -1.6080 H   0  0  0  0  0  0  0  0  0  0  0  0
   -0.4450    2.2660   -1.0320 H   0  0  0  0  0  0  0  0  0  0  0  0
    0.9260    2.1640    0.0350 H   0  0  0  0  0  0  0  0  0  0  0  0
   -0.3710    0.9230    1.7590 H   0  0  0  0  0  0  0  0  0  0  0  0
   -1.1600    2.4400    1.3570 H   0  0  0  0  0  0  0  0  0  0  0  0
   -2.7700    0.5350    1.5600 H   0  0  0  0  0  0  0  0  0  0  0  0
   -1.9590   -0.3620    0.2920 H   0  0  0  0  0  0  0  0  0  0  0  0
   -3.1580    2.4590   -0.1810 H   0  0  0  0  0  0  0  0  0  0  0  0
   -2.5190    1.3790   -1.4100 H   0  0  0  0  0  0  0  0  0  0  0  0
   -4.8780    1.0750   -1.5400 H   0  0  0  0  0  0  0  0  0  0  0  0
   -4.2850   -0.3750   -0.7360 H   0  0  0  0  0  0  0  0  0  0  0  0
   -5.3620    2.1030    0.7950 H   0  0  0  0  0  0  0  0  0  0  0  0
   -4.9410    0.5560    1.5180 H   0  0  0  0  0  0  0  0  0  0  0  0
   -7.4210    0.7860    1.1630 H   0  0  0  0  0  0  0  0  0  0  0  0
   -7.2030    1.0200   -0.5600 H   0  0  0  0  0  0  0  0  0  0  0  0
   -6.6290   -0.8660   -1.7400 H   0  0  0  0  0  0  0  0  0  0  0  0
  1 21  1  0
  1  2  1  0
  1 23  1  0
  1 22  1  0
  2 24  1  0
  2  3  1  0
  2 25  1  0
  3  4  2  0
  3 26  1  0
  4 27  1  0
  4  5  1  0
  5 29  1  0
  5 28  1  0
  5  6  1  0
  6 30  1  0
  6  7  2  0
  7  8  1  0
  7 31  1  0
  8  9  1  0
  8 32  1  0
  8 33  1  0
  9 34  1  0
  9 10  2  0
 10 35  1  0
 10 11  1  0
 11 36  1  0
 11 37  1  0
 11 12  1  0
 12 13  1  0
 12 39  1  0
 12 38  1  0
 13 14  1  0
 13 41  1  0
 13 40  1  0
 14 43  1  0
 14 15  1  0
 14 42  1  0
 15 44  1  0
 15 45  1  0
 15 16  1  0
 16 17  1  0
 16 46  1  0
 16 47  1  0
 17 49  1  0
 17 18  1  0
 17 48  1  0
 18 20  1  0
 18 19  2  0
 20 50  1  0
M  END
>  <id>  (725) 
834

>  <scaffolds>  (725) 
[]

>  <name>  (725) 
Alpha linolenic acid

>  <formula>  (725) 
C18H30O2

>  <SMILES>  (725) 
CC/C=CC/C=CC/C=CCCCCCCCC(=O)O

>  <ChEMBL_id>  (725) 
SCHEMBL15282

>  <ZINC_id>  (725) 
ZINC3802189

>  <PubChem_id>  (725) 
5280934

>  <DrugBank_id>  (725) 


>  <CAS_no>  (725) 
463-40-1

>  <references>  (725) 
[{'journal': {'name': 'BMC Complementary Medicine and Therapies', 'id': 48}, 'title': 'Isolation of alpha-linolenic acid from Sutherlandia frutescens and its inhibition of Mycobacterium tuberculosis’ shikimate kinase enzyme', 'year': 2016, 'start_page': None, 'volume': None, 'issue': None, 'doi': 'https://doi.org/10.1186/s12906-016-1344-1', 'isbn': '', 'despositor': {'code': 'BND', 'first_name': "Bakary N'tji", 'last_name': 'Diallo', 'id': 26}, 'refauthors_set': [], 'id': 472}]

>  <classifications>  (725) 
[{'classification': 'Fatty Acids', 'id': 880}, {'classification': 'Fatty Acyls (Classyfire)', 'id': 957}]

>  <molecular_mass>  (725) 
nan

$$$$
SANC00835_minRM1.pdb
     RDKit          3D

122128  0  0  1  0  0  0  0  0999 V2000
    1.6330   -1.2440    1.8420 C   0  0  0  0  0  0  0  0  0  0  0  0
    1.7470   -0.6490    0.4440 C   0  0  2  0  0  0  0  0  0  0  0  0
    0.7910    0.5650    0.3480 C   0  0  0  0  0  0  0  0  0  0  0  0
   -0.3570    0.3610   -0.6320 C   0  0  0  0  0  0  0  0  0  0  0  0
   -1.0580   -0.9810   -0.3980 C   0  0  1  0  0  0  0  0  0  0  0  0
   -0.0710   -2.1670   -0.6350 C   0  0  1  0  0  0  0  0  0  0  0  0
    1.3960   -1.6790   -0.6420 C   0  0  2  0  0  0  0  0  0  0  0  0
    2.3930   -2.8320   -0.5780 C   0  0  0  0  0  0  0  0  0  0  0  0
    3.7880   -2.3350   -0.9420 C   0  0  0  0  0  0  0  0  0  0  0  0
    4.2800   -1.2280   -0.0030 C   0  0  2  0  0  0  0  0  0  0  0  0
    3.1910   -0.1510    0.1630 C   0  0  2  0  0  0  0  0  0  0  0  0
    3.6430    0.8590    1.2150 C   0  0  0  0  0  0  0  0  0  0  0  0
    5.0750    1.2280    1.0750 C   0  0  0  0  0  0  0  0  0  0  0  0
    5.9530    0.6050    0.2830 C   0  0  0  0  0  0  0  0  0  0  0  0
    5.5370   -0.5180   -0.6220 C   0  0  1  0  0  0  0  0  0  0  0  0
    6.6590   -1.5440   -0.8360 C   0  0  0  0  0  0  0  0  0  0  0  0
    8.0200   -0.9050   -1.0680 C   0  0  0  0  0  0  0  0  0  0  0  0
    8.3850   -0.0080    0.1110 C   0  0  2  0  0  0  0  0  0  0  0  0
    7.3630    1.1230    0.2540 C   0  0  1  0  0  0  0  0  0  0  0  0
    7.4950    2.1540   -0.8680 C   0  0  0  0  0  0  0  0  0  0  0  0
    8.9090    2.7300   -0.9710 C   0  0  2  0  0  0  0  0  0  0  0  0
    9.9130    1.5880   -1.1340 C   0  0  0  0  0  0  0  0  0  0  0  0
    9.8040    0.5590   -0.0190 C   0  0  0  0  0  0  0  0  0  0  0  0
    9.2400    3.5760    0.2560 C   0  0  0  0  0  0  0  0  0  0  0  0
    8.9870    3.6360   -2.2050 C   0  0  0  0  0  0  0  0  0  0  0  0
    8.3810   -0.8290    1.3890 C   0  0  0  0  0  0  0  0  0  0  0  0
    7.8470   -0.5800    2.4570 O   0  0  0  0  0  0  0  0  0  0  0  0
    9.1250   -1.9560    1.2960 O   0  0  0  0  0  0  0  0  0  0  0  0
    5.1900    0.0910   -1.9880 C   0  0  0  0  0  0  0  0  0  0  0  0
    4.7030   -1.8590    1.3240 C   0  0  0  0  0  0  0  0  0  0  0  0
   -0.3280   -3.3020    0.3520 C   0  0  0  0  0  0  0  0  0  0  0  0
   -0.3740   -2.7230   -2.0400 C   0  0  0  0  0  0  0  0  0  0  0  0
   -1.4850   -1.0000    0.9490 O   0  0  0  0  0  0  0  0  0  0  0  0
   -2.8360   -0.8990    1.2410 C   0  0  1  0  0  0  0  0  0  0  0  0
   -3.5030    0.4220    0.7840 C   0  0  1  0  0  0  0  0  0  0  0  0
   -4.9650    0.4270    1.3130 C   0  0  2  0  0  0  0  0  0  0  0  0
   -5.5710   -1.0020    1.3450 C   0  0  1  0  0  0  0  0  0  0  0  0
   -4.8080   -1.9790    0.4200 C   0  0  2  0  0  0  0  0  0  0  0  0
   -3.4320   -2.0150    0.6130 O   0  0  0  0  0  0  0  0  0  0  0  0
   -5.1100   -1.6510   -1.0400 C   0  0  0  0  0  0  0  0  0  0  0  0
   -4.3570   -1.1260   -1.8340 O   0  0  0  0  0  0  0  0  0  0  0  0
   -6.3210   -1.9970   -1.5420 O   0  0  0  0  0  0  0  0  0  0  0  0
   -5.3950   -1.4350    2.6620 O   0  0  0  0  0  0  0  0  0  0  0  0
   -5.6820    1.2110    0.3910 O   0  0  0  0  0  0  0  0  0  0  0  0
   -6.6790    2.0340    0.9350 C   0  0  1  0  0  0  0  0  0  0  0  0
   -6.8630    3.1930   -0.0880 C   0  0  1  0  0  0  0  0  0  0  0  0
   -7.5550    2.7380   -1.4050 C   0  0  2  0  0  0  0  0  0  0  0  0
   -8.0940    1.2910   -1.2660 C   0  0  1  0  0  0  0  0  0  0  0  0
   -8.7620    1.1960    0.1210 C   0  0  2  0  0  0  0  0  0  0  0  0
   -7.7910    1.2210    1.1390 O   0  0  0  0  0  0  0  0  0  0  0  0
   -9.5560   -0.1160    0.3240 C   0  0  0  0  0  0  0  0  0  0  0  0
   -8.8910   -1.2260   -0.1870 O   0  0  0  0  0  0  0  0  0  0  0  0
   -9.1090    1.0710   -2.1980 O   0  0  0  0  0  0  0  0  0  0  0  0
   -6.6370    2.6790   -2.4520 O   0  0  0  0  0  0  0  0  0  0  0  0
   -7.7350    4.1340    0.4650 O   0  0  0  0  0  0  0  0  0  0  0  0
   -2.8080    1.4380    1.4400 O   0  0  0  0  0  0  0  0  0  0  0  0
    1.9730   -0.5440    2.6230 H   0  0  0  0  0  0  0  0  0  0  0  0
    2.2350   -2.1600    1.9680 H   0  0  0  0  0  0  0  0  0  0  0  0
    0.6030   -1.5360    2.1010 H   0  0  0  0  0  0  0  0  0  0  0  0
    0.3720    0.8160    1.3470 H   0  0  0  0  0  0  0  0  0  0  0  0
    1.3230    1.4980    0.0610 H   0  0  0  0  0  0  0  0  0  0  0  0
   -1.0800    1.1990   -0.5420 H   0  0  0  0  0  0  0  0  0  0  0  0
   -0.0130    0.4250   -1.6860 H   0  0  0  0  0  0  0  0  0  0  0  0
   -1.9200   -1.0690   -1.1130 H   0  0  0  0  0  0  0  0  0  0  0  0
    1.5540   -1.1710   -1.6340 H   0  0  0  0  0  0  0  0  0  0  0  0
    2.3970   -3.3190    0.4210 H   0  0  0  0  0  0  0  0  0  0  0  0
    2.1040   -3.6470   -1.2770 H   0  0  0  0  0  0  0  0  0  0  0  0
    4.4870   -3.1990   -0.9410 H   0  0  0  0  0  0  0  0  0  0  0  0
    3.7980   -1.9860   -2.0000 H   0  0  0  0  0  0  0  0  0  0  0  0
    3.1300    0.3990   -0.8210 H   0  0  0  0  0  0  0  0  0  0  0  0
    3.4600    0.4790    2.2480 H   0  0  0  0  0  0  0  0  0  0  0  0
    3.0250    1.7830    1.1620 H   0  0  0  0  0  0  0  0  0  0  0  0
    5.3840    2.0660    1.7130 H   0  0  0  0  0  0  0  0  0  0  0  0
    6.4230   -2.2010   -1.7010 H   0  0  0  0  0  0  0  0  0  0  0  0
    6.7220   -2.2540    0.0200 H   0  0  0  0  0  0  0  0  0  0  0  0
    8.0400   -0.3390   -2.0210 H   0  0  0  0  0  0  0  0  0  0  0  0
    8.7890   -1.6930   -1.2200 H   0  0  0  0  0  0  0  0  0  0  0  0
    7.5810    1.6470    1.2250 H   0  0  0  0  0  0  0  0  0  0  0  0
    7.1890    1.7160   -1.8450 H   0  0  0  0  0  0  0  0  0  0  0  0
    6.7590    2.9700   -0.7000 H   0  0  0  0  0  0  0  0  0  0  0  0
   10.9500    1.9890   -1.1690 H   0  0  0  0  0  0  0  0  0  0  0  0
    9.7850    1.0990   -2.1230 H   0  0  0  0  0  0  0  0  0  0  0  0
   10.1300    1.0020    0.9470 H   0  0  0  0  0  0  0  0  0  0  0  0
   10.5300   -0.2640   -0.1950 H   0  0  0  0  0  0  0  0  0  0  0  0
    8.5670    4.4410    0.3530 H   0  0  0  0  0  0  0  0  0  0  0  0
    9.1620    3.0240    1.2030 H   0  0  0  0  0  0  0  0  0  0  0  0
   10.2630    3.9790    0.2160 H   0  0  0  0  0  0  0  0  0  0  0  0
    8.2720    4.4690   -2.1530 H   0  0  0  0  0  0  0  0  0  0  0  0
    9.9840    4.0840   -2.3260 H   0  0  0  0  0  0  0  0  0  0  0  0
    8.7710    3.0990   -3.1400 H   0  0  0  0  0  0  0  0  0  0  0  0
    9.1120   -2.4540    2.1250 H   0  0  0  0  0  0  0  0  0  0  0  0
    6.0510    0.5880   -2.4620 H   0  0  0  0  0  0  0  0  0  0  0  0
    4.4010    0.8570   -1.9130 H   0  0  0  0  0  0  0  0  0  0  0  0
    4.8210   -0.6640   -2.7000 H   0  0  0  0  0  0  0  0  0  0  0  0
    3.8750   -2.3380    1.8640 H   0  0  0  0  0  0  0  0  0  0  0  0
    5.1620   -1.1530    2.0300 H   0  0  0  0  0  0  0  0  0  0  0  0
    5.4590   -2.6520    1.1800 H   0  0  0  0  0  0  0  0  0  0  0  0
   -1.3950   -3.5730    0.3920 H   0  0  0  0  0  0  0  0  0  0  0  0
    0.2020   -4.2280    0.0890 H   0  0  0  0  0  0  0  0  0  0  0  0
   -0.0380   -3.0470    1.3820 H   0  0  0  0  0  0  0  0  0  0  0  0
   -1.3710   -3.1850   -2.1000 H   0  0  0  0  0  0  0  0  0  0  0  0
   -0.3430   -1.9500   -2.8220 H   0  0  0  0  0  0  0  0  0  0  0  0
    0.3410   -3.5020   -2.3440 H   0  0  0  0  0  0  0  0  0  0  0  0
   -2.8540   -1.0150    2.3600 H   0  0  0  0  0  0  0  0  0  0  0  0
   -3.4670    0.5340   -0.3320 H   0  0  0  0  0  0  0  0  0  0  0  0
   -4.9850    0.8570    2.3560 H   0  0  0  0  0  0  0  0  0  0  0  0
   -6.6550   -0.9760    1.0460 H   0  0  0  0  0  0  0  0  0  0  0  0
   -5.1120   -3.0430    0.6250 H   0  0  0  0  0  0  0  0  0  0  0  0
   -6.8420   -2.4680   -0.8820 H   0  0  0  0  0  0  0  0  0  0  0  0
   -6.0470   -2.1210    2.8350 H   0  0  0  0  0  0  0  0  0  0  0  0
   -6.4360    2.4260    1.9640 H   0  0  0  0  0  0  0  0  0  0  0  0
   -5.8510    3.6360   -0.3030 H   0  0  0  0  0  0  0  0  0  0  0  0
   -8.4080    3.4350   -1.6540 H   0  0  0  0  0  0  0  0  0  0  0  0
   -7.2660    0.5360   -1.3770 H   0  0  0  0  0  0  0  0  0  0  0  0
   -9.4590    2.0640    0.2780 H   0  0  0  0  0  0  0  0  0  0  0  0
   -9.6920   -0.3410    1.4050 H   0  0  0  0  0  0  0  0  0  0  0  0
  -10.5760    0.0070   -0.1080 H   0  0  0  0  0  0  0  0  0  0  0  0
   -9.0030   -1.2240   -1.1450 H   0  0  0  0  0  0  0  0  0  0  0  0
   -8.7000    1.0940   -3.0700 H   0  0  0  0  0  0  0  0  0  0  0  0
   -6.4070    3.5810   -2.6960 H   0  0  0  0  0  0  0  0  0  0  0  0
   -7.2780    4.5840    1.1810 H   0  0  0  0  0  0  0  0  0  0  0  0
   -2.8960    2.2290    0.9010 H   0  0  0  0  0  0  0  0  0  0  0  0
  1 58  1  0
  1 59  1  0
  1 57  1  0
  2  1  1  1
  2  7  1  0
  2 11  1  0
  2  3  1  0
  3  4  1  0
  3 61  1  0
  3 60  1  0
  4 63  1  0
  4 62  1  0
  4  5  1  0
  5 64  1  6
  5  6  1  0
  5 33  1  0
  6 32  1  6
  6  7  1  0
  6 31  1  0
  7 65  1  6
  7  8  1  0
  8 67  1  0
  8  9  1  0
  8 66  1  0
  9 69  1  0
  9 68  1  0
  9 10  1  0
 10 15  1  0
 10 11  1  0
 10 30  1  1
 11 70  1  6
 11 12  1  0
 12 13  1  0
 12 72  1  0
 12 71  1  0
 13 14  2  0
 13 73  1  0
 14 15  1  0
 14 19  1  0
 15 29  1  6
 15 16  1  0
 16 74  1  0
 16 17  1  0
 16 75  1  0
 17 76  1  0
 17 77  1  0
 17 18  1  0
 18 23  1  0
 18 19  1  0
 18 26  1  1
 19 20  1  0
 19 78  1  1
 20 79  1  0
 20 21  1  0
 20 80  1  0
 21 25  1  6
 21 22  1  0
 21 24  1  0
 22 82  1  0
 22 81  1  0
 22 23  1  0
 23 84  1  0
 23 83  1  0
 24 87  1  0
 24 85  1  0
 24 86  1  0
 25 90  1  0
 25 89  1  0
 25 88  1  0
 26 28  1  0
 26 27  2  0
 28 91  1  0
 29 94  1  0
 29 92  1  0
 29 93  1  0
 30 97  1  0
 30 95  1  0
 30 96  1  0
 31 99  1  0
 31 98  1  0
 31100  1  0
 32102  1  0
 32103  1  0
 32101  1  0
 33 34  1  0
 34 39  1  0
 34 35  1  0
 34104  1  1
 35105  1  6
 35 36  1  0
 35 56  1  0
 36 44  1  0
 36 37  1  0
 36106  1  1
 37 38  1  0
 37107  1  6
 37 43  1  0
 38 40  1  0
 38 39  1  0
 38108  1  1
 40 41  2  0
 40 42  1  0
 42109  1  0
 43110  1  0
 44 45  1  0
 45 46  1  0
 45 50  1  0
 45111  1  1
 46 47  1  0
 46112  1  6
 46 55  1  0
 47 54  1  0
 47113  1  6
 47 48  1  0
 48 53  1  0
 48114  1  1
 48 49  1  0
 49115  1  1
 49 51  1  0
 49 50  1  0
 51 52  1  0
 51117  1  0
 51116  1  0
 52118  1  0
 53119  1  0
 54120  1  0
 55121  1  0
 56122  1  0
M  END
>  <id>  (726) 
835

>  <scaffolds>  (726) 
['C1=C2C3CCCCC3CCC2C2CCC3CCCCC3C2C1', 'C1=CCCCC1', 'C1=CCC2CCCCC2C1', 'C1CCOCC1', 'C1CCCCC1', 'C=C1CCCC2CCCCC12', 'C1=C2CCCCC2CCC1', 'C1=C2C3CCCCC3CCC2C2CCCCC2C1', 'C1=C2C3CCCCC3CCC2C2CCC3CC(OC4CC(OC5CCCCO5)CCO4)CCC3C2C1', 'C1CCC2CCCCC2C1']

>  <name>  (726) 
Spinasaponin a

>  <formula>  (726) 
C42H66O14

>  <SMILES>  (726) 
C[C@]12CC[C@@H](C([C@@H]1CC[C@@]3([C@@H]2CC=C4[C@]3(CC[C@@]5([C@H]4CC(CC5)(C)C)C(=O)O)C)C)(C)C)O[C@H]6[C@@H]([C@H]([C@@H]([C@H](O6)C(=O)O)O)O[C@H]7[C@@H]([C@H]([C@@H]([C@H](O7)CO)O)O)O)O

>  <ChEMBL_id>  (726) 


>  <ZINC_id>  (726) 


>  <PubChem_id>  (726) 
441951

>  <DrugBank_id>  (726) 


>  <CAS_no>  (726) 
25406-56-8

>  <references>  (726) 
[{'journal': {'name': 'Journal of Ethnopharmacology', 'id': 7}, 'title': "Potential of South African medicinal plants targeting the reduction of AB42 protein as a treatment of Alzheimer's disease", 'year': 2019, 'start_page': None, 'volume': None, 'issue': None, 'doi': 'https://doi.org/10.1016/j.jep.2018.11.034', 'isbn': '', 'despositor': {'code': 'BND', 'first_name': "Bakary N'tji", 'last_name': 'Diallo', 'id': 26}, 'refauthors_set': [{'author': {'first_name': 'Anuradha', 'initials': 'AT', 'last_name': 'Thakur', 'id': 988}, 'first_author': True, 'id': 1575}], 'id': 470}]

>  <classifications>  (726) 
[{'classification': 'Terpenoid', 'id': 839}, {'classification': 'Phenol lipids (Classyfire)', 'id': 951}]

>  <molecular_mass>  (726) 
794.45

$$$$
SANC00836_minRM1.pdb
     RDKit          3D

 53 56  0  0  1  0  0  0  0  0999 V2000
   -4.1340    2.7640    1.6930 C   0  0  0  0  0  0  0  0  0  0  0  0
   -3.2610    2.0410    0.6690 C   0  0  1  0  0  0  0  0  0  0  0  0
   -3.8600    2.1520   -0.7620 C   0  0  1  0  0  0  0  0  0  0  0  0
   -2.7570    2.0470   -1.8550 C   0  0  2  0  0  0  0  0  0  0  0  0
   -1.5080    1.3420   -1.2810 C   0  0  2  0  0  0  0  0  0  0  0  0
   -1.0120    2.1090   -0.0210 C   0  0  1  0  0  0  0  0  0  0  0  0
   -2.0330    2.7280    0.6920 O   0  0  0  0  0  0  0  0  0  0  0  0
   -0.5070    1.1690    0.9230 O   0  0  0  0  0  0  0  0  0  0  0  0
    0.7060    0.6580    0.5700 C   0  0  0  0  0  0  0  0  0  0  0  0
    0.8160   -0.6620    0.2880 C   0  0  0  0  0  0  0  0  0  0  0  0
    2.0070   -1.2810    0.0410 O   0  0  0  0  0  0  0  0  0  0  0  0
    3.1480   -0.5340    0.0820 C   0  0  0  0  0  0  0  0  0  0  0  0
    4.3200   -1.2310   -0.1810 C   0  0  0  0  0  0  0  0  0  0  0  0
    5.5160   -0.5000   -0.1380 C   0  0  0  0  0  0  0  0  0  0  0  0
    5.5650    0.8640    0.1540 C   0  0  0  0  0  0  0  0  0  0  0  0
    4.3610    1.5230    0.4100 C   0  0  0  0  0  0  0  0  0  0  0  0
    3.1320    0.8290    0.3750 C   0  0  0  0  0  0  0  0  0  0  0  0
    1.8870    1.5160    0.6350 C   0  0  0  0  0  0  0  0  0  0  0  0
    1.8680    2.7220    0.8840 O   0  0  0  0  0  0  0  0  0  0  0  0
    4.4360    2.8280    0.6840 O   0  0  0  0  0  0  0  0  0  0  0  0
    6.7130   -1.0740   -0.3760 O   0  0  0  0  0  0  0  0  0  0  0  0
   -0.2800   -1.6310    0.2340 C   0  0  0  0  0  0  0  0  0  0  0  0
   -0.3940   -2.4750   -0.8630 C   0  0  0  0  0  0  0  0  0  0  0  0
   -1.4420   -3.4020   -0.8950 C   0  0  0  0  0  0  0  0  0  0  0  0
   -2.3600   -3.4760    0.1620 C   0  0  0  0  0  0  0  0  0  0  0  0
   -2.2190   -2.6010    1.2480 C   0  0  0  0  0  0  0  0  0  0  0  0
   -1.1770   -1.6790    1.2990 C   0  0  0  0  0  0  0  0  0  0  0  0
   -3.1490   -2.7390    2.2260 O   0  0  0  0  0  0  0  0  0  0  0  0
   -3.3890   -4.3510    0.0270 O   0  0  0  0  0  0  0  0  0  0  0  0
   -1.4880   -4.1880   -1.9940 O   0  0  0  0  0  0  0  0  0  0  0  0
   -0.4920    1.2310   -2.2180 O   0  0  0  0  0  0  0  0  0  0  0  0
   -2.3200    3.3230   -2.2190 O   0  0  0  0  0  0  0  0  0  0  0  0
   -4.7100    1.0710   -1.0100 O   0  0  0  0  0  0  0  0  0  0  0  0
   -3.7190    2.6770    2.7080 H   0  0  0  0  0  0  0  0  0  0  0  0
   -4.2230    3.8410    1.4880 H   0  0  0  0  0  0  0  0  0  0  0  0
   -5.1510    2.3490    1.7230 H   0  0  0  0  0  0  0  0  0  0  0  0
   -3.1420    0.9620    0.9610 H   0  0  0  0  0  0  0  0  0  0  0  0
   -4.4090    3.1290   -0.8700 H   0  0  0  0  0  0  0  0  0  0  0  0
   -3.1310    1.4710   -2.7470 H   0  0  0  0  0  0  0  0  0  0  0  0
   -1.7600    0.2720   -1.0450 H   0  0  0  0  0  0  0  0  0  0  0  0
   -0.3010    2.9450   -0.2550 H   0  0  0  0  0  0  0  0  0  0  0  0
    4.2970   -2.2990   -0.4100 H   0  0  0  0  0  0  0  0  0  0  0  0
    6.5160    1.4030    0.1820 H   0  0  0  0  0  0  0  0  0  0  0  0
    3.5360    3.2040    0.8540 H   0  0  0  0  0  0  0  0  0  0  0  0
    6.5890   -2.0110   -0.5730 H   0  0  0  0  0  0  0  0  0  0  0  0
    0.3170   -2.4240   -1.6950 H   0  0  0  0  0  0  0  0  0  0  0  0
   -1.0620   -1.0030    2.1510 H   0  0  0  0  0  0  0  0  0  0  0  0
   -2.9080   -2.1660    2.9630 H   0  0  0  0  0  0  0  0  0  0  0  0
   -3.6070   -4.6940    0.9020 H   0  0  0  0  0  0  0  0  0  0  0  0
   -2.2450   -4.7830   -1.9420 H   0  0  0  0  0  0  0  0  0  0  0  0
   -0.2600    2.1080   -2.5460 H   0  0  0  0  0  0  0  0  0  0  0  0
   -3.0050    3.7270   -2.7580 H   0  0  0  0  0  0  0  0  0  0  0  0
   -5.4390    1.1220   -0.3840 H   0  0  0  0  0  0  0  0  0  0  0  0
  1  2  1  0
  1 35  1  0
  1 36  1  0
  1 34  1  0
  2  3  1  0
  2  7  1  0
  2 37  1  1
  3  4  1  0
  3 33  1  0
  3 38  1  1
  4 39  1  6
  4 32  1  0
  4  5  1  0
  5 31  1  0
  5 40  1  1
  5  6  1  0
  6 41  1  6
  6  7  1  0
  6  8  1  0
  8  9  1  0
  9 10  2  0
  9 18  1  0
 10 11  1  0
 10 22  1  0
 11 12  1  0
 12 13  2  0
 12 17  1  0
 13 42  1  0
 13 14  1  0
 14 21  1  0
 14 15  2  0
 15 43  1  0
 15 16  1  0
 16 17  2  0
 16 20  1  0
 17 18  1  0
 18 19  2  0
 20 44  1  0
 21 45  1  0
 22 23  2  0
 22 27  1  0
 23 46  1  0
 23 24  1  0
 24 30  1  0
 24 25  2  0
 25 29  1  0
 25 26  1  0
 26 27  2  0
 26 28  1  0
 27 47  1  0
 28 48  1  0
 29 49  1  0
 30 50  1  0
 31 51  1  0
 32 52  1  0
 33 53  1  0
M  END
>  <id>  (727) 
836

>  <scaffolds>  (727) 
['c1ccccc1', 'O=c1cc(-c2ccccc2)oc2ccccc12', 'O=c1c(OC2CCCCO2)c(-c2ccccc2)oc2ccccc12', 'C1CCOCC1', 'O=c1ccoc2ccccc12']

>  <name>  (727) 
Myricitrin

>  <formula>  (727) 
C21H20O12

>  <SMILES>  (727) 
C[C@H]1[C@@H]([C@H]([C@H]([C@@H](O1)OC2=C(OC3=CC(=CC(=C3C2=O)O)O)C4=CC(=C(C(=C4)O)O)O)O)O)O

>  <ChEMBL_id>  (727) 
CHEMBL522983

>  <ZINC_id>  (727) 
ZINC4098556

>  <PubChem_id>  (727) 
5281673

>  <DrugBank_id>  (727) 


>  <CAS_no>  (727) 
17912-87-7

>  <references>  (727) 
[{'journal': {'name': 'Journal of Ethnopharmacology', 'id': 7}, 'title': "Potential of South African medicinal plants targeting the reduction of AB42 protein as a treatment of Alzheimer's disease", 'year': 2019, 'start_page': None, 'volume': None, 'issue': None, 'doi': 'https://doi.org/10.1016/j.jep.2018.11.034', 'isbn': '', 'despositor': {'code': 'BND', 'first_name': "Bakary N'tji", 'last_name': 'Diallo', 'id': 26}, 'refauthors_set': [{'author': {'first_name': 'Anuradha', 'initials': 'AT', 'last_name': 'Thakur', 'id': 988}, 'first_author': True, 'id': 1575}], 'id': 470}]

>  <classifications>  (727) 
[{'classification': 'Flavonoids', 'id': 776}, {'classification': 'Flavonoids (Classyfire)', 'id': 941}]

>  <molecular_mass>  (727) 
464.1

$$$$
SANC00837_minRM1.pdb
     RDKit          3D

 82 87  0  0  1  0  0  0  0  0999 V2000
   -0.0690    2.2730   -1.2970 C   0  0  0  0  0  0  0  0  0  0  0  0
   -0.1930    0.9380   -0.5530 C   0  0  2  0  0  0  0  0  0  0  0  0
    0.3680    1.1520    0.8670 C   0  0  0  0  0  0  0  0  0  0  0  0
    1.8410    1.5390    0.8380 C   0  0  0  0  0  0  0  0  0  0  0  0
    2.6620    0.4600    0.1250 C   0  0  1  0  0  0  0  0  0  0  0  0
    2.1230    0.2240   -1.2900 C   0  0  0  0  0  0  0  0  0  0  0  0
    0.6380   -0.1370   -1.2580 C   0  0  1  0  0  0  0  0  0  0  0  0
    0.4450   -1.4890   -0.5740 C   0  0  0  0  0  0  0  0  0  0  0  0
   -1.0120   -1.8980   -0.6940 C   0  0  0  0  0  0  0  0  0  0  0  0
   -1.9240   -0.9030    0.0230 C   0  0  1  0  0  0  0  0  0  0  0  0
   -1.6890    0.5480   -0.4460 C   0  0  2  0  0  0  0  0  0  0  0  0
   -2.5430    0.7930   -1.6920 C   0  0  0  0  0  0  0  0  0  0  0  0
   -4.0410    0.8200   -1.3290 C   0  0  0  0  0  0  0  0  0  0  0  0
   -4.3720   -0.0770   -0.1340 C   0  0  2  0  0  0  0  0  0  0  0  0
   -3.4100   -1.2980   -0.1720 C   0  0  2  0  0  0  0  0  0  0  0  0
   -4.0170   -2.2320    0.8920 C   0  0  0  0  0  0  0  0  0  0  0  0
   -5.5340   -2.0200    0.7520 C   0  0  0  0  0  0  0  0  0  0  0  0
   -5.7410   -0.7980   -0.1720 C   0  0  1  0  0  0  0  0  0  0  0  0
   -6.9100    0.0180    0.2050 C   0  0  0  0  0  0  0  0  0  0  0  0
   -8.0220   -0.3560    0.8530 C   0  0  0  0  0  0  0  0  0  0  0  0
   -8.9390    0.8030    0.8780 C   0  0  0  0  0  0  0  0  0  0  0  0
  -10.0420    0.9690    1.3440 O   0  0  0  0  0  0  0  0  0  0  0  0
   -8.3520    1.8610    0.2180 O   0  0  0  0  0  0  0  0  0  0  0  0
   -7.0650    1.4580   -0.2260 C   0  0  0  0  0  0  0  0  0  0  0  0
   -3.6130   -1.8600   -1.4420 O   0  0  0  0  0  0  0  0  0  0  0  0
   -4.2950    0.6930    1.1840 C   0  0  0  0  0  0  0  0  0  0  0  0
    3.9770    0.9440   -0.0660 O   0  0  0  0  0  0  0  0  0  0  0  0
    4.8650    0.7190    0.9890 C   0  0  2  0  0  0  0  0  0  0  0  0
    6.0790    1.6570    0.7220 C   0  0  1  0  0  0  0  0  0  0  0  0
    7.3580    0.9690    1.2630 C   0  0  1  0  0  0  0  0  0  0  0  0
    7.5400   -0.4600    0.6740 C   0  0  1  0  0  0  0  0  0  0  0  0
    6.2110   -0.9980    0.0920 C   0  0  2  0  0  0  0  0  0  0  0  0
    5.1770   -0.6420    0.9750 O   0  0  0  0  0  0  0  0  0  0  0  0
    6.2050   -2.5460    0.0800 C   0  0  0  0  0  0  0  0  0  0  0  0
    7.3990   -3.0510   -0.4230 O   0  0  0  0  0  0  0  0  0  0  0  0
    8.4310   -0.4300   -0.3980 O   0  0  0  0  0  0  0  0  0  0  0  0
    8.4810    1.7510    1.0480 O   0  0  0  0  0  0  0  0  0  0  0  0
    6.3040    1.8490   -0.6360 O   0  0  0  0  0  0  0  0  0  0  0  0
   -0.7940    3.0180   -0.9370 H   0  0  0  0  0  0  0  0  0  0  0  0
   -0.2110    2.1740   -2.3820 H   0  0  0  0  0  0  0  0  0  0  0  0
    0.9170    2.7480   -1.1660 H   0  0  0  0  0  0  0  0  0  0  0  0
    0.2260    0.2500    1.4980 H   0  0  0  0  0  0  0  0  0  0  0  0
   -0.2040    1.9450    1.3970 H   0  0  0  0  0  0  0  0  0  0  0  0
    1.9770    2.5230    0.3340 H   0  0  0  0  0  0  0  0  0  0  0  0
    2.2130    1.7030    1.8710 H   0  0  0  0  0  0  0  0  0  0  0  0
    2.6500   -0.4950    0.7150 H   0  0  0  0  0  0  0  0  0  0  0  0
    2.3010    1.1110   -1.9350 H   0  0  0  0  0  0  0  0  0  0  0  0
    2.7080   -0.5790   -1.7870 H   0  0  0  0  0  0  0  0  0  0  0  0
    0.2840   -0.2210   -2.3200 H   0  0  0  0  0  0  0  0  0  0  0  0
    0.7620   -1.4800    0.4890 H   0  0  0  0  0  0  0  0  0  0  0  0
    1.0970   -2.2590   -1.0410 H   0  0  0  0  0  0  0  0  0  0  0  0
   -1.2530   -1.9950   -1.7750 H   0  0  0  0  0  0  0  0  0  0  0  0
   -1.1640   -2.9170   -0.2760 H   0  0  0  0  0  0  0  0  0  0  0  0
   -1.6950   -0.9550    1.1190 H   0  0  0  0  0  0  0  0  0  0  0  0
   -2.0900    1.2440    0.3450 H   0  0  0  0  0  0  0  0  0  0  0  0
   -2.3300    0.0290   -2.4680 H   0  0  0  0  0  0  0  0  0  0  0  0
   -2.3040    1.7480   -2.2010 H   0  0  0  0  0  0  0  0  0  0  0  0
   -4.3560    1.8670   -1.1360 H   0  0  0  0  0  0  0  0  0  0  0  0
   -4.6330    0.5200   -2.2180 H   0  0  0  0  0  0  0  0  0  0  0  0
   -3.6580   -1.9860    1.9100 H   0  0  0  0  0  0  0  0  0  0  0  0
   -3.7230   -3.2920    0.7630 H   0  0  0  0  0  0  0  0  0  0  0  0
   -6.0340   -2.9160    0.3350 H   0  0  0  0  0  0  0  0  0  0  0  0
   -6.0010   -1.8820    1.7470 H   0  0  0  0  0  0  0  0  0  0  0  0
   -5.9620   -1.1480   -1.2170 H   0  0  0  0  0  0  0  0  0  0  0  0
   -8.2940   -1.3070    1.2940 H   0  0  0  0  0  0  0  0  0  0  0  0
   -7.0080    1.5920   -1.3260 H   0  0  0  0  0  0  0  0  0  0  0  0
   -6.3100    2.1290    0.2450 H   0  0  0  0  0  0  0  0  0  0  0  0
   -3.3860   -2.7940   -1.4060 H   0  0  0  0  0  0  0  0  0  0  0  0
   -4.6800    0.1350    2.0480 H   0  0  0  0  0  0  0  0  0  0  0  0
   -3.2770    1.0050    1.4610 H   0  0  0  0  0  0  0  0  0  0  0  0
   -4.8880    1.6240    1.1480 H   0  0  0  0  0  0  0  0  0  0  0  0
    4.4310    0.8800    2.0130 H   0  0  0  0  0  0  0  0  0  0  0  0
    5.9100    2.6310    1.2550 H   0  0  0  0  0  0  0  0  0  0  0  0
    7.2870    0.9120    2.3810 H   0  0  0  0  0  0  0  0  0  0  0  0
    7.8970   -1.1400    1.4950 H   0  0  0  0  0  0  0  0  0  0  0  0
    6.0310   -0.6080   -0.9460 H   0  0  0  0  0  0  0  0  0  0  0  0
    5.3170   -2.9210   -0.4800 H   0  0  0  0  0  0  0  0  0  0  0  0
    6.1330   -2.9770    1.1030 H   0  0  0  0  0  0  0  0  0  0  0  0
    7.5490   -2.6660   -1.2930 H   0  0  0  0  0  0  0  0  0  0  0  0
    9.3180   -0.5020   -0.0330 H   0  0  0  0  0  0  0  0  0  0  0  0
    8.5750    1.9320    0.1040 H   0  0  0  0  0  0  0  0  0  0  0  0
    5.5950    2.3980   -0.9880 H   0  0  0  0  0  0  0  0  0  0  0  0
  1 40  1  0
  1 41  1  0
  1 39  1  0
  2  1  1  6
  2  7  1  0
  2 11  1  0
  2  3  1  0
  3  4  1  0
  3 43  1  0
  3 42  1  0
  4  5  1  0
  4 44  1  0
  4 45  1  0
  5  6  1  0
  5 27  1  0
  5 46  1  1
  6 47  1  0
  6 48  1  0
  6  7  1  0
  7 49  1  6
  7  8  1  0
  8 51  1  0
  8  9  1  0
  8 50  1  0
  9 52  1  0
  9 53  1  0
  9 10  1  0
 10 11  1  0
 10 15  1  0
 10 54  1  1
 11 12  1  0
 11 55  1  1
 12 56  1  0
 12 57  1  0
 12 13  1  0
 13 59  1  0
 13 58  1  0
 13 14  1  0
 14 18  1  0
 14 15  1  0
 14 26  1  1
 15 25  1  6
 15 16  1  0
 16 17  1  0
 16 61  1  0
 16 60  1  0
 17 18  1  0
 17 62  1  0
 17 63  1  0
 18 64  1  6
 18 19  1  0
 19 24  1  0
 19 20  2  0
 20 21  1  0
 20 65  1  0
 21 23  1  0
 21 22  2  0
 23 24  1  0
 24 66  1  0
 24 67  1  0
 25 68  1  0
 26 71  1  0
 26 70  1  0
 26 69  1  0
 27 28  1  0
 28 29  1  0
 28 33  1  0
 28 72  1  1
 29 38  1  0
 29 73  1  1
 29 30  1  0
 30 31  1  0
 30 37  1  0
 30 74  1  1
 31 36  1  0
 31 32  1  0
 31 75  1  1
 32 76  1  6
 32 34  1  0
 32 33  1  0
 34 77  1  0
 34 35  1  0
 34 78  1  0
 35 79  1  0
 36 80  1  0
 37 81  1  0
 38 82  1  0
M  END
>  <id>  (728) 
837

>  <scaffolds>  (728) 
['C1CCOCC1', 'C1CCC(C2CCCC2)CC1', 'C1CCCCC1', 'C1CCC2C(C1)CCC1C3CCCC3CCC21', 'C1CCC2CCCCC2C1']

>  <name>  (728) 
Desglucouzarin

>  <formula>  (728) 
C29O9H44

>  <SMILES>  (728) 
CC12CCC(CC1CCC3C2CCC4(C3(CCC4C5=CC(=O)OC5)O)C)OC6C(C(C(C(O6)CO)O)O)O

>  <ChEMBL_id>  (728) 


>  <ZINC_id>  (728) 


>  <PubChem_id>  (728) 
321971

>  <DrugBank_id>  (728) 


>  <CAS_no>  (728) 
6877-82-3

>  <references>  (728) 
[{'journal': {'name': 'Journal of Ethnopharmacology', 'id': 7}, 'title': "Potential of South African medicinal plants targeting the reduction of AB42 protein as a treatment of Alzheimer's disease", 'year': 2019, 'start_page': None, 'volume': None, 'issue': None, 'doi': 'https://doi.org/10.1016/j.jep.2018.11.034', 'isbn': '', 'despositor': {'code': 'BND', 'first_name': "Bakary N'tji", 'last_name': 'Diallo', 'id': 26}, 'refauthors_set': [{'author': {'first_name': 'Anuradha', 'initials': 'AT', 'last_name': 'Thakur', 'id': 988}, 'first_author': True, 'id': 1575}], 'id': 470}]

>  <classifications>  (728) 
[{'classification': 'Steroid', 'id': 835}, {'classification': 'Steroids and steroid derivatives (Classyfire)', 'id': 942}]

>  <molecular_mass>  (728) 
536.3

$$$$
SANC00838_minRM1.pdb
     RDKit          3D

 53 56  0  0  1  0  0  0  0  0999 V2000
    0.1400   -2.4410    0.8260 C   0  0  0  0  0  0  0  0  0  0  0  0
    0.4690   -3.7790    0.9970 C   0  0  0  0  0  0  0  0  0  0  0  0
   -0.3260   -4.7660    0.4100 C   0  0  0  0  0  0  0  0  0  0  0  0
   -1.4520   -4.3980   -0.3480 C   0  0  0  0  0  0  0  0  0  0  0  0
   -1.7840   -3.0590   -0.5150 C   0  0  0  0  0  0  0  0  0  0  0  0
   -0.9810   -2.0880    0.0810 C   0  0  0  0  0  0  0  0  0  0  0  0
   -1.3300   -0.6770   -0.0750 C   0  0  0  0  0  0  0  0  0  0  0  0
   -0.5220    0.3300   -0.4860 C   0  0  0  0  0  0  0  0  0  0  0  0
   -1.0300    1.7010   -0.6540 C   0  0  0  0  0  0  0  0  0  0  0  0
   -0.3410    2.6300   -1.0440 O   0  0  0  0  0  0  0  0  0  0  0  0
   -2.4410    1.8460   -0.3280 C   0  0  0  0  0  0  0  0  0  0  0  0
   -3.1070    3.0830   -0.4140 C   0  0  0  0  0  0  0  0  0  0  0  0
   -4.4680    3.2050   -0.1370 C   0  0  0  0  0  0  0  0  0  0  0  0
   -5.1690    2.0550    0.2440 C   0  0  0  0  0  0  0  0  0  0  0  0
   -4.5560    0.8080    0.3650 C   0  0  0  0  0  0  0  0  0  0  0  0
   -3.1930    0.7410    0.0760 C   0  0  0  0  0  0  0  0  0  0  0  0
   -2.6560   -0.5000    0.2130 O   0  0  0  0  0  0  0  0  0  0  0  0
   -6.4890    2.0710    0.5220 O   0  0  0  0  0  0  0  0  0  0  0  0
   -2.3470    4.1310   -0.7730 O   0  0  0  0  0  0  0  0  0  0  0  0
    0.7230   -0.0400   -0.9090 O   0  0  0  0  0  0  0  0  0  0  0  0
    1.7890    0.8200   -0.5560 C   0  0  1  0  0  0  0  0  0  0  0  0
    1.9300    1.0080    0.9800 C   0  0  1  0  0  0  0  0  0  0  0  0
    3.2990    1.6780    1.2760 C   0  0  2  0  0  0  0  0  0  0  0  0
    4.4190    0.8260    0.6260 C   0  0  1  0  0  0  0  0  0  0  0  0
    4.0960    0.7050   -0.8840 C   0  0  2  0  0  0  0  0  0  0  0  0
    2.8670    0.0350   -1.0210 O   0  0  0  0  0  0  0  0  0  0  0  0
    5.1330   -0.1870   -1.6110 C   0  0  0  0  0  0  0  0  0  0  0  0
    6.2210    0.5920   -1.9970 O   0  0  0  0  0  0  0  0  0  0  0  0
    5.6760    1.3590    0.8460 O   0  0  0  0  0  0  0  0  0  0  0  0
    3.5690    1.6620    2.6410 O   0  0  0  0  0  0  0  0  0  0  0  0
    0.8940    1.7600    1.5150 O   0  0  0  0  0  0  0  0  0  0  0  0
   -2.1710   -5.4260   -0.8750 O   0  0  0  0  0  0  0  0  0  0  0  0
    0.0600   -6.0420    0.6380 O   0  0  0  0  0  0  0  0  0  0  0  0
    0.7650   -1.6650    1.2820 H   0  0  0  0  0  0  0  0  0  0  0  0
    1.3460   -4.0670    1.5860 H   0  0  0  0  0  0  0  0  0  0  0  0
   -2.6600   -2.7680   -1.1020 H   0  0  0  0  0  0  0  0  0  0  0  0
   -4.9730    4.1700   -0.2140 H   0  0  0  0  0  0  0  0  0  0  0  0
   -5.1200   -0.0760    0.6750 H   0  0  0  0  0  0  0  0  0  0  0  0
   -6.8310    2.9670    0.4150 H   0  0  0  0  0  0  0  0  0  0  0  0
   -2.8950    4.9250   -0.8230 H   0  0  0  0  0  0  0  0  0  0  0  0
    1.7370    1.8010   -1.1070 H   0  0  0  0  0  0  0  0  0  0  0  0
    1.8450    0.0210    1.5090 H   0  0  0  0  0  0  0  0  0  0  0  0
    3.3180    2.7290    0.8730 H   0  0  0  0  0  0  0  0  0  0  0  0
    4.4770   -0.1820    1.1170 H   0  0  0  0  0  0  0  0  0  0  0  0
    4.0660    1.7230   -1.3640 H   0  0  0  0  0  0  0  0  0  0  0  0
    4.6680   -0.7400   -2.4610 H   0  0  0  0  0  0  0  0  0  0  0  0
    5.5630   -0.9580   -0.9350 H   0  0  0  0  0  0  0  0  0  0  0  0
    5.9720    1.0810   -2.7880 H   0  0  0  0  0  0  0  0  0  0  0  0
    5.7440    2.2030    0.3860 H   0  0  0  0  0  0  0  0  0  0  0  0
    2.8480    2.1180    3.0900 H   0  0  0  0  0  0  0  0  0  0  0  0
    0.8990    2.6360    1.1100 H   0  0  0  0  0  0  0  0  0  0  0  0
   -2.8540   -5.0590   -1.4470 H   0  0  0  0  0  0  0  0  0  0  0  0
   -0.5130   -6.6510    0.1580 H   0  0  0  0  0  0  0  0  0  0  0  0
  1  6  2  0
  1  2  1  0
  1 34  1  0
  2  3  2  0
  2 35  1  0
  3  4  1  0
  3 33  1  0
  4 32  1  0
  4  5  2  0
  5 36  1  0
  5  6  1  0
  6  7  1  0
  7  8  2  0
  7 17  1  0
  8 20  1  0
  8  9  1  0
  9 10  2  0
  9 11  1  0
 11 12  2  0
 11 16  1  0
 12 19  1  0
 12 13  1  0
 13 37  1  0
 13 14  2  0
 14 15  1  0
 14 18  1  0
 15 16  2  0
 15 38  1  0
 16 17  1  0
 18 39  1  0
 19 40  1  0
 20 21  1  0
 21 41  1  6
 21 26  1  0
 21 22  1  0
 22 23  1  0
 22 42  1  1
 22 31  1  0
 23 24  1  0
 23 43  1  6
 23 30  1  0
 24 25  1  0
 24 29  1  0
 24 44  1  1
 25 27  1  0
 25 45  1  6
 25 26  1  0
 27 46  1  0
 27 28  1  0
 27 47  1  0
 28 48  1  0
 29 49  1  0
 30 50  1  0
 31 51  1  0
 32 52  1  0
 33 53  1  0
M  END
>  <id>  (729) 
838

>  <scaffolds>  (729) 
['c1ccccc1', 'O=c1cc(-c2ccccc2)oc2ccccc12', 'O=c1c(OC2CCCCO2)c(-c2ccccc2)oc2ccccc12', 'C1CCOCC1', 'O=c1ccoc2ccccc12']

>  <name>  (729) 
Isoquercitrin

>  <formula>  (729) 
C21H20O12

>  <SMILES>  (729) 
C1=CC(=C(C=C1C2=C(C(=O)C3=C(C=C(C=C3O2)O)O)O[C@H]4[C@@H]([C@H]([C@@H]([C@H](O4)CO)O)O)O)O)O

>  <ChEMBL_id>  (729) 
SCHEMBL181306

>  <ZINC_id>  (729) 
ZINC4096845

>  <PubChem_id>  (729) 
5280804

>  <DrugBank_id>  (729) 
DB12665

>  <CAS_no>  (729) 
482-35-9

>  <references>  (729) 
[{'journal': {'name': 'Journal of Ethnopharmacology', 'id': 7}, 'title': "Potential of South African medicinal plants targeting the reduction of AB42 protein as a treatment of Alzheimer's disease", 'year': 2019, 'start_page': None, 'volume': None, 'issue': None, 'doi': 'https://doi.org/10.1016/j.jep.2018.11.034', 'isbn': '', 'despositor': {'code': 'BND', 'first_name': "Bakary N'tji", 'last_name': 'Diallo', 'id': 26}, 'refauthors_set': [{'author': {'first_name': 'Anuradha', 'initials': 'AT', 'last_name': 'Thakur', 'id': 988}, 'first_author': True, 'id': 1575}], 'id': 470}]

>  <classifications>  (729) 
[{'classification': 'Flavonoids (Classyfire)', 'id': 941}]

>  <molecular_mass>  (729) 
464.1

$$$$
SANC00839_minRM1.pdb
     RDKit          3D

 97103  0  0  1  0  0  0  0  0999 V2000
   -1.3520    3.5220    0.7130 C   0  0  0  0  0  0  0  0  0  0  0  0
   -0.4550    2.2550    0.7080 C   0  0  1  0  0  0  0  0  0  0  0  0
   -1.1310    0.9900    0.0930 C   0  0  1  0  0  0  0  0  0  0  0  0
   -0.0700    0.0590   -0.5680 C   0  0  1  0  0  0  0  0  0  0  0  0
    1.3000    0.3420    0.0830 C   0  0  2  0  0  0  0  0  0  0  0  0
    1.6380    1.7880   -0.3550 C   0  0  1  0  0  0  0  0  0  0  0  0
    0.5840    2.6730   -0.1530 O   0  0  0  0  0  0  0  0  0  0  0  0
    2.6950    2.1990    0.4780 O   0  0  0  0  0  0  0  0  0  0  0  0
    3.4570    3.2450    0.0360 C   0  0  0  0  0  0  0  0  0  0  0  0
    2.9530    4.0930   -0.6760 O   0  0  0  0  0  0  0  0  0  0  0  0
    4.8650    3.1850    0.4630 C   0  0  0  0  0  0  0  0  0  0  0  0
    5.7320    4.1180   -0.0990 C   0  0  0  0  0  0  0  0  0  0  0  0
    7.0940    4.0360    0.1880 C   0  0  0  0  0  0  0  0  0  0  0  0
    7.5950    3.0410    1.0380 C   0  0  0  0  0  0  0  0  0  0  0  0
    6.6900    2.1320    1.6150 C   0  0  0  0  0  0  0  0  0  0  0  0
    5.3270    2.2000    1.3320 C   0  0  0  0  0  0  0  0  0  0  0  0
    7.2480    1.1960    2.4180 O   0  0  0  0  0  0  0  0  0  0  0  0
    8.9000    2.8400    1.3140 O   0  0  0  0  0  0  0  0  0  0  0  0
    8.0210    4.8740   -0.3430 O   0  0  0  0  0  0  0  0  0  0  0  0
    2.2870   -0.4670   -0.5050 O   0  0  0  0  0  0  0  0  0  0  0  0
    2.6910   -1.5840    0.1710 C   0  0  0  0  0  0  0  0  0  0  0  0
    2.1060   -1.9620    1.1650 O   0  0  0  0  0  0  0  0  0  0  0  0
    3.8800   -2.2120   -0.4290 C   0  0  0  0  0  0  0  0  0  0  0  0
    3.9660   -3.5960   -0.3680 C   0  0  0  0  0  0  0  0  0  0  0  0
    5.1210   -4.2210   -0.8510 C   0  0  0  0  0  0  0  0  0  0  0  0
    6.1730   -3.4600   -1.3790 C   0  0  0  0  0  0  0  0  0  0  0  0
    6.0450   -2.0650   -1.4360 C   0  0  0  0  0  0  0  0  0  0  0  0
    4.9000   -1.4290   -0.9620 C   0  0  0  0  0  0  0  0  0  0  0  0
    7.1040   -1.4090   -1.9730 O   0  0  0  0  0  0  0  0  0  0  0  0
    7.2380   -4.1430   -1.8690 O   0  0  0  0  0  0  0  0  0  0  0  0
    5.1260   -5.5700   -0.7730 O   0  0  0  0  0  0  0  0  0  0  0  0
   -0.3010   -1.2930   -0.2680 O   0  0  0  0  0  0  0  0  0  0  0  0
   -1.3760   -1.9030   -0.8370 C   0  0  0  0  0  0  0  0  0  0  0  0
   -2.0950   -1.2860   -1.6020 O   0  0  0  0  0  0  0  0  0  0  0  0
   -1.4660   -3.3230   -0.4560 C   0  0  0  0  0  0  0  0  0  0  0  0
   -1.0980   -3.7440    0.8120 C   0  0  0  0  0  0  0  0  0  0  0  0
   -1.1850   -5.1090    1.1180 C   0  0  0  0  0  0  0  0  0  0  0  0
   -1.6240   -6.0280    0.1570 C   0  0  0  0  0  0  0  0  0  0  0  0
   -2.0000   -5.5620   -1.1120 C   0  0  0  0  0  0  0  0  0  0  0  0
   -1.9270   -4.2100   -1.4280 C   0  0  0  0  0  0  0  0  0  0  0  0
   -2.4050   -6.5210   -1.9830 O   0  0  0  0  0  0  0  0  0  0  0  0
   -1.7270   -7.3250    0.5450 O   0  0  0  0  0  0  0  0  0  0  0  0
   -0.8290   -5.4430    2.3780 O   0  0  0  0  0  0  0  0  0  0  0  0
   -1.6620    0.1660    1.0930 O   0  0  0  0  0  0  0  0  0  0  0  0
   -2.7500    0.6650    1.7810 C   0  0  0  0  0  0  0  0  0  0  0  0
   -2.5090    1.2390    2.8160 O   0  0  0  0  0  0  0  0  0  0  0  0
   -4.0760    0.2140    1.3110 C   0  0  0  0  0  0  0  0  0  0  0  0
   -4.4750   -0.9840    1.8960 C   0  0  0  0  0  0  0  0  0  0  0  0
   -5.7400   -1.5020    1.6150 C   0  0  0  0  0  0  0  0  0  0  0  0
   -6.6270   -0.7760    0.8090 C   0  0  0  0  0  0  0  0  0  0  0  0
   -6.1990    0.4260    0.2340 C   0  0  0  0  0  0  0  0  0  0  0  0
   -4.8890    0.9070    0.4200 C   0  0  0  0  0  0  0  0  0  0  0  0
   -4.5020    2.0490   -0.4070 C   0  0  0  0  0  0  0  0  0  0  0  0
   -4.6860    1.9480   -1.8060 C   0  0  0  0  0  0  0  0  0  0  0  0
   -4.5680    3.0790   -2.6270 C   0  0  0  0  0  0  0  0  0  0  0  0
   -4.2720    4.3220   -2.0520 C   0  0  0  0  0  0  0  0  0  0  0  0
   -3.9970    4.4180   -0.6920 C   0  0  0  0  0  0  0  0  0  0  0  0
   -4.0720    3.2700    0.0920 C   0  0  0  0  0  0  0  0  0  0  0  0
   -3.6290    3.4100    1.4930 C   0  0  0  0  0  0  0  0  0  0  0  0
   -4.3440    3.5390    2.4620 O   0  0  0  0  0  0  0  0  0  0  0  0
   -2.2870    3.4360    1.7580 O   0  0  0  0  0  0  0  0  0  0  0  0
   -4.2350    5.3670   -2.9100 O   0  0  0  0  0  0  0  0  0  0  0  0
   -4.8510    2.9110   -3.9440 O   0  0  0  0  0  0  0  0  0  0  0  0
   -5.0200    0.7320   -2.2750 O   0  0  0  0  0  0  0  0  0  0  0  0
   -7.1430    1.0500   -0.5130 O   0  0  0  0  0  0  0  0  0  0  0  0
   -7.8380   -1.3400    0.5700 O   0  0  0  0  0  0  0  0  0  0  0  0
   -6.0260   -2.6940    2.1800 O   0  0  0  0  0  0  0  0  0  0  0  0
   -1.7490    3.7170   -0.3060 H   0  0  0  0  0  0  0  0  0  0  0  0
   -0.7410    4.4170    0.9780 H   0  0  0  0  0  0  0  0  0  0  0  0
   -0.0940    2.0470    1.7510 H   0  0  0  0  0  0  0  0  0  0  0  0
   -1.9170    1.2760   -0.6550 H   0  0  0  0  0  0  0  0  0  0  0  0
   -0.0430    0.2280   -1.6780 H   0  0  0  0  0  0  0  0  0  0  0  0
    1.2510    0.2390    1.2030 H   0  0  0  0  0  0  0  0  0  0  0  0
    1.8880    1.8740   -1.4500 H   0  0  0  0  0  0  0  0  0  0  0  0
    5.3510    4.8990   -0.7670 H   0  0  0  0  0  0  0  0  0  0  0  0
    4.6340    1.4870    1.7910 H   0  0  0  0  0  0  0  0  0  0  0  0
    6.5400    0.7000    2.8470 H   0  0  0  0  0  0  0  0  0  0  0  0
    9.3960    3.6410    1.1020 H   0  0  0  0  0  0  0  0  0  0  0  0
    7.5660    5.6390   -0.7130 H   0  0  0  0  0  0  0  0  0  0  0  0
    3.1560   -4.1970    0.0630 H   0  0  0  0  0  0  0  0  0  0  0  0
    4.8020   -0.3410   -1.0070 H   0  0  0  0  0  0  0  0  0  0  0  0
    7.0050   -0.4660   -1.7960 H   0  0  0  0  0  0  0  0  0  0  0  0
    8.0270   -3.5980   -1.7560 H   0  0  0  0  0  0  0  0  0  0  0  0
    5.9910   -5.9110   -1.0320 H   0  0  0  0  0  0  0  0  0  0  0  0
   -0.7340   -3.0370    1.5690 H   0  0  0  0  0  0  0  0  0  0  0  0
   -2.2310   -3.8400   -2.4120 H   0  0  0  0  0  0  0  0  0  0  0  0
   -2.6160   -6.1020   -2.8250 H   0  0  0  0  0  0  0  0  0  0  0  0
   -1.5320   -7.8840   -0.2170 H   0  0  0  0  0  0  0  0  0  0  0  0
   -0.8760   -6.4000    2.4910 H   0  0  0  0  0  0  0  0  0  0  0  0
   -3.8080   -1.5310    2.5730 H   0  0  0  0  0  0  0  0  0  0  0  0
   -3.7370    5.3780   -0.2350 H   0  0  0  0  0  0  0  0  0  0  0  0
   -4.0080    6.1670   -2.4200 H   0  0  0  0  0  0  0  0  0  0  0  0
   -4.2730    3.4960   -4.4500 H   0  0  0  0  0  0  0  0  0  0  0  0
   -4.9800    0.7230   -3.2410 H   0  0  0  0  0  0  0  0  0  0  0  0
   -6.9410    1.9930   -0.5480 H   0  0  0  0  0  0  0  0  0  0  0  0
   -8.4810   -0.6360    0.4220 H   0  0  0  0  0  0  0  0  0  0  0  0
   -6.9070   -2.9820    1.9130 H   0  0  0  0  0  0  0  0  0  0  0  0
  1 68  1  0
  1  2  1  0
  1 69  1  0
  1 61  1  0
  2  7  1  0
  2  3  1  0
  2 70  1  1
  3 71  1  6
  3  4  1  0
  3 44  1  0
  4 72  1  6
  4 32  1  0
  4  5  1  0
  5 20  1  0
  5  6  1  0
  5 73  1  1
  6 74  1  6
  6  7  1  0
  6  8  1  0
  8  9  1  0
  9 10  2  0
  9 11  1  0
 11 12  2  0
 11 16  1  0
 12 75  1  0
 12 13  1  0
 13 19  1  0
 13 14  2  0
 14 18  1  0
 14 15  1  0
 15 16  2  0
 15 17  1  0
 16 76  1  0
 17 77  1  0
 18 78  1  0
 19 79  1  0
 20 21  1  0
 21 23  1  0
 21 22  2  0
 23 28  2  0
 23 24  1  0
 24 25  2  0
 24 80  1  0
 25 26  1  0
 25 31  1  0
 26 30  1  0
 26 27  2  0
 27 29  1  0
 27 28  1  0
 28 81  1  0
 29 82  1  0
 30 83  1  0
 31 84  1  0
 32 33  1  0
 33 34  2  0
 33 35  1  0
 35 40  2  0
 35 36  1  0
 36 37  2  0
 36 85  1  0
 37 38  1  0
 37 43  1  0
 38 39  2  0
 38 42  1  0
 39 41  1  0
 39 40  1  0
 40 86  1  0
 41 87  1  0
 42 88  1  0
 43 89  1  0
 44 45  1  0
 45 47  1  0
 45 46  2  0
 47 52  2  0
 47 48  1  0
 48 49  2  0
 48 90  1  0
 49 50  1  0
 49 67  1  0
 50 51  2  0
 50 66  1  0
 51 65  1  0
 51 52  1  0
 52 53  1  0
 53 54  2  0
 53 58  1  0
 54 55  1  0
 54 64  1  0
 55 63  1  0
 55 56  2  0
 56 62  1  0
 56 57  1  0
 57 91  1  0
 57 58  2  0
 58 59  1  0
 59 61  1  0
 59 60  2  0
 62 92  1  0
 63 93  1  0
 64 94  1  0
 65 95  1  0
 66 96  1  0
 67 97  1  0
M  END
>  <id>  (730) 
839

>  <scaffolds>  (730) 
['c1ccccc1', 'C1CCOCC1', 'O=C(OCC1OC(OC(=O)c2ccccc2)C(OC(=O)c2ccccc2)C(OC(=O)c2ccccc2)C1OC(=O)c1ccccc1)c1ccccc1', 'O=C(OC1OC2COC(=O)c3ccccc3-c3ccccc3C(=O)OC2C(OC(=O)c2ccccc2)C1OC(=O)c1ccccc1)c1ccccc1', 'O=C(OCC1CC(OC(=O)c2ccccc2)C(OC(=O)c2ccccc2)C(OC(=O)c2ccccc2)O1)c1ccccc1']

>  <name>  (730) 
Tellimagrandin II

>  <formula>  (730) 
C41H30O26		

>  <SMILES>  (730) 
C1C2C(C(C(C(O2)OC(=O)C3=CC(=C(C(=C3)O)O)O)OC(=O)C4=CC(=C(C(=C4)O)O)O)OC(=O)C5=CC(=C(C(=C5)O)O)O)OC(=O)C6=CC(=C(C(=C6C7=C(C(=C(C=C7C(=O)O1)O)O)O)O)O)O


>  <ChEMBL_id>  (730) 
SCHEMBL618555

>  <ZINC_id>  (730) 


>  <PubChem_id>  (730) 
151590	

>  <DrugBank_id>  (730) 


>  <CAS_no>  (730) 
81571-72-4

>  <references>  (730) 
[{'journal': {'name': 'Fitoterapia', 'id': 35}, 'title': 'Qualitative and quantitative phytochemical characterization of Myrothamnus flabellifolia Welw.', 'year': 2016, 'start_page': None, 'volume': None, 'issue': None, 'doi': 'https://doi.org/10.1016/j.fitote.2016.08.013', 'isbn': '', 'despositor': {'code': 'BND', 'first_name': "Bakary N'tji", 'last_name': 'Diallo', 'id': 26}, 'refauthors_set': [{'author': {'first_name': 'Claudia ', 'initials': 'CE', 'last_name': 'Engelhardt', 'id': 959}, 'first_author': True, 'id': 1546}], 'id': 435}]

>  <classifications>  (730) 
[{'classification': 'Glucoside', 'id': 881}, {'classification': 'Tannins (Classyfire)', 'id': 1004}]

>  <molecular_mass>  (730) 
938.1

$$$$
SANC00840_minRM1.pdb
     RDKit          3D

 67 71  0  0  1  0  0  0  0  0999 V2000
    5.5560    1.1830   -0.9220 C   0  0  0  0  0  0  0  0  0  0  0  0
    6.0720    2.3530   -1.4620 C   0  0  0  0  0  0  0  0  0  0  0  0
    5.1930    3.3910   -1.7800 C   0  0  0  0  0  0  0  0  0  0  0  0
    3.8150    3.2770   -1.5670 C   0  0  0  0  0  0  0  0  0  0  0  0
    3.3180    2.1050   -1.0220 C   0  0  0  0  0  0  0  0  0  0  0  0
    4.1870    1.0610   -0.7010 C   0  0  0  0  0  0  0  0  0  0  0  0
    3.6420   -0.1620   -0.1210 C   0  0  0  0  0  0  0  0  0  0  0  0
    2.7890   -0.2440    0.9290 C   0  0  0  0  0  0  0  0  0  0  0  0
    2.3120   -1.5320    1.4180 C   0  0  0  0  0  0  0  0  0  0  0  0
    1.5320   -1.6900    2.3600 O   0  0  0  0  0  0  0  0  0  0  0  0
    2.8450   -2.6690    0.7010 C   0  0  0  0  0  0  0  0  0  0  0  0
    2.4780   -3.9850    1.0570 C   0  0  0  0  0  0  0  0  0  0  0  0
    2.9890   -5.0860    0.3680 C   0  0  0  0  0  0  0  0  0  0  0  0
    3.8740   -4.8460   -0.6850 C   0  0  0  0  0  0  0  0  0  0  0  0
    4.2710   -3.5580   -1.0720 C   0  0  0  0  0  0  0  0  0  0  0  0
    3.7360   -2.4930   -0.3570 C   0  0  0  0  0  0  0  0  0  0  0  0
    4.1490   -1.2590   -0.7600 O   0  0  0  0  0  0  0  0  0  0  0  0
    4.3290   -5.9520   -1.3090 O   0  0  0  0  0  0  0  0  0  0  0  0
    1.6360   -4.2440    2.0620 O   0  0  0  0  0  0  0  0  0  0  0  0
    2.4790    0.9180    1.5780 O   0  0  0  0  0  0  0  0  0  0  0  0
    1.1090    1.1470    1.8190 C   0  0  1  0  0  0  0  0  0  0  0  0
    0.9950    2.6820    2.0710 C   0  0  1  0  0  0  0  0  0  0  0  0
   -0.3650    3.2090    1.5290 C   0  0  2  0  0  0  0  0  0  0  0  0
   -1.4320    2.0850    1.4780 C   0  0  1  0  0  0  0  0  0  0  0  0
   -0.9230    0.8460    0.6910 C   0  0  2  0  0  0  0  0  0  0  0  0
    0.4800    0.8240    0.6060 O   0  0  0  0  0  0  0  0  0  0  0  0
   -1.3800    0.8830   -0.7830 C   0  0  0  0  0  0  0  0  0  0  0  0
   -2.7870    0.8280   -0.8400 O   0  0  0  0  0  0  0  0  0  0  0  0
   -3.3990   -0.3770   -0.6940 C   0  0  0  0  0  0  0  0  0  0  0  0
   -2.7460   -1.3810   -0.4770 O   0  0  0  0  0  0  0  0  0  0  0  0
   -4.8650   -0.2880   -0.8110 C   0  0  0  0  0  0  0  0  0  0  0  0
   -5.6190   -1.1770   -0.0570 C   0  0  0  0  0  0  0  0  0  0  0  0
   -7.0150   -1.1250   -0.1490 C   0  0  0  0  0  0  0  0  0  0  0  0
   -7.6380   -0.1960   -0.9940 C   0  0  0  0  0  0  0  0  0  0  0  0
   -6.8440    0.6830   -1.7430 C   0  0  0  0  0  0  0  0  0  0  0  0
   -5.4550    0.6430   -1.6620 C   0  0  0  0  0  0  0  0  0  0  0  0
   -7.5280    1.5420   -2.5400 O   0  0  0  0  0  0  0  0  0  0  0  0
   -8.9940   -0.1630   -0.9760 O   0  0  0  0  0  0  0  0  0  0  0  0
   -7.6800   -2.0030    0.6330 O   0  0  0  0  0  0  0  0  0  0  0  0
   -1.6230    1.7420    2.8200 O   0  0  0  0  0  0  0  0  0  0  0  0
   -0.2340    3.6290    0.2040 O   0  0  0  0  0  0  0  0  0  0  0  0
    1.1450    2.9840    3.4150 O   0  0  0  0  0  0  0  0  0  0  0  0
    5.6000    4.5680   -2.3120 O   0  0  0  0  0  0  0  0  0  0  0  0
    6.2330    0.3610   -0.6670 H   0  0  0  0  0  0  0  0  0  0  0  0
    7.1480    2.4470   -1.6290 H   0  0  0  0  0  0  0  0  0  0  0  0
    3.1470    4.1020   -1.8290 H   0  0  0  0  0  0  0  0  0  0  0  0
    2.2400    2.0000   -0.8490 H   0  0  0  0  0  0  0  0  0  0  0  0
    2.7010   -6.1040    0.6440 H   0  0  0  0  0  0  0  0  0  0  0  0
    4.9640   -3.3850   -1.8970 H   0  0  0  0  0  0  0  0  0  0  0  0
    4.9230   -5.6960   -2.0250 H   0  0  0  0  0  0  0  0  0  0  0  0
    1.3230   -3.4040    2.4820 H   0  0  0  0  0  0  0  0  0  0  0  0
    0.7330    0.5420    2.6910 H   0  0  0  0  0  0  0  0  0  0  0  0
    1.8520    3.2340    1.5970 H   0  0  0  0  0  0  0  0  0  0  0  0
   -0.7380    4.0440    2.1870 H   0  0  0  0  0  0  0  0  0  0  0  0
   -2.3730    2.4850    1.0130 H   0  0  0  0  0  0  0  0  0  0  0  0
   -1.2730   -0.1040    1.1810 H   0  0  0  0  0  0  0  0  0  0  0  0
   -0.8890    0.0800   -1.3790 H   0  0  0  0  0  0  0  0  0  0  0  0
   -1.1450    1.8480   -1.2810 H   0  0  0  0  0  0  0  0  0  0  0  0
   -5.1410   -1.9170    0.5950 H   0  0  0  0  0  0  0  0  0  0  0  0
   -4.8370    1.3310   -2.2470 H   0  0  0  0  0  0  0  0  0  0  0  0
   -6.8950    2.0590   -3.0530 H   0  0  0  0  0  0  0  0  0  0  0  0
   -9.3040    0.0990   -1.8520 H   0  0  0  0  0  0  0  0  0  0  0  0
   -8.6270   -1.9490    0.4580 H   0  0  0  0  0  0  0  0  0  0  0  0
   -2.4410    1.2380    2.8830 H   0  0  0  0  0  0  0  0  0  0  0  0
    0.3040    4.4270    0.2060 H   0  0  0  0  0  0  0  0  0  0  0  0
    0.4610    2.5310    3.9220 H   0  0  0  0  0  0  0  0  0  0  0  0
    6.5590    4.5550   -2.4080 H   0  0  0  0  0  0  0  0  0  0  0  0
  1  2  2  0
  1  6  1  0
  1 44  1  0
  2  3  1  0
  2 45  1  0
  3 43  1  0
  3  4  2  0
  4 46  1  0
  4  5  1  0
  5 47  1  0
  5  6  2  0
  6  7  1  0
  7 17  1  0
  7  8  2  0
  8  9  1  0
  8 20  1  0
  9 11  1  0
  9 10  2  0
 11 16  2  0
 11 12  1  0
 12 13  2  0
 12 19  1  0
 13 14  1  0
 13 48  1  0
 14 18  1  0
 14 15  2  0
 15 49  1  0
 15 16  1  0
 16 17  1  0
 18 50  1  0
 19 51  1  0
 20 21  1  0
 21 26  1  0
 21 22  1  0
 21 52  1  1
 22 23  1  0
 22 53  1  6
 22 42  1  0
 23 41  1  0
 23 24  1  0
 23 54  1  1
 24 25  1  0
 24 55  1  6
 24 40  1  0
 25 27  1  0
 25 26  1  0
 25 56  1  1
 27 57  1  0
 27 58  1  0
 27 28  1  0
 28 29  1  0
 29 31  1  0
 29 30  2  0
 31 36  2  0
 31 32  1  0
 32 33  2  0
 32 59  1  0
 33 34  1  0
 33 39  1  0
 34 35  2  0
 34 38  1  0
 35 37  1  0
 35 36  1  0
 36 60  1  0
 37 61  1  0
 38 62  1  0
 39 63  1  0
 40 64  1  0
 41 65  1  0
 42 66  1  0
 43 67  1  0
M  END
>  <id>  (731) 
840

>  <scaffolds>  (731) 
['c1ccccc1', 'O=c1cc(-c2ccccc2)oc2ccccc12', 'O=c1c(OC2CCCCO2)c(-c2ccccc2)oc2ccccc12', 'C1CCOCC1', 'O=c1ccoc2ccccc12', 'O=C(OCC1CCCC(Oc2c(-c3ccccc3)oc3ccccc3c2=O)O1)c1ccccc1']

>  <name>  (731) 
kaempferol-3-O-beta-d-glucopyranoside

>  <formula>  (731) 
C28H24O15

>  <SMILES>  (731) 
C1=CC(=CC=C1C2=C(C(=O)C3=C(C=C(C=C3O2)O)O)O[C@H]4[C@@H]([C@H]([C@@H]([C@H](O4)COC(=O)C5=CC(=C(C(=C5)O)O)O)O)O)O)O


>  <ChEMBL_id>  (731) 
CHEMBL503183	

>  <ZINC_id>  (731) 
ZINC42804985	

>  <PubChem_id>  (731) 
5491813

>  <DrugBank_id>  (731) 


>  <CAS_no>  (731) 
56317-05-6

>  <references>  (731) 
[{'journal': {'name': 'Fitoterapia', 'id': 35}, 'title': 'Qualitative and quantitative phytochemical characterization of Myrothamnus flabellifolia Welw.', 'year': 2016, 'start_page': None, 'volume': None, 'issue': None, 'doi': 'https://doi.org/10.1016/j.fitote.2016.08.013', 'isbn': '', 'despositor': {'code': 'BND', 'first_name': "Bakary N'tji", 'last_name': 'Diallo', 'id': 26}, 'refauthors_set': [{'author': {'first_name': 'Claudia ', 'initials': 'CE', 'last_name': 'Engelhardt', 'id': 959}, 'first_author': True, 'id': 1546}], 'id': 435}]

>  <classifications>  (731) 
[{'classification': 'Flavonoids', 'id': 776}, {'classification': 'Flavonoids (Classyfire)', 'id': 941}]

>  <molecular_mass>  (731) 
600.11

$$$$
SANC00841_minRM1.pdb
     RDKit          3D

 52 55  0  0  1  0  0  0  0  0999 V2000
    3.4940    1.9720   -0.2650 C   0  0  0  0  0  0  0  0  0  0  0  0
    4.0030    3.2370   -0.0080 C   0  0  0  0  0  0  0  0  0  0  0  0
    3.1930    4.1700    0.6400 C   0  0  0  0  0  0  0  0  0  0  0  0
    1.8870    3.8590    1.0380 C   0  0  0  0  0  0  0  0  0  0  0  0
    1.3930    2.5940    0.7710 C   0  0  0  0  0  0  0  0  0  0  0  0
    2.1930    1.6550    0.1180 C   0  0  0  0  0  0  0  0  0  0  0  0
    1.6470    0.3330   -0.1670 C   0  0  0  0  0  0  0  0  0  0  0  0
    0.4960    0.0640   -0.8310 C   0  0  0  0  0  0  0  0  0  0  0  0
    0.0560   -1.3080   -1.0550 C   0  0  0  0  0  0  0  0  0  0  0  0
   -0.9640   -1.6380   -1.6650 O   0  0  0  0  0  0  0  0  0  0  0  0
    0.9450   -2.3100   -0.5070 C   0  0  0  0  0  0  0  0  0  0  0  0
    0.6470   -3.6840   -0.6250 C   0  0  0  0  0  0  0  0  0  0  0  0
    1.5000   -4.6540   -0.0970 C   0  0  0  0  0  0  0  0  0  0  0  0
    2.6620   -4.2230    0.5470 C   0  0  0  0  0  0  0  0  0  0  0  0
    3.0030   -2.8710    0.6840 C   0  0  0  0  0  0  0  0  0  0  0  0
    2.1210   -1.9410    0.1460 C   0  0  0  0  0  0  0  0  0  0  0  0
    2.4900   -0.6370    0.2940 O   0  0  0  0  0  0  0  0  0  0  0  0
    3.4420   -5.2110    1.0340 O   0  0  0  0  0  0  0  0  0  0  0  0
   -0.4550   -4.1240   -1.2390 O   0  0  0  0  0  0  0  0  0  0  0  0
   -0.1810    1.1090   -1.3920 O   0  0  0  0  0  0  0  0  0  0  0  0
   -1.4640    1.3920   -0.8860 C   0  0  1  0  0  0  0  0  0  0  0  0
   -2.5520    0.9700   -1.9180 C   0  0  1  0  0  0  0  0  0  0  0  0
   -3.8220    0.4690   -1.1810 C   0  0  2  0  0  0  0  0  0  0  0  0
   -3.9680    1.2300    0.1630 C   0  0  2  0  0  0  0  0  0  0  0  0
   -2.7270    1.0000    1.0660 C   0  0  2  0  0  0  0  0  0  0  0  0
   -1.5830    0.6760    0.3070 O   0  0  0  0  0  0  0  0  0  0  0  0
   -2.8490   -0.1890    2.0490 C   0  0  0  0  0  0  0  0  0  0  0  0
   -3.7880    0.2280    3.0000 O   0  0  0  0  0  0  0  0  0  0  0  0
   -5.1710    0.9420    0.7780 O   0  0  0  0  0  0  0  0  0  0  0  0
   -3.7420   -0.8760   -0.8330 O   0  0  0  0  0  0  0  0  0  0  0  0
   -2.8530    2.0250   -2.7700 O   0  0  0  0  0  0  0  0  0  0  0  0
    3.5990    5.4270    0.9340 O   0  0  0  0  0  0  0  0  0  0  0  0
    4.1160    1.2270   -0.7720 H   0  0  0  0  0  0  0  0  0  0  0  0
    5.0230    3.4850   -0.3150 H   0  0  0  0  0  0  0  0  0  0  0  0
    1.2730    4.6060    1.5510 H   0  0  0  0  0  0  0  0  0  0  0  0
    0.3770    2.3260    1.0810 H   0  0  0  0  0  0  0  0  0  0  0  0
    1.2650   -5.7180   -0.1880 H   0  0  0  0  0  0  0  0  0  0  0  0
    3.9160   -2.5470    1.1890 H   0  0  0  0  0  0  0  0  0  0  0  0
    4.2190   -4.8280    1.4590 H   0  0  0  0  0  0  0  0  0  0  0  0
   -0.9850   -3.3650   -1.5890 H   0  0  0  0  0  0  0  0  0  0  0  0
   -1.4530    2.5090   -0.7210 H   0  0  0  0  0  0  0  0  0  0  0  0
   -2.1570    0.2040   -2.6370 H   0  0  0  0  0  0  0  0  0  0  0  0
   -4.7310    0.6480   -1.8210 H   0  0  0  0  0  0  0  0  0  0  0  0
   -4.0700    2.3280   -0.0490 H   0  0  0  0  0  0  0  0  0  0  0  0
   -2.5200    1.9410    1.6470 H   0  0  0  0  0  0  0  0  0  0  0  0
   -1.8580   -0.4050    2.5160 H   0  0  0  0  0  0  0  0  0  0  0  0
   -3.1450   -1.1310    1.5340 H   0  0  0  0  0  0  0  0  0  0  0  0
   -3.8730   -0.4820    3.6430 H   0  0  0  0  0  0  0  0  0  0  0  0
   -5.2140    0.0020    0.9830 H   0  0  0  0  0  0  0  0  0  0  0  0
   -3.4740   -1.3790   -1.6100 H   0  0  0  0  0  0  0  0  0  0  0  0
   -3.2520    2.7400   -2.2630 H   0  0  0  0  0  0  0  0  0  0  0  0
    4.5010    5.5500    0.6150 H   0  0  0  0  0  0  0  0  0  0  0  0
  1 33  1  0
  1  2  2  0
  1  6  1  0
  2 34  1  0
  2  3  1  0
  3 32  1  0
  3  4  2  0
  4  5  1  0
  4 35  1  0
  5  6  2  0
  5 36  1  0
  6  7  1  0
  7  8  2  0
  7 17  1  0
  8 20  1  0
  8  9  1  0
  9 10  2  0
  9 11  1  0
 11 12  2  0
 11 16  1  0
 12 19  1  0
 12 13  1  0
 13 37  1  0
 13 14  2  0
 14 15  1  0
 14 18  1  0
 15 16  2  0
 15 38  1  0
 16 17  1  0
 18 39  1  0
 19 40  1  0
 20 21  1  0
 21 22  1  0
 21 41  1  1
 21 26  1  0
 22 31  1  0
 22 42  1  6
 22 23  1  0
 23 43  1  6
 23 30  1  0
 23 24  1  0
 24 44  1  6
 24 29  1  0
 24 25  1  0
 25 26  1  0
 25 45  1  1
 25 27  1  0
 27 47  1  0
 27 46  1  0
 27 28  1  0
 28 48  1  0
 29 49  1  0
 30 50  1  0
 31 51  1  0
 32 52  1  0
M  END
>  <id>  (732) 
841

>  <scaffolds>  (732) 
['c1ccccc1', 'O=c1cc(-c2ccccc2)oc2ccccc12', 'O=c1c(OC2CCCCO2)c(-c2ccccc2)oc2ccccc12', 'C1CCOCC1', 'O=c1ccoc2ccccc12']

>  <name>  (732) 
Trifolin

>  <formula>  (732) 
C21H20O11

>  <SMILES>  (732) 
C1=CC(=CC=C1C2=C(C(=O)C3=C(C=C(C=C3O2)O)O)O[C@H]4[C@@H]([C@H]([C@H]([C@H](O4)CO)O)O)O)O

>  <ChEMBL_id>  (732) 
SCHEMBL572365

>  <ZINC_id>  (732) 
ZINC4654800

>  <PubChem_id>  (732) 
5282149

>  <DrugBank_id>  (732) 


>  <CAS_no>  (732) 
23627-87-4

>  <references>  (732) 
[{'journal': {'name': 'Fitoterapia', 'id': 35}, 'title': 'Qualitative and quantitative phytochemical characterization of Myrothamnus flabellifolia Welw.', 'year': 2016, 'start_page': None, 'volume': None, 'issue': None, 'doi': 'https://doi.org/10.1016/j.fitote.2016.08.013', 'isbn': '', 'despositor': {'code': 'BND', 'first_name': "Bakary N'tji", 'last_name': 'Diallo', 'id': 26}, 'refauthors_set': [{'author': {'first_name': 'Claudia ', 'initials': 'CE', 'last_name': 'Engelhardt', 'id': 959}, 'first_author': True, 'id': 1546}], 'id': 435}]

>  <classifications>  (732) 
[{'classification': 'Flavonoids', 'id': 776}, {'classification': 'Flavonoids (Classyfire)', 'id': 941}]

>  <molecular_mass>  (732) 
448.1

$$$$
SANC00842_minRM1.pdb
     RDKit          3D

 52 55  0  0  1  0  0  0  0  0999 V2000
    0.1100   -2.4580   -1.9900 C   0  0  0  0  0  0  0  0  0  0  0  0
    1.0300   -3.4840   -2.1620 C   0  0  0  0  0  0  0  0  0  0  0  0
    1.7430   -3.9530   -1.0610 C   0  0  0  0  0  0  0  0  0  0  0  0
    1.5190   -3.4120    0.2170 C   0  0  0  0  0  0  0  0  0  0  0  0
    0.5710   -2.4060    0.3930 C   0  0  0  0  0  0  0  0  0  0  0  0
   -0.1000   -1.9190   -0.7250 C   0  0  0  0  0  0  0  0  0  0  0  0
   -1.0650   -0.8320   -0.5560 C   0  0  0  0  0  0  0  0  0  0  0  0
   -0.8760    0.4790   -0.8060 C   0  0  0  0  0  0  0  0  0  0  0  0
   -1.9550    1.4570   -0.6180 C   0  0  0  0  0  0  0  0  0  0  0  0
   -1.8750    2.6500   -0.8950 O   0  0  0  0  0  0  0  0  0  0  0  0
   -3.1700    0.8830   -0.0820 C   0  0  0  0  0  0  0  0  0  0  0  0
   -4.2890    1.6990    0.1930 C   0  0  0  0  0  0  0  0  0  0  0  0
   -5.4630    1.1550    0.7190 C   0  0  0  0  0  0  0  0  0  0  0  0
   -5.4950   -0.2190    0.9640 C   0  0  0  0  0  0  0  0  0  0  0  0
   -4.4100   -1.0680    0.7050 C   0  0  0  0  0  0  0  0  0  0  0  0
   -3.2620   -0.4830    0.1830 C   0  0  0  0  0  0  0  0  0  0  0  0
   -2.2330   -1.3430   -0.0580 O   0  0  0  0  0  0  0  0  0  0  0  0
   -6.6580   -0.6800    1.4700 O   0  0  0  0  0  0  0  0  0  0  0  0
   -4.2880    3.0140   -0.0360 O   0  0  0  0  0  0  0  0  0  0  0  0
    0.2500    1.0330   -1.3340 O   0  0  0  0  0  0  0  0  0  0  0  0
    1.4960    0.5850   -0.8520 C   0  0  1  0  0  0  0  0  0  0  0  0
    2.4720    1.7470   -1.1910 C   0  0  1  0  0  0  0  0  0  0  0  0
    3.8690    1.4460   -0.5750 C   0  0  2  0  0  0  0  0  0  0  0  0
    3.7350    0.5470    0.6840 C   0  0  1  0  0  0  0  0  0  0  0  0
    2.3670    0.8050    1.3520 C   0  0  2  0  0  0  0  0  0  0  0  0
    1.3320    0.3660    0.5250 O   0  0  0  0  0  0  0  0  0  0  0  0
    2.1390    2.2590    1.7430 C   0  0  0  0  0  0  0  0  0  0  0  0
    1.0970    2.8550    1.5600 O   0  0  0  0  0  0  0  0  0  0  0  0
    3.0790    2.9300    2.4460 O   0  0  0  0  0  0  0  0  0  0  0  0
    3.7980   -0.7570    0.1950 O   0  0  0  0  0  0  0  0  0  0  0  0
    4.4300    2.6300   -0.0920 O   0  0  0  0  0  0  0  0  0  0  0  0
    2.6820    1.7880   -2.5670 O   0  0  0  0  0  0  0  0  0  0  0  0
    2.2400   -3.7560    1.3150 O   0  0  0  0  0  0  0  0  0  0  0  0
    2.6690   -4.9410   -1.1230 O   0  0  0  0  0  0  0  0  0  0  0  0
   -0.4460   -2.0730   -2.8510 H   0  0  0  0  0  0  0  0  0  0  0  0
    1.1920   -3.9070   -3.1580 H   0  0  0  0  0  0  0  0  0  0  0  0
    0.3790   -1.9920    1.3890 H   0  0  0  0  0  0  0  0  0  0  0  0
   -6.3280    1.7890    0.9320 H   0  0  0  0  0  0  0  0  0  0  0  0
   -4.4500   -2.1410    0.9000 H   0  0  0  0  0  0  0  0  0  0  0  0
   -6.5930   -1.6320    1.6120 H   0  0  0  0  0  0  0  0  0  0  0  0
   -3.4130    3.3090   -0.3920 H   0  0  0  0  0  0  0  0  0  0  0  0
    1.7950   -0.3790   -1.3490 H   0  0  0  0  0  0  0  0  0  0  0  0
    2.0570    2.7230   -0.8110 H   0  0  0  0  0  0  0  0  0  0  0  0
    4.5420    0.9490   -1.3300 H   0  0  0  0  0  0  0  0  0  0  0  0
    4.5720    0.7340    1.4110 H   0  0  0  0  0  0  0  0  0  0  0  0
    2.2310    0.1830    2.2780 H   0  0  0  0  0  0  0  0  0  0  0  0
    3.9430    2.5150    2.3590 H   0  0  0  0  0  0  0  0  0  0  0  0
    3.5930   -1.3700    0.9120 H   0  0  0  0  0  0  0  0  0  0  0  0
    4.6150    3.1980   -0.8470 H   0  0  0  0  0  0  0  0  0  0  0  0
    1.8680    2.0980   -2.9800 H   0  0  0  0  0  0  0  0  0  0  0  0
    2.4890   -4.6850    1.2430 H   0  0  0  0  0  0  0  0  0  0  0  0
    2.7170   -5.2640   -2.0300 H   0  0  0  0  0  0  0  0  0  0  0  0
  1 35  1  0
  1  2  2  0
  1  6  1  0
  2 36  1  0
  2  3  1  0
  3 34  1  0
  3  4  2  0
  4  5  1  0
  4 33  1  0
  5  6  2  0
  5 37  1  0
  6  7  1  0
  7  8  2  0
  7 17  1  0
  8 20  1  0
  8  9  1  0
  9 10  2  0
  9 11  1  0
 11 16  2  0
 11 12  1  0
 12 19  1  0
 12 13  2  0
 13 38  1  0
 13 14  1  0
 14 15  2  0
 14 18  1  0
 15 16  1  0
 15 39  1  0
 16 17  1  0
 18 40  1  0
 19 41  1  0
 20 21  1  0
 21 42  1  6
 21 22  1  0
 21 26  1  0
 22 32  1  0
 22 43  1  1
 22 23  1  0
 23 44  1  6
 23 31  1  0
 23 24  1  0
 24 30  1  0
 24 25  1  0
 24 45  1  1
 25 26  1  0
 25 27  1  0
 25 46  1  1
 27 28  2  0
 27 29  1  0
 29 47  1  0
 30 48  1  0
 31 49  1  0
 32 50  1  0
 33 51  1  0
 34 52  1  0
M  END
>  <id>  (733) 
842

>  <scaffolds>  (733) 
['c1ccccc1', 'O=c1cc(-c2ccccc2)oc2ccccc12', 'O=c1c(OC2CCCCO2)c(-c2ccccc2)oc2ccccc12', 'C1CCOCC1', 'O=c1ccoc2ccccc12']

>  <name>  (733) 
Quercituron

>  <formula>  (733) 
C21H18O13

>  <SMILES>  (733) 
C1=CC(=C(C=C1C2=C(C(=O)C3=C(C=C(C=C3O2)O)O)O[C@H]4[C@@H]([C@H]([C@@H]([C@H](O4)C(=O)O)O)O)O)O)O

>  <ChEMBL_id>  (733) 
SCHEMBL578422

>  <ZINC_id>  (733) 
ZINC13515662

>  <PubChem_id>  (733) 
5274585

>  <DrugBank_id>  (733) 


>  <CAS_no>  (733) 
22688-79-5

>  <references>  (733) 
[{'journal': {'name': 'Fitoterapia', 'id': 35}, 'title': 'Qualitative and quantitative phytochemical characterization of Myrothamnus flabellifolia Welw.', 'year': 2016, 'start_page': None, 'volume': None, 'issue': None, 'doi': 'https://doi.org/10.1016/j.fitote.2016.08.013', 'isbn': '', 'despositor': {'code': 'BND', 'first_name': "Bakary N'tji", 'last_name': 'Diallo', 'id': 26}, 'refauthors_set': [{'author': {'first_name': 'Claudia ', 'initials': 'CE', 'last_name': 'Engelhardt', 'id': 959}, 'first_author': True, 'id': 1546}], 'id': 435}]

>  <classifications>  (733) 
[{'classification': 'Glucoside', 'id': 881}, {'classification': 'Flavonoids (Classyfire)', 'id': 941}]

>  <molecular_mass>  (733) 
478.07

$$$$
SANC00843_minRM1.pdb
     RDKit          3D

 51 54  0  0  1  0  0  0  0  0999 V2000
   -0.0880   -2.9280   -0.9210 C   0  0  0  0  0  0  0  0  0  0  0  0
   -1.0410   -3.9310   -1.0200 C   0  0  0  0  0  0  0  0  0  0  0  0
   -1.9090   -4.1420    0.0540 C   0  0  0  0  0  0  0  0  0  0  0  0
   -1.8340   -3.3720    1.2200 C   0  0  0  0  0  0  0  0  0  0  0  0
   -0.8770   -2.3730    1.3030 C   0  0  0  0  0  0  0  0  0  0  0  0
   -0.0120   -2.1460    0.2300 C   0  0  0  0  0  0  0  0  0  0  0  0
    0.9820   -1.0830    0.3300 C   0  0  0  0  0  0  0  0  0  0  0  0
    0.7710    0.1750    0.7890 C   0  0  0  0  0  0  0  0  0  0  0  0
    1.8640    1.1340    0.9020 C   0  0  0  0  0  0  0  0  0  0  0  0
    1.7630    2.2740    1.3590 O   0  0  0  0  0  0  0  0  0  0  0  0
    3.1340    0.6390    0.4180 C   0  0  0  0  0  0  0  0  0  0  0  0
    4.2730    1.4690    0.4090 C   0  0  0  0  0  0  0  0  0  0  0  0
    5.4920    1.0080   -0.0930 C   0  0  0  0  0  0  0  0  0  0  0  0
    5.5490   -0.3010   -0.5760 C   0  0  0  0  0  0  0  0  0  0  0  0
    4.4470   -1.1680   -0.5720 C   0  0  0  0  0  0  0  0  0  0  0  0
    3.2560   -0.6640   -0.0670 C   0  0  0  0  0  0  0  0  0  0  0  0
    2.2070   -1.5360   -0.0690 O   0  0  0  0  0  0  0  0  0  0  0  0
    6.6790   -0.8310   -1.0880 O   0  0  0  0  0  0  0  0  0  0  0  0
    4.2460    2.7230    0.8690 O   0  0  0  0  0  0  0  0  0  0  0  0
   -0.4740    0.5120    1.2340 O   0  0  0  0  0  0  0  0  0  0  0  0
   -1.0850    1.5350    0.4610 C   0  0  1  0  0  0  0  0  0  0  0  0
   -1.4740    0.9680   -0.9320 C   0  0  1  0  0  0  0  0  0  0  0  0
   -2.4550    1.9260   -1.6660 C   0  0  2  0  0  0  0  0  0  0  0  0
   -3.2880    2.7610   -0.6570 C   0  0  1  0  0  0  0  0  0  0  0  0
   -3.4180    1.9860    0.6730 C   0  0  2  0  0  0  0  0  0  0  0  0
   -2.1860    1.8230    1.2920 O   0  0  0  0  0  0  0  0  0  0  0  0
   -4.1640    0.6930    0.4150 C   0  0  0  0  0  0  0  0  0  0  0  0
   -5.2120    0.5930   -0.2030 O   0  0  0  0  0  0  0  0  0  0  0  0
   -3.6070   -0.3840    0.9900 O   0  0  0  0  0  0  0  0  0  0  0  0
   -2.5450    3.9240   -0.4610 O   0  0  0  0  0  0  0  0  0  0  0  0
   -3.2830    1.0650   -2.3870 O   0  0  0  0  0  0  0  0  0  0  0  0
   -0.2730    0.9150   -1.6410 O   0  0  0  0  0  0  0  0  0  0  0  0
   -2.8770   -5.0880    0.0490 O   0  0  0  0  0  0  0  0  0  0  0  0
    0.6020   -2.7540   -1.7530 H   0  0  0  0  0  0  0  0  0  0  0  0
   -1.1000   -4.5390   -1.9260 H   0  0  0  0  0  0  0  0  0  0  0  0
   -2.5170   -3.5630    2.0530 H   0  0  0  0  0  0  0  0  0  0  0  0
   -0.8060   -1.7690    2.2150 H   0  0  0  0  0  0  0  0  0  0  0  0
    6.3620    1.6690   -0.0980 H   0  0  0  0  0  0  0  0  0  0  0  0
    4.5290   -2.1900   -0.9480 H   0  0  0  0  0  0  0  0  0  0  0  0
    7.3850   -0.1730   -1.0600 H   0  0  0  0  0  0  0  0  0  0  0  0
    3.3410    2.9550    1.2010 H   0  0  0  0  0  0  0  0  0  0  0  0
   -0.4700    2.4730    0.3810 H   0  0  0  0  0  0  0  0  0  0  0  0
   -1.9130   -0.0630   -0.8120 H   0  0  0  0  0  0  0  0  0  0  0  0
   -1.8900    2.6200   -2.3510 H   0  0  0  0  0  0  0  0  0  0  0  0
   -4.3130    2.9910   -1.0590 H   0  0  0  0  0  0  0  0  0  0  0  0
   -4.0020    2.5570    1.4450 H   0  0  0  0  0  0  0  0  0  0  0  0
   -4.1210   -1.1860    0.8090 H   0  0  0  0  0  0  0  0  0  0  0  0
   -2.9830    4.4540    0.2120 H   0  0  0  0  0  0  0  0  0  0  0  0
   -3.8840    1.5930   -2.9220 H   0  0  0  0  0  0  0  0  0  0  0  0
   -0.4500    0.4460   -2.4630 H   0  0  0  0  0  0  0  0  0  0  0  0
   -2.8280   -5.5840   -0.7760 H   0  0  0  0  0  0  0  0  0  0  0  0
  1 34  1  0
  1  2  2  0
  1  6  1  0
  2 35  1  0
  2  3  1  0
  3 33  1  0
  3  4  2  0
  4  5  1  0
  4 36  1  0
  5  6  2  0
  5 37  1  0
  6  7  1  0
  7 17  1  0
  7  8  2  0
  8  9  1  0
  8 20  1  0
  9 11  1  0
  9 10  2  0
 11 16  2  0
 11 12  1  0
 12 13  2  0
 12 19  1  0
 13 14  1  0
 13 38  1  0
 14 18  1  0
 14 15  2  0
 15 39  1  0
 15 16  1  0
 16 17  1  0
 18 40  1  0
 19 41  1  0
 20 21  1  0
 21 22  1  0
 21 42  1  6
 21 26  1  0
 22 23  1  0
 22 32  1  0
 22 43  1  1
 23 31  1  0
 23 44  1  6
 23 24  1  0
 24 45  1  6
 24 30  1  0
 24 25  1  0
 25 27  1  0
 25 26  1  0
 25 46  1  1
 27 28  2  0
 27 29  1  0
 29 47  1  0
 30 48  1  0
 31 49  1  0
 32 50  1  0
 33 51  1  0
M  END
>  <id>  (734) 
843

>  <scaffolds>  (734) 
['c1ccccc1', 'O=c1cc(-c2ccccc2)oc2ccccc12', 'O=c1c(OC2CCCCO2)c(-c2ccccc2)oc2ccccc12', 'C1CCOCC1', 'O=c1ccoc2ccccc12']

>  <name>  (734) 
Kaempferol 3-glucuronide

>  <formula>  (734) 
C21H18O12

>  <SMILES>  (734) 
C1=CC(=CC=C1C2=C(C(=O)C3=C(C=C(C=C3O2)O)O)O[C@H]4[C@@H]([C@H]([C@@H]([C@H](O4)C(=O)O)O)O)O)O

>  <ChEMBL_id>  (734) 
SCHEMBL1280014

>  <ZINC_id>  (734) 
ZINC31155995

>  <PubChem_id>  (734) 
5318759

>  <DrugBank_id>  (734) 
nan

>  <CAS_no>  (734) 
22688-78-4

>  <references>  (734) 
[{'journal': {'name': 'Fitoterapia', 'id': 35}, 'title': 'Qualitative and quantitative phytochemical characterization of Myrothamnus flabellifolia Welw.', 'year': 2016, 'start_page': None, 'volume': None, 'issue': None, 'doi': 'https://doi.org/10.1016/j.fitote.2016.08.013', 'isbn': '', 'despositor': {'code': 'BND', 'first_name': "Bakary N'tji", 'last_name': 'Diallo', 'id': 26}, 'refauthors_set': [{'author': {'first_name': 'Claudia ', 'initials': 'CE', 'last_name': 'Engelhardt', 'id': 959}, 'first_author': True, 'id': 1546}], 'id': 435}]

>  <classifications>  (734) 
[{'classification': 'Glucuronides', 'id': 882}, {'classification': 'Flavonoids (Classyfire)', 'id': 941}]

>  <molecular_mass>  (734) 
462.08

$$$$
SANC00844_minRM1.pdb
     RDKit          3D

 99104  0  0  1  0  0  0  0  0999 V2000
    6.4300   -0.9870   -0.9700 C   0  0  0  0  0  0  0  0  0  0  0  0
    5.6690   -1.2700    0.1590 C   0  0  0  0  0  0  0  0  0  0  0  0
    6.2030   -1.2010    1.4400 C   0  0  0  0  0  0  0  0  0  0  0  0
    7.5380   -0.8290    1.5900 C   0  0  0  0  0  0  0  0  0  0  0  0
    8.3410   -0.5500    0.4750 C   0  0  0  0  0  0  0  0  0  0  0  0
    7.7690   -0.6370   -0.8070 C   0  0  0  0  0  0  0  0  0  0  0  0
    8.6110   -0.3770   -1.8340 O   0  0  0  0  0  0  0  0  0  0  0  0
    9.6330   -0.1580    0.5230 O   0  0  0  0  0  0  0  0  0  0  0  0
    8.1560   -0.7250    2.7950 O   0  0  0  0  0  0  0  0  0  0  0  0
    4.2660   -1.6970    0.0330 C   0  0  0  0  0  0  0  0  0  0  0  0
    3.7040   -2.5380    0.7120 O   0  0  0  0  0  0  0  0  0  0  0  0
    3.6000   -1.0480   -0.9590 O   0  0  0  0  0  0  0  0  0  0  0  0
    2.2680   -1.4160   -1.2200 C   0  0  0  0  0  0  0  0  0  0  0  0
    1.3210   -0.8800   -0.1280 C   0  0  2  0  0  0  0  0  0  0  0  0
   -0.1400   -1.3530   -0.4130 C   0  0  2  0  0  0  0  0  0  0  0  0
   -1.0710   -0.6690    0.6180 C   0  0  1  0  0  0  0  0  0  0  0  0
   -0.9020    0.8550    0.3980 C   0  0  2  0  0  0  0  0  0  0  0  0
    0.5890    1.1690    0.7170 C   0  0  1  0  0  0  0  0  0  0  0  0
    1.3840    0.5210   -0.2430 O   0  0  0  0  0  0  0  0  0  0  0  0
    0.7430    2.5310    0.4310 O   0  0  0  0  0  0  0  0  0  0  0  0
    1.9000    3.1440    0.8270 C   0  0  0  0  0  0  0  0  0  0  0  0
    2.8140    2.4960    1.2900 O   0  0  0  0  0  0  0  0  0  0  0  0
    1.8300    4.6020    0.6300 C   0  0  0  0  0  0  0  0  0  0  0  0
    0.7260    5.3020    1.1070 C   0  0  0  0  0  0  0  0  0  0  0  0
    0.6990    6.6840    0.9450 C   0  0  0  0  0  0  0  0  0  0  0  0
    1.7490    7.3550    0.3000 C   0  0  0  0  0  0  0  0  0  0  0  0
    2.8470    6.6190   -0.1640 C   0  0  0  0  0  0  0  0  0  0  0  0
    2.8960    5.2290    0.0040 C   0  0  0  0  0  0  0  0  0  0  0  0
    3.9170    7.1630   -0.7860 O   0  0  0  0  0  0  0  0  0  0  0  0
    1.8110    8.7040    0.1600 O   0  0  0  0  0  0  0  0  0  0  0  0
   -0.3220    7.4710    1.3650 O   0  0  0  0  0  0  0  0  0  0  0  0
   -1.6880    1.5020    1.3610 O   0  0  0  0  0  0  0  0  0  0  0  0
   -2.2380    2.7090    1.0150 C   0  0  0  0  0  0  0  0  0  0  0  0
   -2.4010    3.4680    1.9500 O   0  0  0  0  0  0  0  0  0  0  0  0
   -2.6630    2.9770   -0.3750 C   0  0  0  0  0  0  0  0  0  0  0  0
   -2.2300    4.1500   -0.9780 C   0  0  0  0  0  0  0  0  0  0  0  0
   -2.6650    4.4310   -2.2770 C   0  0  0  0  0  0  0  0  0  0  0  0
   -3.5040    3.5370   -2.9530 C   0  0  0  0  0  0  0  0  0  0  0  0
   -3.9630    2.3880   -2.2970 C   0  0  0  0  0  0  0  0  0  0  0  0
   -3.5280    2.0890   -1.0020 C   0  0  0  0  0  0  0  0  0  0  0  0
   -4.7960    1.4890   -2.8620 O   0  0  0  0  0  0  0  0  0  0  0  0
   -3.9660    3.8420   -4.1990 O   0  0  0  0  0  0  0  0  0  0  0  0
   -2.1930    5.5700   -2.8270 O   0  0  0  0  0  0  0  0  0  0  0  0
   -2.4300   -0.9070    0.3490 O   0  0  0  0  0  0  0  0  0  0  0  0
   -3.0280   -1.9650    0.9700 C   0  0  0  0  0  0  0  0  0  0  0  0
   -2.3660   -2.9190    1.3280 O   0  0  0  0  0  0  0  0  0  0  0  0
   -4.4800   -1.7830    1.1330 C   0  0  0  0  0  0  0  0  0  0  0  0
   -5.3110   -2.8630    0.8810 C   0  0  0  0  0  0  0  0  0  0  0  0
   -6.6850   -2.7190    1.1090 C   0  0  0  0  0  0  0  0  0  0  0  0
   -7.2040   -1.5100    1.5920 C   0  0  0  0  0  0  0  0  0  0  0  0
   -6.3300   -0.4420    1.8400 C   0  0  0  0  0  0  0  0  0  0  0  0
   -4.9640   -0.5650    1.6030 C   0  0  0  0  0  0  0  0  0  0  0  0
   -6.9130    0.6910    2.3060 O   0  0  0  0  0  0  0  0  0  0  0  0
   -8.5360   -1.4830    1.8540 O   0  0  0  0  0  0  0  0  0  0  0  0
   -7.4320   -3.8160    0.8480 O   0  0  0  0  0  0  0  0  0  0  0  0
   -0.1020   -2.7360   -0.1710 O   0  0  0  0  0  0  0  0  0  0  0  0
   -0.8730   -3.5700   -0.9250 C   0  0  0  0  0  0  0  0  0  0  0  0
   -1.7090   -3.1220   -1.6870 O   0  0  0  0  0  0  0  0  0  0  0  0
   -0.5270   -4.9840   -0.7100 C   0  0  0  0  0  0  0  0  0  0  0  0
   -0.1630   -5.4470    0.5480 C   0  0  0  0  0  0  0  0  0  0  0  0
    0.1700   -6.7930    0.6960 C   0  0  0  0  0  0  0  0  0  0  0  0
    0.1460   -7.6680   -0.4040 C   0  0  0  0  0  0  0  0  0  0  0  0
   -0.2360   -7.1640   -1.6550 C   0  0  0  0  0  0  0  0  0  0  0  0
   -0.5820   -5.8240   -1.8170 C   0  0  0  0  0  0  0  0  0  0  0  0
   -0.2220   -8.0610   -2.6770 O   0  0  0  0  0  0  0  0  0  0  0  0
    0.5530   -8.9340   -0.1720 O   0  0  0  0  0  0  0  0  0  0  0  0
    0.5210   -7.3560    1.8760 O   0  0  0  0  0  0  0  0  0  0  0  0
    5.9810   -1.0420   -1.9670 H   0  0  0  0  0  0  0  0  0  0  0  0
    5.5800   -1.4330    2.3100 H   0  0  0  0  0  0  0  0  0  0  0  0
    8.0960   -0.3520   -2.6500 H   0  0  0  0  0  0  0  0  0  0  0  0
    9.9920   -0.3600    1.3960 H   0  0  0  0  0  0  0  0  0  0  0  0
    7.5220   -0.9470    3.4860 H   0  0  0  0  0  0  0  0  0  0  0  0
    2.0760   -0.9470   -2.2090 H   0  0  0  0  0  0  0  0  0  0  0  0
    2.1480   -2.5170   -1.3340 H   0  0  0  0  0  0  0  0  0  0  0  0
    1.6430   -1.2250    0.8920 H   0  0  0  0  0  0  0  0  0  0  0  0
   -0.4470   -1.0870   -1.4600 H   0  0  0  0  0  0  0  0  0  0  0  0
   -0.7950   -0.9680    1.6660 H   0  0  0  0  0  0  0  0  0  0  0  0
   -1.1470    1.1300   -0.6640 H   0  0  0  0  0  0  0  0  0  0  0  0
    0.8680    0.9150    1.7800 H   0  0  0  0  0  0  0  0  0  0  0  0
   -0.0890    4.7750    1.6140 H   0  0  0  0  0  0  0  0  0  0  0  0
    3.7630    4.6620   -0.3500 H   0  0  0  0  0  0  0  0  0  0  0  0
    3.8120    8.1210   -0.8450 H   0  0  0  0  0  0  0  0  0  0  0  0
    0.9130    9.0390    0.0470 H   0  0  0  0  0  0  0  0  0  0  0  0
   -1.0000    6.9140    1.7670 H   0  0  0  0  0  0  0  0  0  0  0  0
   -1.5580    4.8420   -0.4600 H   0  0  0  0  0  0  0  0  0  0  0  0
   -3.8660    1.1710   -0.5070 H   0  0  0  0  0  0  0  0  0  0  0  0
   -5.2020    1.8760   -3.6490 H   0  0  0  0  0  0  0  0  0  0  0  0
   -3.3250    3.4540   -4.8110 H   0  0  0  0  0  0  0  0  0  0  0  0
   -2.7350    5.8040   -3.5920 H   0  0  0  0  0  0  0  0  0  0  0  0
   -4.9100   -3.8160    0.5160 H   0  0  0  0  0  0  0  0  0  0  0  0
   -4.2780    0.2650    1.8010 H   0  0  0  0  0  0  0  0  0  0  0  0
   -6.2330    1.3620    2.4350 H   0  0  0  0  0  0  0  0  0  0  0  0
   -8.8450   -0.5700    1.8090 H   0  0  0  0  0  0  0  0  0  0  0  0
   -8.3620   -3.6330    1.0270 H   0  0  0  0  0  0  0  0  0  0  0  0
   -0.1500   -4.7630    1.4040 H   0  0  0  0  0  0  0  0  0  0  0  0
   -0.8920   -5.4360   -2.7930 H   0  0  0  0  0  0  0  0  0  0  0  0
   -0.7190   -7.6890   -3.4150 H   0  0  0  0  0  0  0  0  0  0  0  0
    0.2190   -9.5040   -0.8760 H   0  0  0  0  0  0  0  0  0  0  0  0
    0.6060   -6.6550    2.5330 H   0  0  0  0  0  0  0  0  0  0  0  0
  1 68  1  0
  1  6  2  0
  1  2  1  0
  2 10  1  0
  2  3  2  0
  3  4  1  0
  3 69  1  0
  4  5  2  0
  4  9  1  0
  5  6  1  0
  5  8  1  0
  6  7  1  0
  7 70  1  0
  8 71  1  0
  9 72  1  0
 10 12  1  0
 10 11  2  0
 12 13  1  0
 13 73  1  0
 13 74  1  0
 13 14  1  0
 14 15  1  0
 14 19  1  0
 14 75  1  1
 15 76  1  6
 15 56  1  0
 15 16  1  0
 16 44  1  0
 16 17  1  0
 16 77  1  1
 17 78  1  6
 17 18  1  0
 17 32  1  0
 18 19  1  0
 18 20  1  0
 18 79  1  1
 20 21  1  0
 21 23  1  0
 21 22  2  0
 23 28  2  0
 23 24  1  0
 24 25  2  0
 24 80  1  0
 25 26  1  0
 25 31  1  0
 26 27  2  0
 26 30  1  0
 27 29  1  0
 27 28  1  0
 28 81  1  0
 29 82  1  0
 30 83  1  0
 31 84  1  0
 32 33  1  0
 33 35  1  0
 33 34  2  0
 35 40  2  0
 35 36  1  0
 36 37  2  0
 36 85  1  0
 37 38  1  0
 37 43  1  0
 38 42  1  0
 38 39  2  0
 39 41  1  0
 39 40  1  0
 40 86  1  0
 41 87  1  0
 42 88  1  0
 43 89  1  0
 44 45  1  0
 45 47  1  0
 45 46  2  0
 47 48  2  0
 47 52  1  0
 48 90  1  0
 48 49  1  0
 49 55  1  0
 49 50  2  0
 50 51  1  0
 50 54  1  0
 51 52  2  0
 51 53  1  0
 52 91  1  0
 53 92  1  0
 54 93  1  0
 55 94  1  0
 56 57  1  0
 57 58  2  0
 57 59  1  0
 59 64  2  0
 59 60  1  0
 60 61  2  0
 60 95  1  0
 61 62  1  0
 61 67  1  0
 62 63  2  0
 62 66  1  0
 63 65  1  0
 63 64  1  0
 64 96  1  0
 65 97  1  0
 66 98  1  0
 67 99  1  0
M  END
>  <id>  (735) 
844

>  <scaffolds>  (735) 
['c1ccccc1', 'C1CCOCC1', 'O=C(OCC1OC(OC(=O)c2ccccc2)C(OC(=O)c2ccccc2)C(OC(=O)c2ccccc2)C1OC(=O)c1ccccc1)c1ccccc1', 'O=C(OCC1CC(OC(=O)c2ccccc2)C(OC(=O)c2ccccc2)C(OC(=O)c2ccccc2)O1)c1ccccc1']

>  <name>  (735) 
Pentagalloylglucose

>  <formula>  (735) 
C41H32O26

>  <SMILES>  (735) 
C1=C(C=C(C(=C1O)O)O)C(=O)OC[C@@H]2[C@H]([C@@H]([C@H]([C@@H](O2)OC(=O)C3=CC(=C(C(=C3)O)O)O)OC(=O)C4=CC(=C(C(=C4)O)O)O)OC(=O)C5=CC(=C(C(=C5)O)O)O)OC(=O)C6=CC(=C(C(=C6)O)O)O


>  <ChEMBL_id>  (735) 
SCHEMBL640108

>  <ZINC_id>  (735) 
ZINC169292785

>  <PubChem_id>  (735) 
65238

>  <DrugBank_id>  (735) 


>  <CAS_no>  (735) 
14937-32-7

>  <references>  (735) 
[{'journal': {'name': 'Fitoterapia', 'id': 35}, 'title': 'Qualitative and quantitative phytochemical characterization of Myrothamnus flabellifolia Welw.', 'year': 2016, 'start_page': None, 'volume': None, 'issue': None, 'doi': 'https://doi.org/10.1016/j.fitote.2016.08.013', 'isbn': '', 'despositor': {'code': 'BND', 'first_name': "Bakary N'tji", 'last_name': 'Diallo', 'id': 26}, 'refauthors_set': [{'author': {'first_name': 'Claudia ', 'initials': 'CE', 'last_name': 'Engelhardt', 'id': 959}, 'first_author': True, 'id': 1546}], 'id': 435}]

>  <classifications>  (735) 
[{'classification': 'Tannins', 'id': 883}, {'classification': 'Tannins (Classyfire)', 'id': 1004}]

>  <molecular_mass>  (735) 
940.12

$$$$
SANC00845_minRM1.pdb
     RDKit          3D

 35 36  0  0  1  0  0  0  0  0999 V2000
   -3.3050   -0.8700   -0.8620 C   0  0  0  0  0  0  0  0  0  0  0  0
   -1.9950   -0.4760   -0.6210 C   0  0  0  0  0  0  0  0  0  0  0  0
   -1.7560    0.6060    0.2210 C   0  0  0  0  0  0  0  0  0  0  0  0
   -2.8050    1.3000    0.8370 C   0  0  0  0  0  0  0  0  0  0  0  0
   -4.1100    0.9020    0.6040 C   0  0  0  0  0  0  0  0  0  0  0  0
   -4.3510   -0.1800   -0.2470 C   0  0  0  0  0  0  0  0  0  0  0  0
   -5.5970   -0.6350   -0.5390 O   0  0  0  0  0  0  0  0  0  0  0  0
   -0.5210    1.0870    0.5680 O   0  0  0  0  0  0  0  0  0  0  0  0
    0.5820    0.6660   -0.1860 C   0  0  1  0  0  0  0  0  0  0  0  0
    1.7430    1.6190    0.2290 C   0  0  1  0  0  0  0  0  0  0  0  0
    3.0770    0.8260    0.3260 C   0  0  2  0  0  0  0  0  0  0  0  0
    3.0810   -0.4080   -0.6160 C   0  0  1  0  0  0  0  0  0  0  0  0
    1.8360   -1.3040   -0.3820 C   0  0  2  0  0  0  0  0  0  0  0  0
    0.8400   -0.6220    0.3310 O   0  0  0  0  0  0  0  0  0  0  0  0
    2.1870   -2.5330    0.4910 C   0  0  0  0  0  0  0  0  0  0  0  0
    1.0650   -3.1210    1.0610 O   0  0  0  0  0  0  0  0  0  0  0  0
    3.0300    0.1280   -1.9030 O   0  0  0  0  0  0  0  0  0  0  0  0
    3.3400    0.4260    1.6290 O   0  0  0  0  0  0  0  0  0  0  0  0
    1.7980    2.5590   -0.7980 O   0  0  0  0  0  0  0  0  0  0  0  0
   -3.5180   -1.7150   -1.5230 H   0  0  0  0  0  0  0  0  0  0  0  0
   -1.1890   -1.0410   -1.0930 H   0  0  0  0  0  0  0  0  0  0  0  0
   -2.5950    2.1450    1.5000 H   0  0  0  0  0  0  0  0  0  0  0  0
   -4.9330    1.4360    1.0860 H   0  0  0  0  0  0  0  0  0  0  0  0
   -6.2380   -0.1160   -0.0410 H   0  0  0  0  0  0  0  0  0  0  0  0
    0.4050    0.6700   -1.3000 H   0  0  0  0  0  0  0  0  0  0  0  0
    1.5310    2.1080    1.2220 H   0  0  0  0  0  0  0  0  0  0  0  0
    3.9530    1.4830    0.0780 H   0  0  0  0  0  0  0  0  0  0  0  0
    4.0210   -1.0000   -0.4420 H   0  0  0  0  0  0  0  0  0  0  0  0
    1.4120   -1.6540   -1.3650 H   0  0  0  0  0  0  0  0  0  0  0  0
    2.7710   -3.2590   -0.1230 H   0  0  0  0  0  0  0  0  0  0  0  0
    2.8240   -2.2740    1.3640 H   0  0  0  0  0  0  0  0  0  0  0  0
    0.3900   -3.2220    0.3820 H   0  0  0  0  0  0  0  0  0  0  0  0
    3.3750   -0.5360   -2.5070 H   0  0  0  0  0  0  0  0  0  0  0  0
    2.5640   -0.0190    1.9920 H   0  0  0  0  0  0  0  0  0  0  0  0
    2.4050    3.2530   -0.5250 H   0  0  0  0  0  0  0  0  0  0  0  0
  1 20  1  0
  1  2  2  0
  1  6  1  0
  2 21  1  0
  2  3  1  0
  3  8  1  0
  3  4  2  0
  4  5  1  0
  4 22  1  0
  5  6  2  0
  5 23  1  0
  6  7  1  0
  7 24  1  0
  8  9  1  0
  9 25  1  6
  9 10  1  0
  9 14  1  0
 10 19  1  0
 10 11  1  0
 10 26  1  1
 11 12  1  0
 11 27  1  6
 11 18  1  0
 12 17  1  0
 12 28  1  6
 12 13  1  0
 13 29  1  6
 13 14  1  0
 13 15  1  0
 15 30  1  0
 15 16  1  0
 15 31  1  0
 16 32  1  0
 17 33  1  0
 18 34  1  0
 19 35  1  0
M  END
>  <id>  (736) 
845

>  <scaffolds>  (736) 
['c1ccccc1', 'C1CCOCC1', 'c1ccc(OC2CCCCO2)cc1']

>  <name>  (736) 
Arbutin

>  <formula>  (736) 
C12H16O7

>  <SMILES>  (736) 
C1=CC(=CC=C1O)O[C@H]2[C@@H]([C@H]([C@@H]([C@H](O2)CO)O)O)O

>  <ChEMBL_id>  (736) 
SCHEMBL36351

>  <ZINC_id>  (736) 
ZINC518554

>  <PubChem_id>  (736) 
440936

>  <DrugBank_id>  (736) 
DB11217

>  <CAS_no>  (736) 
497-76-7

>  <references>  (736) 
[{'journal': {'name': 'Fitoterapia', 'id': 35}, 'title': 'Qualitative and quantitative phytochemical characterization of Myrothamnus flabellifolia Welw.', 'year': 2016, 'start_page': None, 'volume': None, 'issue': None, 'doi': 'https://doi.org/10.1016/j.fitote.2016.08.013', 'isbn': '', 'despositor': {'code': 'BND', 'first_name': "Bakary N'tji", 'last_name': 'Diallo', 'id': 26}, 'refauthors_set': [{'author': {'first_name': 'Claudia ', 'initials': 'CE', 'last_name': 'Engelhardt', 'id': 959}, 'first_author': True, 'id': 1546}], 'id': 435}]

>  <classifications>  (736) 
[{'classification': 'Glucosides', 'id': 884}, {'classification': 'Organooxygen compounds (Classyfire)', 'id': 954}]

>  <molecular_mass>  (736) 
272.09

$$$$
SANC00846_minRM1.pdb
     RDKit          3D

 51 54  0  0  1  0  0  0  0  0999 V2000
   -3.5820   -0.6670    1.3660 C   0  0  0  0  0  0  0  0  0  0  0  0
   -3.6670    0.3230    0.2080 C   0  0  1  0  0  0  0  0  0  0  0  0
   -3.9220    1.7580    0.7380 C   0  0  1  0  0  0  0  0  0  0  0  0
   -3.3740    2.7740   -0.2940 C   0  0  2  0  0  0  0  0  0  0  0  0
   -1.8440    2.5730   -0.4540 C   0  0  2  0  0  0  0  0  0  0  0  0
   -1.4650    1.0830   -0.1770 C   0  0  1  0  0  0  0  0  0  0  0  0
   -2.5120    0.2410   -0.5860 O   0  0  0  0  0  0  0  0  0  0  0  0
   -0.4640    0.7380   -1.1160 O   0  0  0  0  0  0  0  0  0  0  0  0
    0.6770    0.2470   -0.5510 C   0  0  0  0  0  0  0  0  0  0  0  0
    0.8160   -1.0610   -0.2240 C   0  0  0  0  0  0  0  0  0  0  0  0
    1.9980   -1.5910    0.2070 O   0  0  0  0  0  0  0  0  0  0  0  0
    3.1090   -0.7970    0.2150 C   0  0  0  0  0  0  0  0  0  0  0  0
    4.2890   -1.4350    0.5670 C   0  0  0  0  0  0  0  0  0  0  0  0
    5.4510   -0.6480    0.5890 C   0  0  0  0  0  0  0  0  0  0  0  0
    5.4550    0.7150    0.2860 C   0  0  0  0  0  0  0  0  0  0  0  0
    4.2400    1.3150   -0.0540 C   0  0  0  0  0  0  0  0  0  0  0  0
    3.0500    0.5620   -0.1010 C   0  0  0  0  0  0  0  0  0  0  0  0
    1.7960    1.1770   -0.4710 C   0  0  0  0  0  0  0  0  0  0  0  0
    1.7170    2.3900   -0.6820 O   0  0  0  0  0  0  0  0  0  0  0  0
    4.2690    2.6220   -0.3300 O   0  0  0  0  0  0  0  0  0  0  0  0
    6.5730   -1.3140    0.9280 O   0  0  0  0  0  0  0  0  0  0  0  0
   -0.2270   -2.0780   -0.2390 C   0  0  0  0  0  0  0  0  0  0  0  0
   -1.0680   -2.1780   -1.3460 C   0  0  0  0  0  0  0  0  0  0  0  0
   -2.0650   -3.1430   -1.3690 C   0  0  0  0  0  0  0  0  0  0  0  0
   -2.2110   -3.9930   -0.2720 C   0  0  0  0  0  0  0  0  0  0  0  0
   -1.3700   -3.9020    0.8460 C   0  0  0  0  0  0  0  0  0  0  0  0
   -0.3740   -2.9420    0.8500 C   0  0  0  0  0  0  0  0  0  0  0  0
   -3.1560   -4.9580   -0.2020 O   0  0  0  0  0  0  0  0  0  0  0  0
   -1.2480    3.3710    0.5200 O   0  0  0  0  0  0  0  0  0  0  0  0
   -3.7010    4.0250    0.2250 O   0  0  0  0  0  0  0  0  0  0  0  0
   -5.3090    1.8540    0.8390 O   0  0  0  0  0  0  0  0  0  0  0  0
   -2.7960   -0.4220    2.0930 H   0  0  0  0  0  0  0  0  0  0  0  0
   -3.3700   -1.6870    1.0100 H   0  0  0  0  0  0  0  0  0  0  0  0
   -4.5320   -0.7040    1.9170 H   0  0  0  0  0  0  0  0  0  0  0  0
   -4.4670    0.0090   -0.5160 H   0  0  0  0  0  0  0  0  0  0  0  0
   -3.4230    1.9260    1.7310 H   0  0  0  0  0  0  0  0  0  0  0  0
   -3.8750    2.6220   -1.2890 H   0  0  0  0  0  0  0  0  0  0  0  0
   -1.5360    2.8740   -1.4930 H   0  0  0  0  0  0  0  0  0  0  0  0
   -1.1710    0.9190    0.8980 H   0  0  0  0  0  0  0  0  0  0  0  0
    4.3220   -2.4990    0.8120 H   0  0  0  0  0  0  0  0  0  0  0  0
    6.3680    1.3150    0.3090 H   0  0  0  0  0  0  0  0  0  0  0  0
    3.3630    2.9520   -0.5540 H   0  0  0  0  0  0  0  0  0  0  0  0
    7.3260   -0.7100    0.9110 H   0  0  0  0  0  0  0  0  0  0  0  0
   -0.9510   -1.5000   -2.1990 H   0  0  0  0  0  0  0  0  0  0  0  0
   -2.7240   -3.2180   -2.2380 H   0  0  0  0  0  0  0  0  0  0  0  0
   -1.5020   -4.5800    1.6930 H   0  0  0  0  0  0  0  0  0  0  0  0
    0.2940   -2.8610    1.7140 H   0  0  0  0  0  0  0  0  0  0  0  0
   -3.6870   -4.9390   -1.0070 H   0  0  0  0  0  0  0  0  0  0  0  0
   -0.3170    3.4610    0.2880 H   0  0  0  0  0  0  0  0  0  0  0  0
   -3.1680    4.6930   -0.2170 H   0  0  0  0  0  0  0  0  0  0  0  0
   -5.5190    2.7160    1.2120 H   0  0  0  0  0  0  0  0  0  0  0  0
  1  2  1  0
  1 33  1  0
  1 34  1  0
  1 32  1  0
  2  7  1  0
  2 35  1  6
  2  3  1  0
  3  4  1  0
  3 31  1  0
  3 36  1  1
  4 37  1  6
  4  5  1  0
  4 30  1  0
  5 38  1  6
  5  6  1  0
  5 29  1  0
  6  8  1  0
  6  7  1  0
  6 39  1  1
  8  9  1  0
  9 18  1  0
  9 10  2  0
 10 22  1  0
 10 11  1  0
 11 12  1  0
 12 17  2  0
 12 13  1  0
 13 14  2  0
 13 40  1  0
 14 15  1  0
 14 21  1  0
 15 16  2  0
 15 41  1  0
 16 20  1  0
 16 17  1  0
 17 18  1  0
 18 19  2  0
 20 42  1  0
 21 43  1  0
 22 23  2  0
 22 27  1  0
 23 44  1  0
 23 24  1  0
 24 45  1  0
 24 25  2  0
 25 28  1  0
 25 26  1  0
 26 27  2  0
 26 46  1  0
 27 47  1  0
 28 48  1  0
 29 49  1  0
 30 50  1  0
 31 51  1  0
M  END
>  <id>  (737) 
846

>  <scaffolds>  (737) 
['c1ccccc1', 'O=c1cc(-c2ccccc2)oc2ccccc12', 'O=c1c(OC2CCCCO2)c(-c2ccccc2)oc2ccccc12', 'C1CCOCC1', 'O=c1ccoc2ccccc12']

>  <name>  (737) 
Afzelin

>  <formula>  (737) 
C21H20O10

>  <SMILES>  (737) 
C[C@H]1[C@@H]([C@H]([C@H]([C@@H](O1)OC2=C(OC3=CC(=CC(=C3C2=O)O)O)C4=CC=C(C=C4)O)O)O)O

>  <ChEMBL_id>  (737) 
SCHEMBL1689477

>  <ZINC_id>  (737) 
ZINC15657732

>  <PubChem_id>  (737) 
5316673

>  <DrugBank_id>  (737) 


>  <CAS_no>  (737) 
482-39-3

>  <references>  (737) 
[{'journal': {'name': 'Fitoterapia', 'id': 35}, 'title': 'Qualitative and quantitative phytochemical characterization of Myrothamnus flabellifolia Welw.', 'year': 2016, 'start_page': None, 'volume': None, 'issue': None, 'doi': 'https://doi.org/10.1016/j.fitote.2016.08.013', 'isbn': '', 'despositor': {'code': 'BND', 'first_name': "Bakary N'tji", 'last_name': 'Diallo', 'id': 26}, 'refauthors_set': [{'author': {'first_name': 'Claudia ', 'initials': 'CE', 'last_name': 'Engelhardt', 'id': 959}, 'first_author': True, 'id': 1546}], 'id': 435}]

>  <classifications>  (737) 
[{'classification': 'Proanthocyanidins', 'id': 885}, {'classification': 'Flavonoids (Classyfire)', 'id': 941}]

>  <molecular_mass>  (737) 
432.11

$$$$
SANC00847_minRM1.pdb
     RDKit          3D

 53 56  0  0  1  0  0  0  0  0999 V2000
   -0.9760   -1.5430   -1.8860 C   0  0  0  0  0  0  0  0  0  0  0  0
   -2.0530   -2.3940   -2.0960 C   0  0  0  0  0  0  0  0  0  0  0  0
   -2.3350   -3.3850   -1.1590 C   0  0  0  0  0  0  0  0  0  0  0  0
   -1.5430   -3.5250   -0.0060 C   0  0  0  0  0  0  0  0  0  0  0  0
   -0.4610   -2.6730    0.2020 C   0  0  0  0  0  0  0  0  0  0  0  0
   -0.1940   -1.6840   -0.7430 C   0  0  0  0  0  0  0  0  0  0  0  0
    0.9170   -0.7610   -0.5220 C   0  0  0  0  0  0  0  0  0  0  0  0
    0.8630    0.5890   -0.6070 C   0  0  0  0  0  0  0  0  0  0  0  0
    2.0330    1.4170   -0.3450 C   0  0  0  0  0  0  0  0  0  0  0  0
    2.0440    2.6490   -0.3470 O   0  0  0  0  0  0  0  0  0  0  0  0
    3.2320    0.6610   -0.0520 C   0  0  0  0  0  0  0  0  0  0  0  0
    4.4550    1.3170    0.1910 C   0  0  0  0  0  0  0  0  0  0  0  0
    5.6160    0.5910    0.4670 C   0  0  0  0  0  0  0  0  0  0  0  0
    5.5260   -0.8020    0.4990 C   0  0  0  0  0  0  0  0  0  0  0  0
    4.3310   -1.4980    0.2690 C   0  0  0  0  0  0  0  0  0  0  0  0
    3.2040   -0.7340   -0.0050 C   0  0  0  0  0  0  0  0  0  0  0  0
    2.0600   -1.4450   -0.2240 O   0  0  0  0  0  0  0  0  0  0  0  0
    6.5920   -1.5870    0.7570 O   0  0  0  0  0  0  0  0  0  0  0  0
    4.5670    2.6480    0.1730 O   0  0  0  0  0  0  0  0  0  0  0  0
   -0.2870    1.1880   -1.0420 O   0  0  0  0  0  0  0  0  0  0  0  0
   -0.9830    1.8810   -0.0330 C   0  0  1  0  0  0  0  0  0  0  0  0
   -2.2050    2.5060   -0.7660 C   0  0  1  0  0  0  0  0  0  0  0  0
   -3.2210    2.9820    0.3030 C   0  0  2  0  0  0  0  0  0  0  0  0
   -3.5820    1.7830    1.2170 C   0  0  2  0  0  0  0  0  0  0  0  0
   -2.2680    1.2690    1.8440 C   0  0  2  0  0  0  0  0  0  0  0  0
   -1.3850    0.8500    0.8400 O   0  0  0  0  0  0  0  0  0  0  0  0
   -2.4840    0.0280    2.7410 C   0  0  0  0  0  0  0  0  0  0  0  0
   -3.2210   -0.9750    2.1310 O   0  0  0  0  0  0  0  0  0  0  0  0
   -4.0960    0.7360    0.4600 O   0  0  0  0  0  0  0  0  0  0  0  0
   -4.3480    3.3830   -0.4170 O   0  0  0  0  0  0  0  0  0  0  0  0
   -1.7010    3.6170   -1.4360 O   0  0  0  0  0  0  0  0  0  0  0  0
   -1.7190   -4.5000    0.9190 O   0  0  0  0  0  0  0  0  0  0  0  0
   -3.3560   -4.2710   -1.2830 O   0  0  0  0  0  0  0  0  0  0  0  0
   -0.7490   -0.7660   -2.6230 H   0  0  0  0  0  0  0  0  0  0  0  0
   -2.6680   -2.2800   -2.9930 H   0  0  0  0  0  0  0  0  0  0  0  0
    0.1630   -2.7870    1.0950 H   0  0  0  0  0  0  0  0  0  0  0  0
    6.5550    1.1190    0.6500 H   0  0  0  0  0  0  0  0  0  0  0  0
    4.2940   -2.5900    0.3020 H   0  0  0  0  0  0  0  0  0  0  0  0
    7.3720   -1.0360    0.8980 H   0  0  0  0  0  0  0  0  0  0  0  0
    3.6940    3.0710   -0.0340 H   0  0  0  0  0  0  0  0  0  0  0  0
   -0.3580    2.6560    0.4930 H   0  0  0  0  0  0  0  0  0  0  0  0
   -2.6810    1.7540   -1.4530 H   0  0  0  0  0  0  0  0  0  0  0  0
   -2.7850    3.8210    0.9100 H   0  0  0  0  0  0  0  0  0  0  0  0
   -4.2910    2.1040    2.0270 H   0  0  0  0  0  0  0  0  0  0  0  0
   -1.8140    2.0900    2.4660 H   0  0  0  0  0  0  0  0  0  0  0  0
   -3.0800    0.3060    3.6380 H   0  0  0  0  0  0  0  0  0  0  0  0
   -1.4990   -0.3430    3.1130 H   0  0  0  0  0  0  0  0  0  0  0  0
   -2.7840   -1.2150    1.3050 H   0  0  0  0  0  0  0  0  0  0  0  0
   -4.9450    1.0230    0.1060 H   0  0  0  0  0  0  0  0  0  0  0  0
   -4.8670    3.9560    0.1540 H   0  0  0  0  0  0  0  0  0  0  0  0
   -2.3600    3.8800   -2.0860 H   0  0  0  0  0  0  0  0  0  0  0  0
   -2.6450   -4.7710    0.9160 H   0  0  0  0  0  0  0  0  0  0  0  0
   -3.9380   -3.9710   -1.9900 H   0  0  0  0  0  0  0  0  0  0  0  0
  1 34  1  0
  1  2  2  0
  1  6  1  0
  2 35  1  0
  2  3  1  0
  3 33  1  0
  3  4  2  0
  4  5  1  0
  4 32  1  0
  5  6  2  0
  5 36  1  0
  6  7  1  0
  7  8  2  0
  7 17  1  0
  8 20  1  0
  8  9  1  0
  9 10  2  0
  9 11  1  0
 11 16  2  0
 11 12  1  0
 12 19  1  0
 12 13  2  0
 13 14  1  0
 13 37  1  0
 14 15  2  0
 14 18  1  0
 15 16  1  0
 15 38  1  0
 16 17  1  0
 18 39  1  0
 19 40  1  0
 20 21  1  0
 21 22  1  0
 21 41  1  1
 21 26  1  0
 22 42  1  6
 22 31  1  0
 22 23  1  0
 23 30  1  0
 23 43  1  1
 23 24  1  0
 24 29  1  0
 24 25  1  0
 24 44  1  1
 25 26  1  0
 25 45  1  1
 25 27  1  0
 27 28  1  0
 27 47  1  0
 27 46  1  0
 28 48  1  0
 29 49  1  0
 30 50  1  0
 31 51  1  0
 32 52  1  0
 33 53  1  0
M  END
>  <id>  (738) 
847

>  <scaffolds>  (738) 
['c1ccccc1', 'O=c1cc(-c2ccccc2)oc2ccccc12', 'O=c1c(OC2CCCCO2)c(-c2ccccc2)oc2ccccc12', 'C1CCOCC1', 'O=c1ccoc2ccccc12']

>  <name>  (738) 
Hyperoside

>  <formula>  (738) 
C21H20O12

>  <SMILES>  (738) 
C1=CC(=C(C=C1C2=C(C(=O)C3=C(C=C(C=C3O2)O)O)O[C@H]4[C@@H]([C@H]([C@H]([C@H](O4)CO)O)O)O)O)O

>  <ChEMBL_id>  (738) 
SCHEMBL1250514

>  <ZINC_id>  (738) 
ZINC3973253

>  <PubChem_id>  (738) 
5281643

>  <DrugBank_id>  (738) 


>  <CAS_no>  (738) 
482-36-0

>  <references>  (738) 
[{'journal': {'name': 'Fitoterapia', 'id': 35}, 'title': 'Qualitative and quantitative phytochemical characterization of Myrothamnus flabellifolia Welw.', 'year': 2016, 'start_page': None, 'volume': None, 'issue': None, 'doi': 'https://doi.org/10.1016/j.fitote.2016.08.013', 'isbn': '', 'despositor': {'code': 'BND', 'first_name': "Bakary N'tji", 'last_name': 'Diallo', 'id': 26}, 'refauthors_set': [{'author': {'first_name': 'Claudia ', 'initials': 'CE', 'last_name': 'Engelhardt', 'id': 959}, 'first_author': True, 'id': 1546}], 'id': 435}]

>  <classifications>  (738) 
[{'classification': 'Flavonols', 'id': 886}, {'classification': 'Flavonoids (Classyfire)', 'id': 941}]

>  <molecular_mass>  (738) 
464.1

$$$$
SANC00848_minRM1.pdb
     RDKit          3D

 52 55  0  0  1  0  0  0  0  0999 V2000
    0.7980   -3.1580   -1.0360 C   0  0  0  0  0  0  0  0  0  0  0  0
    0.1360   -4.3730   -1.0350 C   0  0  0  0  0  0  0  0  0  0  0  0
   -0.9230   -4.5590   -0.1380 C   0  0  0  0  0  0  0  0  0  0  0  0
   -1.3180   -3.5560    0.7480 C   0  0  0  0  0  0  0  0  0  0  0  0
   -0.6450   -2.3410    0.7340 C   0  0  0  0  0  0  0  0  0  0  0  0
    0.4010   -2.1460   -0.1610 C   0  0  0  0  0  0  0  0  0  0  0  0
    1.1150   -0.8720   -0.1850 C   0  0  0  0  0  0  0  0  0  0  0  0
    0.6700    0.3100   -0.6730 C   0  0  0  0  0  0  0  0  0  0  0  0
    1.5160    1.4970   -0.6810 C   0  0  0  0  0  0  0  0  0  0  0  0
    1.1810    2.6000   -1.1180 O   0  0  0  0  0  0  0  0  0  0  0  0
    2.8330    1.2850   -0.1240 C   0  0  0  0  0  0  0  0  0  0  0  0
    3.7680    2.3400   -0.0570 C   0  0  0  0  0  0  0  0  0  0  0  0
    5.0400    2.1410    0.4820 C   0  0  0  0  0  0  0  0  0  0  0  0
    5.3590    0.8650    0.9510 C   0  0  0  0  0  0  0  0  0  0  0  0
    4.4660   -0.2150    0.9000 C   0  0  0  0  0  0  0  0  0  0  0  0
    3.2120    0.0310    0.3560 C   0  0  0  0  0  0  0  0  0  0  0  0
    2.3740   -1.0440    0.3150 O   0  0  0  0  0  0  0  0  0  0  0  0
    6.6020    0.7410    1.4600 O   0  0  0  0  0  0  0  0  0  0  0  0
    3.4890    3.5690   -0.4990 O   0  0  0  0  0  0  0  0  0  0  0  0
   -0.5470    0.3410   -1.2960 O   0  0  0  0  0  0  0  0  0  0  0  0
   -1.4960    1.2010   -0.7100 C   0  0  1  0  0  0  0  0  0  0  0  0
   -2.7660    1.0120   -1.5920 C   0  0  1  0  0  0  0  0  0  0  0  0
   -3.9680    1.6650   -0.8640 C   0  0  2  0  0  0  0  0  0  0  0  0
   -4.0660    1.0320    0.5480 C   0  0  1  0  0  0  0  0  0  0  0  0
   -2.7290    1.3020    1.2800 C   0  0  2  0  0  0  0  0  0  0  0  0
   -1.6980    0.6620    0.5730 O   0  0  0  0  0  0  0  0  0  0  0  0
   -2.6980    0.7040    2.7050 C   0  0  0  0  0  0  0  0  0  0  0  0
   -3.1120   -0.6220    2.7360 O   0  0  0  0  0  0  0  0  0  0  0  0
   -5.0390    1.6600    1.3220 O   0  0  0  0  0  0  0  0  0  0  0  0
   -5.1610    1.3290   -1.5010 O   0  0  0  0  0  0  0  0  0  0  0  0
   -2.6310    1.7270   -2.7800 O   0  0  0  0  0  0  0  0  0  0  0  0
   -1.5210   -5.7730   -0.1960 O   0  0  0  0  0  0  0  0  0  0  0  0
    1.6310   -2.9910   -1.7270 H   0  0  0  0  0  0  0  0  0  0  0  0
    0.4290   -5.1750   -1.7180 H   0  0  0  0  0  0  0  0  0  0  0  0
   -2.1430   -3.7060    1.4510 H   0  0  0  0  0  0  0  0  0  0  0  0
   -0.9430   -1.5490    1.4310 H   0  0  0  0  0  0  0  0  0  0  0  0
    5.7620    2.9600    0.5350 H   0  0  0  0  0  0  0  0  0  0  0  0
    4.7300   -1.2090    1.2690 H   0  0  0  0  0  0  0  0  0  0  0  0
    6.7400   -0.1660    1.7600 H   0  0  0  0  0  0  0  0  0  0  0  0
    2.5730    3.6090   -0.8720 H   0  0  0  0  0  0  0  0  0  0  0  0
   -1.1710    2.2780   -0.6750 H   0  0  0  0  0  0  0  0  0  0  0  0
   -2.9670   -0.0790   -1.7760 H   0  0  0  0  0  0  0  0  0  0  0  0
   -3.8380    2.7800   -0.7950 H   0  0  0  0  0  0  0  0  0  0  0  0
   -4.2610   -0.0710    0.4470 H   0  0  0  0  0  0  0  0  0  0  0  0
   -2.5460    2.4090    1.3580 H   0  0  0  0  0  0  0  0  0  0  0  0
   -3.2880    1.3610    3.3860 H   0  0  0  0  0  0  0  0  0  0  0  0
   -1.6570    0.6800    3.1000 H   0  0  0  0  0  0  0  0  0  0  0  0
   -4.0740   -0.6330    2.6890 H   0  0  0  0  0  0  0  0  0  0  0  0
   -5.8820    1.5750    0.8630 H   0  0  0  0  0  0  0  0  0  0  0  0
   -5.1430    1.7170   -2.3820 H   0  0  0  0  0  0  0  0  0  0  0  0
   -1.8990    1.3420   -3.2740 H   0  0  0  0  0  0  0  0  0  0  0  0
   -2.2310   -5.8040    0.4550 H   0  0  0  0  0  0  0  0  0  0  0  0
  1 33  1  0
  1  2  2  0
  1  6  1  0
  2 34  1  0
  2  3  1  0
  3 32  1  0
  3  4  2  0
  4  5  1  0
  4 35  1  0
  5  6  2  0
  5 36  1  0
  6  7  1  0
  7  8  2  0
  7 17  1  0
  8 20  1  0
  8  9  1  0
  9 10  2  0
  9 11  1  0
 11 12  2  0
 11 16  1  0
 12 19  1  0
 12 13  1  0
 13 37  1  0
 13 14  2  0
 14 15  1  0
 14 18  1  0
 15 16  2  0
 15 38  1  0
 16 17  1  0
 18 39  1  0
 19 40  1  0
 20 21  1  0
 21 22  1  0
 21 41  1  1
 21 26  1  0
 22 31  1  0
 22 42  1  6
 22 23  1  0
 23 30  1  0
 23 43  1  1
 23 24  1  0
 24 44  1  6
 24 25  1  0
 24 29  1  0
 25 26  1  0
 25 45  1  1
 25 27  1  0
 27 28  1  0
 27 47  1  0
 27 46  1  0
 28 48  1  0
 29 49  1  0
 30 50  1  0
 31 51  1  0
 32 52  1  0
M  END
>  <id>  (739) 
848

>  <scaffolds>  (739) 
['c1ccccc1', 'O=c1cc(-c2ccccc2)oc2ccccc12', 'O=c1c(OC2CCCCO2)c(-c2ccccc2)oc2ccccc12', 'C1CCOCC1', 'O=c1ccoc2ccccc12']

>  <name>  (739) 
Astragalin

>  <formula>  (739) 
C21H20O11

>  <SMILES>  (739) 
C1=CC(=CC=C1C2=C(C(=O)C3=C(C=C(C=C3O2)O)O)O[C@H]4[C@@H]([C@H]([C@@H]([C@H](O4)CO)O)O)O)O

>  <ChEMBL_id>  (739) 
SCHEMBL23897

>  <ZINC_id>  (739) 
ZINC4102435

>  <PubChem_id>  (739) 
5282102

>  <DrugBank_id>  (739) 


>  <CAS_no>  (739) 
480-10-4

>  <references>  (739) 
[{'journal': {'name': 'Fitoterapia', 'id': 35}, 'title': 'Qualitative and quantitative phytochemical characterization of Myrothamnus flabellifolia Welw.', 'year': 2016, 'start_page': None, 'volume': None, 'issue': None, 'doi': 'https://doi.org/10.1016/j.fitote.2016.08.013', 'isbn': '', 'despositor': {'code': 'BND', 'first_name': "Bakary N'tji", 'last_name': 'Diallo', 'id': 26}, 'refauthors_set': [{'author': {'first_name': 'Claudia ', 'initials': 'CE', 'last_name': 'Engelhardt', 'id': 959}, 'first_author': True, 'id': 1546}], 'id': 435}]

>  <classifications>  (739) 
[{'classification': 'Flavonoids (Classyfire)', 'id': 941}]

>  <molecular_mass>  (739) 
448.1

$$$$
SANC00849_minRM1.pdb
     RDKit          3D

 18 18  0  0  0  0  0  0  0  0999 V2000
   -0.3770    1.2140   -0.0960 C   0  0  0  0  0  0  0  0  0  0  0  0
   -1.0160   -0.0220   -0.0520 C   0  0  0  0  0  0  0  0  0  0  0  0
   -0.3040   -1.2140   -0.0040 C   0  0  0  0  0  0  0  0  0  0  0  0
    1.0940   -1.1670    0.0120 C   0  0  0  0  0  0  0  0  0  0  0  0
    1.7650    0.0620   -0.0280 C   0  0  0  0  0  0  0  0  0  0  0  0
    1.0150    1.2450   -0.0900 C   0  0  0  0  0  0  0  0  0  0  0  0
    1.7430    2.3900   -0.1310 O   0  0  0  0  0  0  0  0  0  0  0  0
    3.1210    0.0180   -0.0750 O   0  0  0  0  0  0  0  0  0  0  0  0
    1.7120   -2.3690    0.0600 O   0  0  0  0  0  0  0  0  0  0  0  0
   -2.4850   -0.1160   -0.0690 C   0  0  0  0  0  0  0  0  0  0  0  0
   -3.1580   -1.0770   -0.4050 O   0  0  0  0  0  0  0  0  0  0  0  0
   -3.1150    1.0050    0.3510 O   0  0  0  0  0  0  0  0  0  0  0  0
   -0.9550    2.1420   -0.1390 H   0  0  0  0  0  0  0  0  0  0  0  0
   -0.8180   -2.1830    0.0180 H   0  0  0  0  0  0  0  0  0  0  0  0
    1.1400    3.1410   -0.0820 H   0  0  0  0  0  0  0  0  0  0  0  0
    3.4690    0.8230    0.3270 H   0  0  0  0  0  0  0  0  0  0  0  0
    2.6690   -2.2470    0.0780 H   0  0  0  0  0  0  0  0  0  0  0  0
   -4.0760    0.8930    0.3240 H   0  0  0  0  0  0  0  0  0  0  0  0
  1 13  1  0
  1  6  2  0
  1  2  1  0
  2 10  1  0
  2  3  2  0
  3  4  1  0
  3 14  1  0
  4  5  2  0
  4  9  1  0
  5  6  1  0
  5  8  1  0
  6  7  1  0
  7 15  1  0
  8 16  1  0
  9 17  1  0
 10 11  2  0
 10 12  1  0
 12 18  1  0
M  END
>  <id>  (740) 
849

>  <scaffolds>  (740) 
['c1ccccc1']

>  <name>  (740) 
Gallic acid

>  <formula>  (740) 
C7H6O5

>  <SMILES>  (740) 
C1=C(C=C(C(=C1O)O)O)C(=O)O

>  <ChEMBL_id>  (740) 
SCHEMBL15012

>  <ZINC_id>  (740) 
ZINC1504

>  <PubChem_id>  (740) 
370

>  <DrugBank_id>  (740) 


>  <CAS_no>  (740) 
149-91-7

>  <references>  (740) 
[{'journal': {'name': 'Fitoterapia', 'id': 35}, 'title': 'Qualitative and quantitative phytochemical characterization of Myrothamnus flabellifolia Welw.', 'year': 2016, 'start_page': None, 'volume': None, 'issue': None, 'doi': 'https://doi.org/10.1016/j.fitote.2016.08.013', 'isbn': '', 'despositor': {'code': 'BND', 'first_name': "Bakary N'tji", 'last_name': 'Diallo', 'id': 26}, 'refauthors_set': [{'author': {'first_name': 'Claudia ', 'initials': 'CE', 'last_name': 'Engelhardt', 'id': 959}, 'first_author': True, 'id': 1546}], 'id': 435}]

>  <classifications>  (740) 
[{'classification': 'Carboxylic Acids', 'id': 887}, {'classification': 'Benzene and substituted derivatives (Classyfire)', 'id': 961}]

>  <molecular_mass>  (740) 
170.02

$$$$
SANC00850_minRM1.pdb
     RDKit          3D

 68 72  0  0  1  0  0  0  0  0999 V2000
   -2.9920   -3.2950    1.0200 C   0  0  0  0  0  0  0  0  0  0  0  0
   -2.1410   -4.3810    1.1760 C   0  0  0  0  0  0  0  0  0  0  0  0
   -0.8920   -4.3630    0.5610 C   0  0  0  0  0  0  0  0  0  0  0  0
   -0.4870   -3.2550   -0.2030 C   0  0  0  0  0  0  0  0  0  0  0  0
   -1.3410   -2.1640   -0.3540 C   0  0  0  0  0  0  0  0  0  0  0  0
   -2.5860   -2.1980    0.2650 C   0  0  0  0  0  0  0  0  0  0  0  0
   -3.4910   -1.0590    0.1160 C   0  0  0  0  0  0  0  0  0  0  0  0
   -3.2620    0.2180    0.5000 C   0  0  0  0  0  0  0  0  0  0  0  0
   -4.2800    1.2540    0.3490 C   0  0  0  0  0  0  0  0  0  0  0  0
   -4.1530    2.4180    0.7250 O   0  0  0  0  0  0  0  0  0  0  0  0
   -5.4960    0.7960   -0.2860 C   0  0  0  0  0  0  0  0  0  0  0  0
   -6.5640    1.6830   -0.5210 C   0  0  0  0  0  0  0  0  0  0  0  0
   -7.7410    1.2420   -1.1300 C   0  0  0  0  0  0  0  0  0  0  0  0
   -7.8270   -0.1030   -1.4930 C   0  0  0  0  0  0  0  0  0  0  0  0
   -6.7910   -1.0240   -1.2740 C   0  0  0  0  0  0  0  0  0  0  0  0
   -5.6420   -0.5400   -0.6670 C   0  0  0  0  0  0  0  0  0  0  0  0
   -4.6570   -1.4640   -0.4640 O   0  0  0  0  0  0  0  0  0  0  0  0
   -8.9220   -0.6220   -2.0860 O   0  0  0  0  0  0  0  0  0  0  0  0
   -6.5090    2.9730   -0.1790 O   0  0  0  0  0  0  0  0  0  0  0  0
   -2.1440    0.5460    1.2120 O   0  0  0  0  0  0  0  0  0  0  0  0
   -1.1580    1.1940    0.4280 C   0  0  1  0  0  0  0  0  0  0  0  0
   -1.0630    2.6790    0.8990 C   0  0  1  0  0  0  0  0  0  0  0  0
    0.4010    3.0370    1.2570 C   0  0  2  0  0  0  0  0  0  0  0  0
    1.3370    2.3940    0.2020 C   0  0  2  0  0  0  0  0  0  0  0  0
    1.1750    0.8500    0.2130 C   0  0  2  0  0  0  0  0  0  0  0  0
   -0.0300    0.4540    0.8230 O   0  0  0  0  0  0  0  0  0  0  0  0
    2.2330    0.1020    1.0590 C   0  0  0  0  0  0  0  0  0  0  0  0
    3.4410    0.2930    0.3470 O   0  0  0  0  0  0  0  0  0  0  0  0
    4.5510   -0.3270    0.8250 C   0  0  0  0  0  0  0  0  0  0  0  0
    4.4750   -1.0120    1.8320 O   0  0  0  0  0  0  0  0  0  0  0  0
    5.7620   -0.0700    0.0270 C   0  0  0  0  0  0  0  0  0  0  0  0
    6.9770   -0.4740    0.5730 C   0  0  0  0  0  0  0  0  0  0  0  0
    8.1480   -0.2610   -0.1510 C   0  0  0  0  0  0  0  0  0  0  0  0
    8.1200    0.3520   -1.4100 C   0  0  0  0  0  0  0  0  0  0  0  0
    6.8760    0.7510   -1.9340 C   0  0  0  0  0  0  0  0  0  0  0  0
    5.6980    0.5420   -1.2210 C   0  0  0  0  0  0  0  0  0  0  0  0
    6.9270    1.3340   -3.1550 O   0  0  0  0  0  0  0  0  0  0  0  0
    9.1930    0.5680   -2.2010 O   0  0  0  0  0  0  0  0  0  0  0  0
    9.3790   -0.6300    0.2920 O   0  0  0  0  0  0  0  0  0  0  0  0
    2.6440    2.8220    0.3500 O   0  0  0  0  0  0  0  0  0  0  0  0
    0.8080    2.5130    2.4810 O   0  0  0  0  0  0  0  0  0  0  0  0
   -1.5610    3.5400   -0.0690 O   0  0  0  0  0  0  0  0  0  0  0  0
    0.6890   -3.1770   -0.8720 O   0  0  0  0  0  0  0  0  0  0  0  0
   -0.0010   -5.3840    0.6370 O   0  0  0  0  0  0  0  0  0  0  0  0
   -3.9790   -3.3040    1.4940 H   0  0  0  0  0  0  0  0  0  0  0  0
   -2.4600   -5.2390    1.7740 H   0  0  0  0  0  0  0  0  0  0  0  0
   -1.0270   -1.3040   -0.9520 H   0  0  0  0  0  0  0  0  0  0  0  0
   -8.5580    1.9460   -1.3050 H   0  0  0  0  0  0  0  0  0  0  0  0
   -6.8920   -2.0710   -1.5710 H   0  0  0  0  0  0  0  0  0  0  0  0
   -9.5860    0.0700   -2.2000 H   0  0  0  0  0  0  0  0  0  0  0  0
   -5.6410    3.1880    0.2490 H   0  0  0  0  0  0  0  0  0  0  0  0
   -1.3330    1.1220   -0.6840 H   0  0  0  0  0  0  0  0  0  0  0  0
   -1.7560    2.8740    1.7630 H   0  0  0  0  0  0  0  0  0  0  0  0
    0.5320    4.1540    1.2640 H   0  0  0  0  0  0  0  0  0  0  0  0
    1.0820    2.7870   -0.8180 H   0  0  0  0  0  0  0  0  0  0  0  0
    1.2010    0.4680   -0.8450 H   0  0  0  0  0  0  0  0  0  0  0  0
    1.9800   -0.9800    1.1440 H   0  0  0  0  0  0  0  0  0  0  0  0
    2.3000    0.4860    2.1010 H   0  0  0  0  0  0  0  0  0  0  0  0
    7.0090   -0.9570    1.5560 H   0  0  0  0  0  0  0  0  0  0  0  0
    4.7380    0.8630   -1.6400 H   0  0  0  0  0  0  0  0  0  0  0  0
    6.0320    1.5970   -3.4030 H   0  0  0  0  0  0  0  0  0  0  0  0
    9.9990    0.4340   -1.6860 H   0  0  0  0  0  0  0  0  0  0  0  0
    9.3010   -0.9210    1.2070 H   0  0  0  0  0  0  0  0  0  0  0  0
    2.9540    2.6170    1.2390 H   0  0  0  0  0  0  0  0  0  0  0  0
    0.0720    2.5540    3.1000 H   0  0  0  0  0  0  0  0  0  0  0  0
   -0.9940    3.5070   -0.8480 H   0  0  0  0  0  0  0  0  0  0  0  0
    1.3070   -3.8240   -0.5120 H   0  0  0  0  0  0  0  0  0  0  0  0
   -0.2990   -6.0050    1.3100 H   0  0  0  0  0  0  0  0  0  0  0  0
  1  6  2  0
  1  2  1  0
  1 45  1  0
  2  3  2  0
  2 46  1  0
  3  4  1  0
  3 44  1  0
  4 43  1  0
  4  5  2  0
  5 47  1  0
  5  6  1  0
  6  7  1  0
  7 17  1  0
  7  8  2  0
  8  9  1  0
  8 20  1  0
  9 11  1  0
  9 10  2  0
 11 16  2  0
 11 12  1  0
 12 13  2  0
 12 19  1  0
 13 14  1  0
 13 48  1  0
 14 18  1  0
 14 15  2  0
 15 49  1  0
 15 16  1  0
 16 17  1  0
 18 50  1  0
 19 51  1  0
 20 21  1  0
 21 52  1  6
 21 26  1  0
 21 22  1  0
 22 42  1  0
 22 23  1  0
 22 53  1  1
 23 24  1  0
 23 54  1  1
 23 41  1  0
 24 55  1  6
 24 25  1  0
 24 40  1  0
 25 56  1  6
 25 26  1  0
 25 27  1  0
 27 28  1  0
 27 57  1  0
 27 58  1  0
 28 29  1  0
 29 31  1  0
 29 30  2  0
 31 36  2  0
 31 32  1  0
 32 33  2  0
 32 59  1  0
 33 34  1  0
 33 39  1  0
 34 38  1  0
 34 35  2  0
 35 37  1  0
 35 36  1  0
 36 60  1  0
 37 61  1  0
 38 62  1  0
 39 63  1  0
 40 64  1  0
 41 65  1  0
 42 66  1  0
 43 67  1  0
 44 68  1  0
M  END
>  <id>  (741) 
850

>  <scaffolds>  (741) 
['c1ccccc1', 'O=c1cc(-c2ccccc2)oc2ccccc12', 'O=c1c(OC2CCCCO2)c(-c2ccccc2)oc2ccccc12', 'C1CCOCC1', 'O=c1ccoc2ccccc12', 'O=C(OCC1CCCC(Oc2c(-c3ccccc3)oc3ccccc3c2=O)O1)c1ccccc1']

>  <name>  (741) 
Quercetin 3-O-(6''-galloyl)-beta-D-galactopyranoside

>  <formula>  (741) 
C28H24O16

>  <SMILES>  (741) 
C1=CC(=C(C=C1C2=C(C(=O)C3=C(C=C(C=C3O2)O)O)O[C@H]4[C@@H]([C@H]([C@H]([C@H](O4)COC(=O)C5=CC(=C(C(=C5)O)O)O)O)O)O)O)O

>  <ChEMBL_id>  (741) 


>  <ZINC_id>  (741) 


>  <PubChem_id>  (741) 
5491814

>  <DrugBank_id>  (741) 


>  <CAS_no>  (741) 
53171-28-1

>  <references>  (741) 
[{'journal': {'name': 'Fitoterapia', 'id': 35}, 'title': 'Qualitative and quantitative phytochemical characterization of Myrothamnus flabellifolia Welw.', 'year': 2016, 'start_page': None, 'volume': None, 'issue': None, 'doi': 'https://doi.org/10.1016/j.fitote.2016.08.013', 'isbn': '', 'despositor': {'code': 'BND', 'first_name': "Bakary N'tji", 'last_name': 'Diallo', 'id': 26}, 'refauthors_set': [{'author': {'first_name': 'Claudia ', 'initials': 'CE', 'last_name': 'Engelhardt', 'id': 959}, 'first_author': True, 'id': 1546}], 'id': 435}]

>  <classifications>  (741) 
[{'classification': 'Glycoside', 'id': 781}, {'classification': 'Flavonoids (Classyfire)', 'id': 941}]

>  <molecular_mass>  (741) 
616.11

$$$$
SANC00851_minRM1.pdb
     RDKit          3D

 98 99  0  0  1  0  0  0  0  0999 V2000
   10.6270   -0.9840    1.9570 C   0  0  0  0  0  0  0  0  0  0  0  0
   11.3140    0.0120    1.0900 C   0  0  0  0  0  0  0  0  0  0  0  0
   10.6410    0.8610    0.3100 C   0  0  0  0  0  0  0  0  0  0  0  0
   11.2830    1.8730   -0.5900 C   0  0  1  0  0  0  0  0  0  0  0  0
   12.7820    2.0130   -0.2980 C   0  0  0  0  0  0  0  0  0  0  0  0
   13.4680    0.6720   -0.0210 C   0  0  1  0  0  0  0  0  0  0  0  0
   12.7990   -0.0170    1.1740 C   0  0  0  0  0  0  0  0  0  0  0  0
   13.3670   -0.2230   -1.0880 O   0  0  0  0  0  0  0  0  0  0  0  0
   11.0380    1.4480   -2.0400 C   0  0  0  0  0  0  0  0  0  0  0  0
   10.6360    3.2460   -0.3640 C   0  0  0  0  0  0  0  0  0  0  0  0
    9.1770    0.8520    0.2760 C   0  0  0  0  0  0  0  0  0  0  0  0
    8.4980    0.0640   -0.5570 C   0  0  0  0  0  0  0  0  0  0  0  0
    7.0370    0.0590   -0.5970 C   0  0  0  0  0  0  0  0  0  0  0  0
    6.3680   -1.0980   -0.4950 C   0  0  0  0  0  0  0  0  0  0  0  0
    4.9180   -1.1850   -0.5260 C   0  0  0  0  0  0  0  0  0  0  0  0
    4.2700   -2.1680    0.1090 C   0  0  0  0  0  0  0  0  0  0  0  0
    2.8150   -2.2830    0.1000 C   0  0  0  0  0  0  0  0  0  0  0  0
    2.1710   -2.7150    1.1920 C   0  0  0  0  0  0  0  0  0  0  0  0
    0.7270   -2.8550    1.2770 C   0  0  0  0  0  0  0  0  0  0  0  0
   -0.1070   -1.8470    1.0030 C   0  0  0  0  0  0  0  0  0  0  0  0
   -1.5480   -2.0070    1.1090 C   0  0  0  0  0  0  0  0  0  0  0  0
   -2.3740   -1.0040    1.4400 C   0  0  0  0  0  0  0  0  0  0  0  0
   -1.8930    0.3630    1.7710 C   0  0  0  0  0  0  0  0  0  0  0  0
   -3.8150   -1.2310    1.4870 C   0  0  0  0  0  0  0  0  0  0  0  0
   -4.6880   -0.3600    0.9690 C   0  0  0  0  0  0  0  0  0  0  0  0
   -6.1200   -0.6040    1.0230 C   0  0  0  0  0  0  0  0  0  0  0  0
   -6.9670   -0.1920    0.0700 C   0  0  0  0  0  0  0  0  0  0  0  0
   -6.5210    0.5230   -1.1540 C   0  0  0  0  0  0  0  0  0  0  0  0
   -8.4000   -0.4430    0.2050 C   0  0  0  0  0  0  0  0  0  0  0  0
   -9.3050    0.5040   -0.0490 C   0  0  0  0  0  0  0  0  0  0  0  0
  -10.7770    0.2620    0.0730 C   0  0  1  0  0  0  0  0  0  0  0  0
  -11.4360    1.3790    0.8240 C   0  0  0  0  0  0  0  0  0  0  0  0
  -12.6470    1.8420    0.5210 C   0  0  0  0  0  0  0  0  0  0  0  0
  -13.4470    1.3520   -0.6470 C   0  0  1  0  0  0  0  0  0  0  0  0
  -12.9140    0.0150   -1.1770 C   0  0  0  0  0  0  0  0  0  0  0  0
  -11.3920    0.0700   -1.3290 C   0  0  2  0  0  0  0  0  0  0  0  0
  -10.9050   -1.2520   -1.9220 C   0  0  0  0  0  0  0  0  0  0  0  0
  -10.9920    1.2080   -2.2640 C   0  0  0  0  0  0  0  0  0  0  0  0
  -14.8010    1.2500   -0.3220 O   0  0  0  0  0  0  0  0  0  0  0  0
  -10.6770    1.9200    1.9850 C   0  0  0  0  0  0  0  0  0  0  0  0
    2.1220   -1.9230   -1.1650 C   0  0  0  0  0  0  0  0  0  0  0  0
    6.3640    1.3740   -0.7590 C   0  0  0  0  0  0  0  0  0  0  0  0
    9.5910   -0.7120    2.2070 H   0  0  0  0  0  0  0  0  0  0  0  0
   11.1460   -1.1320    2.9160 H   0  0  0  0  0  0  0  0  0  0  0  0
   10.5870   -1.9670    1.4620 H   0  0  0  0  0  0  0  0  0  0  0  0
   12.9400    2.6650    0.5890 H   0  0  0  0  0  0  0  0  0  0  0  0
   13.2920    2.5520   -1.1230 H   0  0  0  0  0  0  0  0  0  0  0  0
   14.5560    0.8550    0.2140 H   0  0  0  0  0  0  0  0  0  0  0  0
   13.1640   -1.0640    1.2630 H   0  0  0  0  0  0  0  0  0  0  0  0
   13.1200    0.4790    2.1160 H   0  0  0  0  0  0  0  0  0  0  0  0
   13.7040    0.2210   -1.8720 H   0  0  0  0  0  0  0  0  0  0  0  0
   11.6290    2.0370   -2.7560 H   0  0  0  0  0  0  0  0  0  0  0  0
   11.2660    0.3890   -2.2190 H   0  0  0  0  0  0  0  0  0  0  0  0
    9.9850    1.5760   -2.3340 H   0  0  0  0  0  0  0  0  0  0  0  0
    9.5790    3.2750   -0.6660 H   0  0  0  0  0  0  0  0  0  0  0  0
   11.1420    4.0350   -0.9390 H   0  0  0  0  0  0  0  0  0  0  0  0
   10.6630    3.5490    0.6930 H   0  0  0  0  0  0  0  0  0  0  0  0
    8.6870    1.5270    0.9860 H   0  0  0  0  0  0  0  0  0  0  0  0
    9.0030   -0.6240   -1.2440 H   0  0  0  0  0  0  0  0  0  0  0  0
    6.9130   -2.0420   -0.3740 H   0  0  0  0  0  0  0  0  0  0  0  0
    4.3820   -0.4140   -1.0890 H   0  0  0  0  0  0  0  0  0  0  0  0
    4.8100   -2.9310    0.6820 H   0  0  0  0  0  0  0  0  0  0  0  0
    2.7170   -3.0010    2.0980 H   0  0  0  0  0  0  0  0  0  0  0  0
    0.3680   -3.8350    1.6120 H   0  0  0  0  0  0  0  0  0  0  0  0
    0.2680   -0.8670    0.6880 H   0  0  0  0  0  0  0  0  0  0  0  0
   -1.9430   -3.0060    0.8920 H   0  0  0  0  0  0  0  0  0  0  0  0
   -1.0100    0.3470    2.4280 H   0  0  0  0  0  0  0  0  0  0  0  0
   -2.6480    0.9680    2.2950 H   0  0  0  0  0  0  0  0  0  0  0  0
   -1.6110    0.9180    0.8630 H   0  0  0  0  0  0  0  0  0  0  0  0
   -4.1420   -2.1650    1.9570 H   0  0  0  0  0  0  0  0  0  0  0  0
   -4.3570    0.5680    0.4890 H   0  0  0  0  0  0  0  0  0  0  0  0
   -6.4880   -1.1460    1.9020 H   0  0  0  0  0  0  0  0  0  0  0  0
   -7.2870    0.5400   -1.9450 H   0  0  0  0  0  0  0  0  0  0  0  0
   -5.6290    0.0620   -1.6050 H   0  0  0  0  0  0  0  0  0  0  0  0
   -6.2670    1.5720   -0.9340 H   0  0  0  0  0  0  0  0  0  0  0  0
   -8.6810   -1.4500    0.5310 H   0  0  0  0  0  0  0  0  0  0  0  0
   -9.0090    1.5130   -0.3560 H   0  0  0  0  0  0  0  0  0  0  0  0
  -10.9690   -0.6660    0.6790 H   0  0  0  0  0  0  0  0  0  0  0  0
  -13.1220    2.6370    1.1060 H   0  0  0  0  0  0  0  0  0  0  0  0
  -13.4510    2.1320   -1.4550 H   0  0  0  0  0  0  0  0  0  0  0  0
  -13.2050   -0.8200   -0.5040 H   0  0  0  0  0  0  0  0  0  0  0  0
  -13.4030   -0.2320   -2.1420 H   0  0  0  0  0  0  0  0  0  0  0  0
  -11.2210   -2.1230   -1.3300 H   0  0  0  0  0  0  0  0  0  0  0  0
   -9.8090   -1.3020   -1.9910 H   0  0  0  0  0  0  0  0  0  0  0  0
  -11.2910   -1.4100   -2.9400 H   0  0  0  0  0  0  0  0  0  0  0  0
  -11.0670    2.1970   -1.7890 H   0  0  0  0  0  0  0  0  0  0  0  0
   -9.9540    1.1150   -2.6180 H   0  0  0  0  0  0  0  0  0  0  0  0
  -11.6200    1.2380   -3.1670 H   0  0  0  0  0  0  0  0  0  0  0  0
  -14.8910    0.6620    0.4340 H   0  0  0  0  0  0  0  0  0  0  0  0
   -9.9580    2.6890    1.6640 H   0  0  0  0  0  0  0  0  0  0  0  0
  -10.1000    1.1420    2.5080 H   0  0  0  0  0  0  0  0  0  0  0  0
  -11.3220    2.3900    2.7430 H   0  0  0  0  0  0  0  0  0  0  0  0
    1.1590   -2.4410   -1.2920 H   0  0  0  0  0  0  0  0  0  0  0  0
    1.9120   -0.8430   -1.2150 H   0  0  0  0  0  0  0  0  0  0  0  0
    2.7240   -2.1710   -2.0520 H   0  0  0  0  0  0  0  0  0  0  0  0
    7.0620    2.2240   -0.7640 H   0  0  0  0  0  0  0  0  0  0  0  0
    5.8120    1.4290   -1.7110 H   0  0  0  0  0  0  0  0  0  0  0  0
    5.6390    1.5670    0.0460 H   0  0  0  0  0  0  0  0  0  0  0  0
  1  2  1  0
  1 45  1  0
  1 43  1  0
  1 44  1  0
  2  3  2  0
  2  7  1  0
  3  4  1  0
  3 11  1  0
  4  9  1  6
  4 10  1  0
  4  5  1  0
  5 47  1  0
  5  6  1  0
  5 46  1  0
  6  8  1  0
  6 48  1  1
  6  7  1  0
  7 49  1  0
  7 50  1  0
  8 51  1  0
  9 52  1  0
  9 54  1  0
  9 53  1  0
 10 56  1  0
 10 55  1  0
 10 57  1  0
 11 12  2  0
 11 58  1  0
 12 59  1  0
 12 13  1  0
 13 42  1  0
 13 14  2  0
 14 15  1  0
 14 60  1  0
 15 61  1  0
 15 16  2  0
 16 17  1  0
 16 62  1  0
 17 41  1  0
 17 18  2  0
 18 19  1  0
 18 63  1  0
 19 20  2  0
 19 64  1  0
 20 65  1  0
 20 21  1  0
 21 66  1  0
 21 22  2  0
 22 24  1  0
 22 23  1  0
 23 69  1  0
 23 68  1  0
 23 67  1  0
 24 25  2  0
 24 70  1  0
 25 71  1  0
 25 26  1  0
 26 27  2  0
 26 72  1  0
 27 28  1  0
 27 29  1  0
 28 73  1  0
 28 74  1  0
 28 75  1  0
 29 30  2  0
 29 76  1  0
 30 77  1  0
 30 31  1  0
 31 36  1  0
 31 78  1  1
 31 32  1  0
 32 33  2  0
 32 40  1  0
 33 34  1  0
 33 79  1  0
 34 80  1  6
 34 35  1  0
 34 39  1  0
 35 82  1  0
 35 36  1  0
 35 81  1  0
 36 38  1  6
 36 37  1  0
 37 85  1  0
 37 84  1  0
 37 83  1  0
 38 88  1  0
 38 87  1  0
 38 86  1  0
 39 89  1  0
 40 90  1  0
 40 91  1  0
 40 92  1  0
 41 95  1  0
 41 93  1  0
 41 94  1  0
 42 97  1  0
 42 96  1  0
 42 98  1  0
M  END
>  <id>  (742) 
851

>  <scaffolds>  (742) 
['C1=CCCCC1', 'C(=CC=CC=CC=CC=CC1C=CCCC1)C=CC=CC=CC=CC1=CCCCC1']

>  <name>  (742) 
Lutein

>  <formula>  (742) 
C40H56O2

>  <SMILES>  (742) 
CC1=C(C(C[C@@H](C1)O)(C)C)/C=C/C(=C/C=C/C(=C/C=C/C=C(C)/C=C/C=C(C)/C=C/[C@H]2C(=C[C@@H](CC2(C)C)O)C)/C)/C

>  <ChEMBL_id>  (742) 
CHEMBL173929

>  <ZINC_id>  (742) 
ZINC8221225

>  <PubChem_id>  (742) 
5281243

>  <DrugBank_id>  (742) 
DB00137

>  <CAS_no>  (742) 
127-40-2

>  <references>  (742) 
[{'journal': {'name': 'BMC Complementary Medicine and Therapies', 'id': 48}, 'title': 'Fractions and isolated compounds from Oxyanthus speciosus subsp. stenocarpus (Rubiaceae) have promising antimycobacterial and intracellular activity', 'year': 2019, 'start_page': None, 'volume': None, 'issue': None, 'doi': '10.1186/s12906-019-2520-x', 'isbn': '', 'despositor': {'code': 'BND', 'first_name': "Bakary N'tji", 'last_name': 'Diallo', 'id': 26}, 'refauthors_set': [{'author': {'first_name': 'Abimbola O', 'initials': 'A,O.A', 'last_name': 'Aro', 'id': 1095}, 'first_author': True, 'id': 1678}], 'id': 473}]

>  <classifications>  (742) 
[{'classification': 'Terpenes', 'id': 888}, {'classification': 'Phenol lipids (Classyfire)', 'id': 951}]

>  <molecular_mass>  (742) 
568.43

$$$$
SANC00852_minRM1.pdb
     RDKit          3D

 24 24  0  0  0  0  0  0  0  0999 V2000
   -5.5060   -0.3970    0.2240 C   0  0  0  0  0  0  0  0  0  0  0  0
   -4.1440   -0.7270    0.3630 O   0  0  0  0  0  0  0  0  0  0  0  0
   -3.2370    0.2240    0.0140 C   0  0  0  0  0  0  0  0  0  0  0  0
   -3.6170    1.3110   -0.3910 O   0  0  0  0  0  0  0  0  0  0  0  0
   -1.8540   -0.2360    0.1860 C   0  0  0  0  0  0  0  0  0  0  0  0
   -0.8530    0.5130   -0.2870 C   0  0  0  0  0  0  0  0  0  0  0  0
    0.5440    0.1130   -0.1730 C   0  0  0  0  0  0  0  0  0  0  0  0
    1.5050    1.0980    0.0580 C   0  0  0  0  0  0  0  0  0  0  0  0
    2.8420    0.7310    0.1500 C   0  0  0  0  0  0  0  0  0  0  0  0
    3.2260   -0.6140    0.0060 C   0  0  0  0  0  0  0  0  0  0  0  0
    2.2560   -1.5890   -0.2260 C   0  0  0  0  0  0  0  0  0  0  0  0
    0.9210   -1.2200   -0.3140 C   0  0  0  0  0  0  0  0  0  0  0  0
    4.5000   -1.0610    0.0860 O   0  0  0  0  0  0  0  0  0  0  0  0
    3.8500    1.6110    0.3940 O   0  0  0  0  0  0  0  0  0  0  0  0
   -5.8050    0.4500    0.8630 H   0  0  0  0  0  0  0  0  0  0  0  0
   -6.0340   -1.3060    0.5470 H   0  0  0  0  0  0  0  0  0  0  0  0
   -5.7820   -0.1620   -0.8180 H   0  0  0  0  0  0  0  0  0  0  0  0
   -1.7060   -1.1860    0.7110 H   0  0  0  0  0  0  0  0  0  0  0  0
   -1.0410    1.4730   -0.7870 H   0  0  0  0  0  0  0  0  0  0  0  0
    1.2030    2.1440    0.1700 H   0  0  0  0  0  0  0  0  0  0  0  0
    2.5540   -2.6370   -0.3390 H   0  0  0  0  0  0  0  0  0  0  0  0
    0.1690   -1.9910   -0.5120 H   0  0  0  0  0  0  0  0  0  0  0  0
    5.1060   -0.3150    0.1660 H   0  0  0  0  0  0  0  0  0  0  0  0
    3.5010    2.5050    0.3190 H   0  0  0  0  0  0  0  0  0  0  0  0
  1 17  1  0
  1  2  1  0
  1 16  1  0
  1 15  1  0
  2  3  1  0
  3  4  2  0
  3  5  1  0
  5  6  2  0
  5 18  1  0
  6 19  1  0
  6  7  1  0
  7 12  2  0
  7  8  1  0
  8  9  2  0
  8 20  1  0
  9 10  1  0
  9 14  1  0
 10 11  2  0
 10 13  1  0
 11 21  1  0
 11 12  1  0
 12 22  1  0
 13 23  1  0
 14 24  1  0
M  END
>  <id>  (743) 
852

>  <scaffolds>  (743) 
['c1ccccc1']

>  <name>  (743) 
Methyl caffeate

>  <formula>  (743) 
C10H10O4

>  <SMILES>  (743) 
COC(=O)/C=C/C1=CC(=C(C=C1)O)O

>  <ChEMBL_id>  (743) 
CHEMBL17001

>  <ZINC_id>  (743) 
ZINC58222

>  <PubChem_id>  (743) 
689075

>  <DrugBank_id>  (743) 


>  <CAS_no>  (743) 
67667-67-8

>  <references>  (743) 
[{'journal': {'name': 'Fitoterapia', 'id': 35}, 'title': 'First identification of natural products from the African medicinal plant Zamioculcas zamiifolia — A drought resistant survivor through millions of years', 'year': 2015, 'start_page': None, 'volume': None, 'issue': None, 'doi': 'https://doi.org/10.1016/j.fitote.2015.09.011', 'isbn': '', 'despositor': {'code': 'BND', 'first_name': "Bakary N'tji", 'last_name': 'Diallo', 'id': 26}, 'refauthors_set': [{'author': {'first_name': 'Angharad Le ', 'initials': 'ALM', 'last_name': 'Moullec', 'id': 963}, 'first_author': True, 'id': 1550}], 'id': 439}]

>  <classifications>  (743) 
[{'classification': 'Caffeic Acids', 'id': 889}, {'classification': 'Cinnamic acids and derivatives (Classyfire)', 'id': 975}]

>  <molecular_mass>  (743) 
194.06

$$$$
SANC00853_minRM1.pdb
     RDKit          3D

 42 43  0  0  1  0  0  0  0  0999 V2000
   -4.5970    0.0270   -1.3170 C   0  0  0  0  0  0  0  0  0  0  0  0
   -5.9700   -0.0850   -1.1470 C   0  0  0  0  0  0  0  0  0  0  0  0
   -6.4720   -0.7750   -0.0420 C   0  0  0  0  0  0  0  0  0  0  0  0
   -5.5860   -1.3460    0.8830 C   0  0  0  0  0  0  0  0  0  0  0  0
   -4.2110   -1.2280    0.7120 C   0  0  0  0  0  0  0  0  0  0  0  0
   -3.7210   -0.5400   -0.3940 C   0  0  0  0  0  0  0  0  0  0  0  0
   -2.2440   -0.4170   -0.5750 C   0  0  0  0  0  0  0  0  0  0  0  0
   -1.7150    0.6500    0.3920 C   0  0  2  0  0  0  0  0  0  0  0  0
   -1.9310    2.0570   -0.1540 C   0  0  0  0  0  0  0  0  0  0  0  0
   -2.6750    2.3520   -1.0660 O   0  0  0  0  0  0  0  0  0  0  0  0
   -1.2870    3.0950    0.4310 O   0  0  0  0  0  0  0  0  0  0  0  0
   -0.3650    0.4470    0.7270 O   0  0  0  0  0  0  0  0  0  0  0  0
    0.5850    0.5150   -0.2520 C   0  0  0  0  0  0  0  0  0  0  0  0
    0.2730    0.8460   -1.3810 O   0  0  0  0  0  0  0  0  0  0  0  0
    1.9180    0.1830    0.2580 C   0  0  0  0  0  0  0  0  0  0  0  0
    2.9830    0.3700   -0.5300 C   0  0  0  0  0  0  0  0  0  0  0  0
    4.3380    0.0690   -0.0860 C   0  0  0  0  0  0  0  0  0  0  0  0
    5.2300   -0.5020   -1.0000 C   0  0  0  0  0  0  0  0  0  0  0  0
    6.5230   -0.7920   -0.5930 C   0  0  0  0  0  0  0  0  0  0  0  0
    6.9340   -0.5010    0.7270 C   0  0  0  0  0  0  0  0  0  0  0  0
    6.0430    0.0760    1.6220 C   0  0  0  0  0  0  0  0  0  0  0  0
    4.7420    0.3580    1.2100 C   0  0  0  0  0  0  0  0  0  0  0  0
    8.2150   -0.8190    1.0200 O   0  0  0  0  0  0  0  0  0  0  0  0
    7.4680   -1.3550   -1.3830 O   0  0  0  0  0  0  0  0  0  0  0  0
   -6.1460   -1.9540    1.9670 O   0  0  0  0  0  0  0  0  0  0  0  0
   -7.8210   -0.8280    0.0540 O   0  0  0  0  0  0  0  0  0  0  0  0
   -4.2090    0.5760   -2.1820 H   0  0  0  0  0  0  0  0  0  0  0  0
   -6.6590    0.3650   -1.8690 H   0  0  0  0  0  0  0  0  0  0  0  0
   -3.5240   -1.6770    1.4350 H   0  0  0  0  0  0  0  0  0  0  0  0
   -1.7440   -1.3910   -0.3810 H   0  0  0  0  0  0  0  0  0  0  0  0
   -1.9840   -0.1790   -1.6290 H   0  0  0  0  0  0  0  0  0  0  0  0
   -2.2100    0.5660    1.3980 H   0  0  0  0  0  0  0  0  0  0  0  0
   -0.7480    2.7970    1.1720 H   0  0  0  0  0  0  0  0  0  0  0  0
    1.9810   -0.2230    1.2730 H   0  0  0  0  0  0  0  0  0  0  0  0
    2.8830    0.7570   -1.5550 H   0  0  0  0  0  0  0  0  0  0  0  0
    4.9010   -0.7190   -2.0210 H   0  0  0  0  0  0  0  0  0  0  0  0
    6.3490    0.3140    2.6450 H   0  0  0  0  0  0  0  0  0  0  0  0
    4.0510    0.8250    1.9190 H   0  0  0  0  0  0  0  0  0  0  0  0
    8.3890   -0.5720    1.9360 H   0  0  0  0  0  0  0  0  0  0  0  0
    7.0920   -1.4810   -2.2630 H   0  0  0  0  0  0  0  0  0  0  0  0
   -5.5750   -2.6880    2.2150 H   0  0  0  0  0  0  0  0  0  0  0  0
   -8.0720   -1.3480    0.8260 H   0  0  0  0  0  0  0  0  0  0  0  0
  1 27  1  0
  1  2  2  0
  1  6  1  0
  2 28  1  0
  2  3  1  0
  3 26  1  0
  3  4  2  0
  4  5  1  0
  4 25  1  0
  5  6  2  0
  5 29  1  0
  6  7  1  0
  7 31  1  0
  7 30  1  0
  7  8  1  0
  8  9  1  0
  8 12  1  0
  8 32  1  1
  9 10  2  0
  9 11  1  0
 11 33  1  0
 12 13  1  0
 13 14  2  0
 13 15  1  0
 15 16  2  0
 15 34  1  0
 16 35  1  0
 16 17  1  0
 17 18  2  0
 17 22  1  0
 18 36  1  0
 18 19  1  0
 19 24  1  0
 19 20  2  0
 20 23  1  0
 20 21  1  0
 21 22  2  0
 21 37  1  0
 22 38  1  0
 23 39  1  0
 24 40  1  0
 25 41  1  0
 26 42  1  0
M  END
>  <id>  (744) 
853

>  <scaffolds>  (744) 
['c1ccccc1', 'O=C(C=Cc1ccccc1)OCCc1ccccc1']

>  <name>  (744) 
Rosmarinic acid

>  <formula>  (744) 
C18H16O8

>  <SMILES>  (744) 
C1=CC(=C(C=C1C[C@H](C(=O)O)OC(=O)/C=C/C2=CC(=C(C=C2)O)O)O)O

>  <ChEMBL_id>  (744) 
SCHEMBL2028694

>  <ZINC_id>  (744) 
ZINC899870

>  <PubChem_id>  (744) 
5281792

>  <DrugBank_id>  (744) 


>  <CAS_no>  (744) 
20283-92-5

>  <references>  (744) 
[{'journal': {'name': 'Fitoterapia', 'id': 35}, 'title': 'First identification of natural products from the African medicinal plant Zamioculcas zamiifolia — A drought resistant survivor through millions of years', 'year': 2015, 'start_page': None, 'volume': None, 'issue': None, 'doi': 'https://doi.org/10.1016/j.fitote.2015.09.011', 'isbn': '', 'despositor': {'code': 'BND', 'first_name': "Bakary N'tji", 'last_name': 'Diallo', 'id': 26}, 'refauthors_set': [{'author': {'first_name': 'Angharad Le ', 'initials': 'ALM', 'last_name': 'Moullec', 'id': 963}, 'first_author': True, 'id': 1550}], 'id': 439}]

>  <classifications>  (744) 
[{'classification': 'Depsides', 'id': 890}, {'classification': 'Cinnamic acids and derivatives (Classyfire)', 'id': 975}]

>  <molecular_mass>  (744) 
360.08

$$$$
SANC00855_minRM1.pdb
     RDKit          3D

 42 45  0  0  1  0  0  0  0  0999 V2000
   -5.7000    0.3830   -1.4620 C   0  0  0  0  0  0  0  0  0  0  0  0
   -5.0450    0.1680   -0.0960 C   0  0  1  0  0  0  0  0  0  0  0  0
   -4.7270   -1.2780    0.0890 C   0  0  0  0  0  0  0  0  0  0  0  0
   -3.4720   -1.7240    0.1220 C   0  0  0  0  0  0  0  0  0  0  0  0
   -2.3800   -0.7880   -0.0070 C   0  0  0  0  0  0  0  0  0  0  0  0
   -2.6810    0.5760   -0.0950 C   0  0  0  0  0  0  0  0  0  0  0  0
   -3.9410    1.0600   -0.0440 O   0  0  0  0  0  0  0  0  0  0  0  0
   -1.6910    1.5540   -0.2090 C   0  0  0  0  0  0  0  0  0  0  0  0
   -0.3680    1.1170   -0.2170 C   0  0  0  0  0  0  0  0  0  0  0  0
   -0.0010   -0.2290   -0.1250 C   0  0  0  0  0  0  0  0  0  0  0  0
   -1.0340   -1.1770   -0.0280 C   0  0  0  0  0  0  0  0  0  0  0  0
   -0.6440   -2.4590    0.0460 O   0  0  0  0  0  0  0  0  0  0  0  0
    1.4100   -0.6120   -0.1180 C   0  0  0  0  0  0  0  0  0  0  0  0
    1.7870   -1.7700   -0.0730 O   0  0  0  0  0  0  0  0  0  0  0  0
    2.3350    0.5310   -0.1650 C   0  0  0  0  0  0  0  0  0  0  0  0
    1.8690    1.7850   -0.2730 C   0  0  0  0  0  0  0  0  0  0  0  0
    0.5500    2.1180   -0.3260 O   0  0  0  0  0  0  0  0  0  0  0  0
    3.7680    0.2920   -0.0740 C   0  0  0  0  0  0  0  0  0  0  0  0
    4.5290    1.0340    0.8310 C   0  0  0  0  0  0  0  0  0  0  0  0
    5.8930    0.8240    0.9390 C   0  0  0  0  0  0  0  0  0  0  0  0
    6.4880   -0.1480    0.1270 C   0  0  0  0  0  0  0  0  0  0  0  0
    5.7400   -0.8970   -0.7830 C   0  0  0  0  0  0  0  0  0  0  0  0
    4.3730   -0.6700   -0.8770 C   0  0  0  0  0  0  0  0  0  0  0  0
    7.8260   -0.2960    0.2880 O   0  0  0  0  0  0  0  0  0  0  0  0
   -5.9580    0.6580    1.0670 C   0  0  0  0  0  0  0  0  0  0  0  0
   -7.1580   -0.0450    1.0740 O   0  0  0  0  0  0  0  0  0  0  0  0
   -6.0660    1.4120   -1.5890 H   0  0  0  0  0  0  0  0  0  0  0  0
   -4.9940    0.1950   -2.2840 H   0  0  0  0  0  0  0  0  0  0  0  0
   -6.5510   -0.2940   -1.6220 H   0  0  0  0  0  0  0  0  0  0  0  0
   -5.5910   -1.9400    0.1930 H   0  0  0  0  0  0  0  0  0  0  0  0
   -3.2340   -2.7860    0.2510 H   0  0  0  0  0  0  0  0  0  0  0  0
   -1.9430    2.6140   -0.2830 H   0  0  0  0  0  0  0  0  0  0  0  0
   -1.4240   -3.0290    0.1320 H   0  0  0  0  0  0  0  0  0  0  0  0
    2.4560    2.7080   -0.3390 H   0  0  0  0  0  0  0  0  0  0  0  0
    4.0480    1.7790    1.4730 H   0  0  0  0  0  0  0  0  0  0  0  0
    6.4980    1.3980    1.6460 H   0  0  0  0  0  0  0  0  0  0  0  0
    6.2090   -1.6570   -1.4120 H   0  0  0  0  0  0  0  0  0  0  0  0
    3.7790   -1.2550   -1.5870 H   0  0  0  0  0  0  0  0  0  0  0  0
    8.1290   -1.0190   -0.2730 H   0  0  0  0  0  0  0  0  0  0  0  0
   -5.4920    0.4350    2.0520 H   0  0  0  0  0  0  0  0  0  0  0  0
   -6.0970    1.7630    1.0260 H   0  0  0  0  0  0  0  0  0  0  0  0
   -7.7130    0.3070    0.3710 H   0  0  0  0  0  0  0  0  0  0  0  0
  1 28  1  0
  1 29  1  0
  1 27  1  0
  2  1  1  6
  2  7  1  0
  2  3  1  0
  2 25  1  0
  3  4  2  0
  3 30  1  0
  4  5  1  0
  4 31  1  0
  5  6  2  0
  5 11  1  0
  6  8  1  0
  6  7  1  0
  8 32  1  0
  8  9  2  0
  9 17  1  0
  9 10  1  0
 10 13  1  0
 10 11  2  0
 11 12  1  0
 12 33  1  0
 13 15  1  0
 13 14  2  0
 15 16  2  0
 15 18  1  0
 16 34  1  0
 16 17  1  0
 18 23  2  0
 18 19  1  0
 19 20  2  0
 19 35  1  0
 20 21  1  0
 20 36  1  0
 21 22  2  0
 21 24  1  0
 22 37  1  0
 22 23  1  0
 23 38  1  0
 24 39  1  0
 25 41  1  0
 25 26  1  0
 25 40  1  0
 26 42  1  0
M  END
>  <id>  (745) 
855

>  <scaffolds>  (745) 
['c1ccccc1', 'O=c1c(-c2ccccc2)coc2ccccc12', 'O=c1c(-c2ccccc2)coc2cc3c(cc12)C=CCO3', 'C1=Cc2ccccc2OC1', 'O=c1ccoc2ccccc12']

>  <name>  (745) 
Erysubin B

>  <formula>  (745) 
C20H16O6

>  <SMILES>  (745) 
CC1(C=CC2=C(O1)C=C3C(=C2O)C(=O)C(=CO3)C4=CC=C(C=C4)O)CO

>  <ChEMBL_id>  (745) 


>  <ZINC_id>  (745) 


>  <PubChem_id>  (745) 
10760434

>  <DrugBank_id>  (745) 


>  <CAS_no>  (745) 
221150-19-2

>  <references>  (745) 
[{'journal': {'name': 'Natural Product Research', 'id': 18}, 'title': 'New flavonoids from the stem bark of Erythrina caffra Thunb.', 'year': 2013, 'start_page': None, 'volume': None, 'issue': None, 'doi': 'https://doi.org/10.1080/14786419.2014.895726', 'isbn': '', 'despositor': {'code': 'BND', 'first_name': "Bakary N'tji", 'last_name': 'Diallo', 'id': 26}, 'refauthors_set': [{'author': {'first_name': 'Zelalem Yibralign ', 'initials': 'ZYD', 'last_name': 'Desta', 'id': 983}, 'first_author': True, 'id': 1567}], 'id': 460}]

>  <classifications>  (745) 
[{'classification': 'Isoflavonoid', 'id': 891}, {'classification': 'Isoflavonoids (Classyfire)', 'id': 963}]

>  <molecular_mass>  (745) 
352.09

$$$$
SANC00856_minRM1.pdb
     RDKit          3D

 44 47  0  0  1  0  0  0  0  0999 V2000
    6.5660   -1.4380   -0.1660 C   0  0  0  0  0  0  0  0  0  0  0  0
    5.6870   -0.2110   -0.4320 C   0  0  1  0  0  0  0  0  0  0  0  0
    5.0630   -0.2840   -1.8260 C   0  0  0  0  0  0  0  0  0  0  0  0
    4.6180   -0.0890    0.6850 C   0  0  2  0  0  0  0  0  0  0  0  0
    3.5930   -1.2510    0.7320 C   0  0  0  0  0  0  0  0  0  0  0  0
    2.3120   -0.5380    0.5020 C   0  0  0  0  0  0  0  0  0  0  0  0
    2.5750    0.8290    0.3390 C   0  0  0  0  0  0  0  0  0  0  0  0
    3.8950    1.1260    0.4440 O   0  0  0  0  0  0  0  0  0  0  0  0
    1.6020    1.7890    0.1060 C   0  0  0  0  0  0  0  0  0  0  0  0
    0.2970    1.2940    0.0440 C   0  0  0  0  0  0  0  0  0  0  0  0
   -0.0260   -0.0560    0.1980 C   0  0  0  0  0  0  0  0  0  0  0  0
    1.0090   -0.9950    0.4310 C   0  0  0  0  0  0  0  0  0  0  0  0
    0.7880   -2.3010    0.5850 O   0  0  0  0  0  0  0  0  0  0  0  0
   -1.4040   -0.5000    0.1260 C   0  0  0  0  0  0  0  0  0  0  0  0
   -1.6810   -1.6950    0.2490 O   0  0  0  0  0  0  0  0  0  0  0  0
   -2.3800    0.5620   -0.0920 C   0  0  0  0  0  0  0  0  0  0  0  0
   -1.9600    1.8340   -0.2360 C   0  0  0  0  0  0  0  0  0  0  0  0
   -0.6640    2.2360   -0.1840 O   0  0  0  0  0  0  0  0  0  0  0  0
   -3.7970    0.2410   -0.1400 C   0  0  0  0  0  0  0  0  0  0  0  0
   -4.7000    0.9990    0.6070 C   0  0  0  0  0  0  0  0  0  0  0  0
   -6.0540    0.7110    0.5730 C   0  0  0  0  0  0  0  0  0  0  0  0
   -6.4930   -0.3540   -0.2210 C   0  0  0  0  0  0  0  0  0  0  0  0
   -5.6020   -1.1220   -0.9710 C   0  0  0  0  0  0  0  0  0  0  0  0
   -4.2480   -0.8180   -0.9240 C   0  0  0  0  0  0  0  0  0  0  0  0
   -7.8310   -0.5710   -0.2070 O   0  0  0  0  0  0  0  0  0  0  0  0
    6.5600    0.8760   -0.3360 O   0  0  0  0  0  0  0  0  0  0  0  0
    7.0230   -1.4120    0.8340 H   0  0  0  0  0  0  0  0  0  0  0  0
    6.0050   -2.3790   -0.2450 H   0  0  0  0  0  0  0  0  0  0  0  0
    7.3950   -1.5010   -0.8860 H   0  0  0  0  0  0  0  0  0  0  0  0
    4.4940   -1.2100   -1.9860 H   0  0  0  0  0  0  0  0  0  0  0  0
    5.8340   -0.2520   -2.6100 H   0  0  0  0  0  0  0  0  0  0  0  0
    4.3740    0.5490   -2.0280 H   0  0  0  0  0  0  0  0  0  0  0  0
    5.1200    0.0600    1.6750 H   0  0  0  0  0  0  0  0  0  0  0  0
    3.6080   -1.7780    1.7060 H   0  0  0  0  0  0  0  0  0  0  0  0
    3.7660   -2.0430   -0.0210 H   0  0  0  0  0  0  0  0  0  0  0  0
    1.8370    2.8470   -0.0140 H   0  0  0  0  0  0  0  0  0  0  0  0
   -0.1820   -2.4970    0.5220 H   0  0  0  0  0  0  0  0  0  0  0  0
   -2.5860    2.7160   -0.4160 H   0  0  0  0  0  0  0  0  0  0  0  0
   -4.3410    1.8190    1.2380 H   0  0  0  0  0  0  0  0  0  0  0  0
   -6.7700    1.2970    1.1560 H   0  0  0  0  0  0  0  0  0  0  0  0
   -5.9500   -1.9560   -1.5870 H   0  0  0  0  0  0  0  0  0  0  0  0
   -3.5420   -1.4160   -1.5080 H   0  0  0  0  0  0  0  0  0  0  0  0
   -8.0280   -1.3430   -0.7490 H   0  0  0  0  0  0  0  0  0  0  0  0
    6.0870    1.6740   -0.5930 H   0  0  0  0  0  0  0  0  0  0  0  0
  1 29  1  0
  1  2  1  0
  1 28  1  0
  1 27  1  0
  2  3  1  0
  2 26  1  6
  2  4  1  0
  3 31  1  0
  3 32  1  0
  3 30  1  0
  4  8  1  0
  4  5  1  0
  4 33  1  1
  5 35  1  0
  5  6  1  0
  5 34  1  0
  6  7  2  0
  6 12  1  0
  7  9  1  0
  7  8  1  0
  9 36  1  0
  9 10  2  0
 10 18  1  0
 10 11  1  0
 11 14  1  0
 11 12  2  0
 12 13  1  0
 13 37  1  0
 14 16  1  0
 14 15  2  0
 16 17  2  0
 16 19  1  0
 17 38  1  0
 17 18  1  0
 19 24  2  0
 19 20  1  0
 20 21  2  0
 20 39  1  0
 21 22  1  0
 21 40  1  0
 22 23  2  0
 22 25  1  0
 23 41  1  0
 23 24  1  0
 24 42  1  0
 25 43  1  0
 26 44  1  0
M  END
>  <id>  (746) 
856

>  <scaffolds>  (746) 
['c1ccccc1', 'O=c1c(-c2ccccc2)coc2ccccc12', 'O=c1ccoc2ccccc12', 'O=c1c(-c2ccccc2)coc2cc3c(cc12)CCO3']

>  <name>  (746) 
Erythrinin C

>  <formula>  (746) 
C20H18O6

>  <SMILES>  (746) 
CC(C)(C1CC2=C(O1)C=C3C(=C2O)C(=O)C(=CO3)C4=CC=C(C=C4)O)O

>  <ChEMBL_id>  (746) 


>  <ZINC_id>  (746) 


>  <PubChem_id>  (746) 
44257283

>  <DrugBank_id>  (746) 


>  <CAS_no>  (746) 
63807-85-2

>  <references>  (746) 
[{'journal': {'name': 'Natural Product Research', 'id': 18}, 'title': 'New flavonoids from the stem bark of Erythrina caffra Thunb.', 'year': 2013, 'start_page': None, 'volume': None, 'issue': None, 'doi': 'https://doi.org/10.1080/14786419.2014.895726', 'isbn': '', 'despositor': {'code': 'BND', 'first_name': "Bakary N'tji", 'last_name': 'Diallo', 'id': 26}, 'refauthors_set': [{'author': {'first_name': 'Zelalem Yibralign ', 'initials': 'ZYD', 'last_name': 'Desta', 'id': 983}, 'first_author': True, 'id': 1567}], 'id': 460}]

>  <classifications>  (746) 
[{'classification': 'Flavonoids', 'id': 776}, {'classification': 'Isoflavonoids (Classyfire)', 'id': 963}]

>  <molecular_mass>  (746) 
354.11

$$$$
SANC00857_minRM1.pdb
     RDKit          3D

 50 53  0  0  1  0  0  0  0  0999 V2000
   -5.8130    0.9850    0.5380 C   0  0  0  0  0  0  0  0  0  0  0  0
   -7.1950    1.1200    0.5450 C   0  0  0  0  0  0  0  0  0  0  0  0
   -7.9820    0.0240    0.1910 C   0  0  0  0  0  0  0  0  0  0  0  0
   -7.4110   -1.2030   -0.1670 C   0  0  0  0  0  0  0  0  0  0  0  0
   -6.0310   -1.3180   -0.1680 C   0  0  0  0  0  0  0  0  0  0  0  0
   -5.2310   -0.2300    0.1860 C   0  0  0  0  0  0  0  0  0  0  0  0
   -3.7830   -0.3730    0.1840 C   0  0  0  0  0  0  0  0  0  0  0  0
   -3.2080   -1.4220    0.7970 C   0  0  0  0  0  0  0  0  0  0  0  0
   -1.8710   -1.6580    0.8400 O   0  0  0  0  0  0  0  0  0  0  0  0
   -1.0480   -0.7770    0.1980 C   0  0  0  0  0  0  0  0  0  0  0  0
   -1.5270    0.3490   -0.4730 C   0  0  0  0  0  0  0  0  0  0  0  0
   -2.9640    0.6320   -0.5030 C   0  0  0  0  0  0  0  0  0  0  0  0
   -3.4270    1.6180   -1.0520 O   0  0  0  0  0  0  0  0  0  0  0  0
   -0.6100    1.1870   -1.1090 C   0  0  0  0  0  0  0  0  0  0  0  0
    0.7460    0.9140   -1.0640 C   0  0  0  0  0  0  0  0  0  0  0  0
    1.1950   -0.2190   -0.3720 C   0  0  0  0  0  0  0  0  0  0  0  0
    0.3090   -1.0880    0.2690 C   0  0  0  0  0  0  0  0  0  0  0  0
    2.4950   -0.5970   -0.2560 O   0  0  0  0  0  0  0  0  0  0  0  0
    3.4710    0.2830   -0.7810 C   0  0  1  0  0  0  0  0  0  0  0  0
    3.7290    1.4150    0.2570 C   0  0  1  0  0  0  0  0  0  0  0  0
    4.6880    0.9340    1.3700 C   0  0  2  0  0  0  0  0  0  0  0  0
    5.9760    0.3040    0.7680 C   0  0  1  0  0  0  0  0  0  0  0  0
    5.8000   -0.0610   -0.7270 C   0  0  2  0  0  0  0  0  0  0  0  0
    4.5330   -0.6160   -0.9540 O   0  0  0  0  0  0  0  0  0  0  0  0
    6.7940   -1.1710   -1.1480 C   0  0  0  0  0  0  0  0  0  0  0  0
    6.3340   -2.4580   -0.9030 O   0  0  0  0  0  0  0  0  0  0  0  0
    7.0640    1.1530    0.9270 O   0  0  0  0  0  0  0  0  0  0  0  0
    3.9520   -0.0190    2.0740 O   0  0  0  0  0  0  0  0  0  0  0  0
    4.3980    2.4680   -0.3720 O   0  0  0  0  0  0  0  0  0  0  0  0
   -9.3370    0.0570    0.1720 O   0  0  0  0  0  0  0  0  0  0  0  0
   -5.1880    1.8410    0.8120 H   0  0  0  0  0  0  0  0  0  0  0  0
   -7.6460    2.0770    0.8190 H   0  0  0  0  0  0  0  0  0  0  0  0
   -8.0470   -2.0470   -0.4450 H   0  0  0  0  0  0  0  0  0  0  0  0
   -5.5710   -2.2660   -0.4610 H   0  0  0  0  0  0  0  0  0  0  0  0
   -3.7150   -2.2240    1.3450 H   0  0  0  0  0  0  0  0  0  0  0  0
   -0.9730    2.0700   -1.6490 H   0  0  0  0  0  0  0  0  0  0  0  0
    1.4390    1.5770   -1.5870 H   0  0  0  0  0  0  0  0  0  0  0  0
    0.6660   -1.9740    0.8030 H   0  0  0  0  0  0  0  0  0  0  0  0
    3.1960    0.6990   -1.7930 H   0  0  0  0  0  0  0  0  0  0  0  0
    2.7540    1.7400    0.7140 H   0  0  0  0  0  0  0  0  0  0  0  0
    4.9560    1.8090    2.0290 H   0  0  0  0  0  0  0  0  0  0  0  0
    6.2800   -0.5970    1.3640 H   0  0  0  0  0  0  0  0  0  0  0  0
    5.9730    0.8380   -1.3800 H   0  0  0  0  0  0  0  0  0  0  0  0
    6.9640   -1.1570   -2.2470 H   0  0  0  0  0  0  0  0  0  0  0  0
    7.7840   -0.9820   -0.6700 H   0  0  0  0  0  0  0  0  0  0  0  0
    5.9710   -2.4980   -0.0130 H   0  0  0  0  0  0  0  0  0  0  0  0
    6.8830    1.9810    0.4650 H   0  0  0  0  0  0  0  0  0  0  0  0
    4.4440   -0.2300    2.8740 H   0  0  0  0  0  0  0  0  0  0  0  0
    3.7350    3.0320   -0.7800 H   0  0  0  0  0  0  0  0  0  0  0  0
   -9.6290    0.9490    0.3910 H   0  0  0  0  0  0  0  0  0  0  0  0
  1  6  2  0
  1  2  1  0
  1 31  1  0
  2  3  2  0
  2 32  1  0
  3  4  1  0
  3 30  1  0
  4 33  1  0
  4  5  2  0
  5 34  1  0
  5  6  1  0
  6  7  1  0
  7 12  1  0
  7  8  2  0
  8  9  1  0
  8 35  1  0
  9 10  1  0
 10 11  2  0
 10 17  1  0
 11 14  1  0
 11 12  1  0
 12 13  2  0
 14 36  1  0
 14 15  2  0
 15 37  1  0
 15 16  1  0
 16 18  1  0
 16 17  2  0
 17 38  1  0
 18 19  1  0
 19 39  1  6
 19 24  1  0
 19 20  1  0
 20 29  1  0
 20 40  1  1
 20 21  1  0
 21 22  1  0
 21 41  1  1
 21 28  1  0
 22 23  1  0
 22 27  1  0
 22 42  1  1
 23 43  1  6
 23 25  1  0
 23 24  1  0
 25 44  1  0
 25 26  1  0
 25 45  1  0
 26 46  1  0
 27 47  1  0
 28 48  1  0
 29 49  1  0
 30 50  1  0
M  END
>  <id>  (747) 
857

>  <scaffolds>  (747) 
['c1ccccc1', 'O=c1c(-c2ccccc2)coc2ccccc12', 'C1CCOCC1', 'c1ccc(OC2CCCCO2)cc1', 'O=c1c(-c2ccccc2)coc2cc(OC3CCCCO3)ccc12', 'O=c1ccoc2ccccc12']

>  <name>  (747) 
Daidzin

>  <formula>  (747) 
C21H20O9

>  <SMILES>  (747) 
C1=CC(=CC=C1C2=COC3=C(C2=O)C=CC(=C3)O[C@H]4[C@@H]([C@H]([C@@H]([C@H](O4)CO)O)O)O)O

>  <ChEMBL_id>  (747) 
CHEMBL486422

>  <ZINC_id>  (747) 
ZINC4098610

>  <PubChem_id>  (747) 
107971

>  <DrugBank_id>  (747) 
DB02115

>  <CAS_no>  (747) 
552-66-9

>  <references>  (747) 
[{'journal': {'name': 'Journal of Natural Products', 'id': 5}, 'title': 'Termisoflavones A–C, Isoflavonoid Glycosides from Termite-Associated Streptomyces sp. RB1', 'year': 2016, 'start_page': None, 'volume': None, 'issue': None, 'doi': 'https://doi.org/10.1021/acs.jnatprod.6b00738', 'isbn': '', 'despositor': {'code': 'BND', 'first_name': "Bakary N'tji", 'last_name': 'Diallo', 'id': 26}, 'refauthors_set': [{'author': {'first_name': 'Hee Rae ', 'initials': 'HRK', 'last_name': 'Kang', 'id': 978}, 'first_author': True, 'id': 1563}], 'id': 454}]

>  <classifications>  (747) 
[{'classification': 'Isoflavones', 'id': 892}, {'classification': 'Isoflavonoids (Classyfire)', 'id': 963}]

>  <molecular_mass>  (747) 
416.11

$$$$
SANC00858_minRM1.pdb
     RDKit          3D

 51 54  0  0  1  0  0  0  0  0999 V2000
    5.9740    0.2490    1.3650 C   0  0  0  0  0  0  0  0  0  0  0  0
    7.3440    0.0460    1.3890 C   0  0  0  0  0  0  0  0  0  0  0  0
    8.0180   -0.1230    0.1750 C   0  0  0  0  0  0  0  0  0  0  0  0
    7.3440   -0.0910   -1.0460 C   0  0  0  0  0  0  0  0  0  0  0  0
    5.9700    0.1140   -1.0500 C   0  0  0  0  0  0  0  0  0  0  0  0
    5.2870    0.2870    0.1510 C   0  0  0  0  0  0  0  0  0  0  0  0
    3.8490    0.5100    0.1480 C   0  0  0  0  0  0  0  0  0  0  0  0
    3.3240    1.5160    0.8660 C   0  0  0  0  0  0  0  0  0  0  0  0
    1.9950    1.7980    0.9460 O   0  0  0  0  0  0  0  0  0  0  0  0
    1.1280    0.9920    0.2700 C   0  0  0  0  0  0  0  0  0  0  0  0
   -0.2140    1.3300    0.4340 C   0  0  0  0  0  0  0  0  0  0  0  0
   -1.1550    0.5410   -0.2310 C   0  0  0  0  0  0  0  0  0  0  0  0
   -0.7890   -0.5370   -1.0390 C   0  0  0  0  0  0  0  0  0  0  0  0
    0.5690   -0.8330   -1.1690 C   0  0  0  0  0  0  0  0  0  0  0  0
    1.5590   -0.0790   -0.5170 C   0  0  0  0  0  0  0  0  0  0  0  0
    2.9840   -0.3850   -0.6370 C   0  0  0  0  0  0  0  0  0  0  0  0
    3.4160   -1.2950   -1.3210 O   0  0  0  0  0  0  0  0  0  0  0  0
    1.0140   -1.8510   -1.9270 O   0  0  0  0  0  0  0  0  0  0  0  0
   -2.4360    0.9680   -0.0580 O   0  0  0  0  0  0  0  0  0  0  0  0
   -3.4660    0.0370   -0.3140 C   0  0  1  0  0  0  0  0  0  0  0  0
   -3.7740   -0.7090    1.0200 C   0  0  1  0  0  0  0  0  0  0  0  0
   -5.1090   -1.4690    0.8450 C   0  0  2  0  0  0  0  0  0  0  0  0
   -6.1840   -0.4310    0.4360 C   0  0  1  0  0  0  0  0  0  0  0  0
   -5.7290    0.2530   -0.8740 C   0  0  2  0  0  0  0  0  0  0  0  0
   -4.5080    0.9170   -0.6550 O   0  0  0  0  0  0  0  0  0  0  0  0
   -6.7030    1.3720   -1.3090 C   0  0  0  0  0  0  0  0  0  0  0  0
   -7.0170    2.2150   -0.2500 O   0  0  0  0  0  0  0  0  0  0  0  0
   -7.3420   -1.1680    0.1920 O   0  0  0  0  0  0  0  0  0  0  0  0
   -5.3940   -2.0110    2.0940 O   0  0  0  0  0  0  0  0  0  0  0  0
   -2.7050   -1.5280    1.3430 O   0  0  0  0  0  0  0  0  0  0  0  0
    9.3570   -0.3110    0.2780 O   0  0  0  0  0  0  0  0  0  0  0  0
    5.4320    0.3660    2.3080 H   0  0  0  0  0  0  0  0  0  0  0  0
    7.8920    0.0120    2.3340 H   0  0  0  0  0  0  0  0  0  0  0  0
    7.8740   -0.2290   -1.9920 H   0  0  0  0  0  0  0  0  0  0  0  0
    5.4320    0.1380   -2.0030 H   0  0  0  0  0  0  0  0  0  0  0  0
    3.8650    2.2470    1.4760 H   0  0  0  0  0  0  0  0  0  0  0  0
   -0.5180    2.1740    1.0600 H   0  0  0  0  0  0  0  0  0  0  0  0
   -1.5480   -1.1260   -1.5610 H   0  0  0  0  0  0  0  0  0  0  0  0
    0.2620   -2.3060   -2.3270 H   0  0  0  0  0  0  0  0  0  0  0  0
   -3.2380   -0.6790   -1.1580 H   0  0  0  0  0  0  0  0  0  0  0  0
   -3.8240    0.0120    1.8800 H   0  0  0  0  0  0  0  0  0  0  0  0
   -5.0210   -2.2700    0.0600 H   0  0  0  0  0  0  0  0  0  0  0  0
   -6.3150    0.3240    1.2590 H   0  0  0  0  0  0  0  0  0  0  0  0
   -5.6470   -0.5020   -1.7030 H   0  0  0  0  0  0  0  0  0  0  0  0
   -7.6760    0.9380   -1.6290 H   0  0  0  0  0  0  0  0  0  0  0  0
   -6.2970    1.9170   -2.1940 H   0  0  0  0  0  0  0  0  0  0  0  0
   -6.2280    2.7210   -0.0250 H   0  0  0  0  0  0  0  0  0  0  0  0
   -8.0880   -0.5660    0.2750 H   0  0  0  0  0  0  0  0  0  0  0  0
   -6.2240   -2.4950    2.0210 H   0  0  0  0  0  0  0  0  0  0  0  0
   -2.7440   -2.3270    0.8060 H   0  0  0  0  0  0  0  0  0  0  0  0
    9.7190   -0.4600   -0.6020 H   0  0  0  0  0  0  0  0  0  0  0  0
  1  6  2  0
  1  2  1  0
  1 32  1  0
  2  3  2  0
  2 33  1  0
  3  4  1  0
  3 31  1  0
  4 34  1  0
  4  5  2  0
  5 35  1  0
  5  6  1  0
  6  7  1  0
  7 16  1  0
  7  8  2  0
  8  9  1  0
  8 36  1  0
  9 10  1  0
 10 15  2  0
 10 11  1  0
 11 12  2  0
 11 37  1  0
 12 13  1  0
 12 19  1  0
 13 38  1  0
 13 14  2  0
 14 18  1  0
 14 15  1  0
 15 16  1  0
 16 17  2  0
 18 39  1  0
 19 20  1  0
 20 40  1  6
 20 25  1  0
 20 21  1  0
 21 22  1  0
 21 30  1  0
 21 41  1  1
 22 42  1  6
 22 23  1  0
 22 29  1  0
 23 24  1  0
 23 28  1  0
 23 43  1  1
 24 44  1  6
 24 26  1  0
 24 25  1  0
 26 46  1  0
 26 45  1  0
 26 27  1  0
 27 47  1  0
 28 48  1  0
 29 49  1  0
 30 50  1  0
 31 51  1  0
M  END
>  <id>  (748) 
858

>  <scaffolds>  (748) 
['c1ccccc1', 'O=c1c(-c2ccccc2)coc2ccccc12', 'C1CCOCC1', 'c1ccc(OC2CCCCO2)cc1', 'O=c1c(-c2ccccc2)coc2cc(OC3CCCCO3)ccc12', 'O=c1ccoc2ccccc12']

>  <name>  (748) 
Genistin

>  <formula>  (748) 
C21H20O10

>  <SMILES>  (748) 
C1=CC(=CC=C1C2=COC3=CC(=CC(=C3C2=O)O)O[C@H]4[C@@H]([C@H]([C@@H]([C@H](O4)CO)O)O)O)O

>  <ChEMBL_id>  (748) 
CHEMBL486625

>  <ZINC_id>  (748) 
ZINC4097913

>  <PubChem_id>  (748) 
5281377

>  <DrugBank_id>  (748) 


>  <CAS_no>  (748) 
529-59-9

>  <references>  (748) 
[{'journal': {'name': 'Journal of Natural Products', 'id': 5}, 'title': 'Termisoflavones A–C, Isoflavonoid Glycosides from Termite-Associated Streptomyces sp. RB1', 'year': 2016, 'start_page': None, 'volume': None, 'issue': None, 'doi': 'https://doi.org/10.1021/acs.jnatprod.6b00738', 'isbn': '', 'despositor': {'code': 'BND', 'first_name': "Bakary N'tji", 'last_name': 'Diallo', 'id': 26}, 'refauthors_set': [{'author': {'first_name': 'Hee Rae ', 'initials': 'HRK', 'last_name': 'Kang', 'id': 978}, 'first_author': True, 'id': 1563}], 'id': 454}]

>  <classifications>  (748) 
[{'classification': 'Isoflavones', 'id': 892}, {'classification': 'Isoflavonoids (Classyfire)', 'id': 963}]

>  <molecular_mass>  (748) 
432.11

$$$$
SANC00859_minRM1.pdb
     RDKit          3D

 29 31  0  0  0  0  0  0  0  0999 V2000
   -2.7240    1.0820   -0.7190 C   0  0  0  0  0  0  0  0  0  0  0  0
   -4.1080    0.9640   -0.7410 C   0  0  0  0  0  0  0  0  0  0  0  0
   -4.7060   -0.0490    0.0080 C   0  0  0  0  0  0  0  0  0  0  0  0
   -3.9460   -0.9410    0.7730 C   0  0  0  0  0  0  0  0  0  0  0  0
   -2.5680   -0.8050    0.7840 C   0  0  0  0  0  0  0  0  0  0  0  0
   -1.9560    0.2070    0.0420 C   0  0  0  0  0  0  0  0  0  0  0  0
   -0.5080    0.3500    0.0620 C   0  0  0  0  0  0  0  0  0  0  0  0
    0.0480    1.5560    0.2690 C   0  0  0  0  0  0  0  0  0  0  0  0
    1.3840    1.8000    0.2960 O   0  0  0  0  0  0  0  0  0  0  0  0
    2.2280    0.7420    0.1160 C   0  0  0  0  0  0  0  0  0  0  0  0
    1.7720   -0.5580   -0.1030 C   0  0  0  0  0  0  0  0  0  0  0  0
    0.3350   -0.8330   -0.1510 C   0  0  0  0  0  0  0  0  0  0  0  0
   -0.1140   -1.9500   -0.3550 O   0  0  0  0  0  0  0  0  0  0  0  0
    2.7120   -1.5790   -0.2730 C   0  0  0  0  0  0  0  0  0  0  0  0
    4.0650   -1.3040   -0.2250 C   0  0  0  0  0  0  0  0  0  0  0  0
    4.4870    0.0170   -0.0050 C   0  0  0  0  0  0  0  0  0  0  0  0
    3.5850    1.0640    0.1690 C   0  0  0  0  0  0  0  0  0  0  0  0
    5.7910    0.3680    0.0540 O   0  0  0  0  0  0  0  0  0  0  0  0
   -6.0470   -0.2440    0.0550 O   0  0  0  0  0  0  0  0  0  0  0  0
   -2.2440    1.8640   -1.3160 H   0  0  0  0  0  0  0  0  0  0  0  0
   -4.7040    1.6550   -1.3420 H   0  0  0  0  0  0  0  0  0  0  0  0
   -4.4370   -1.7310    1.3490 H   0  0  0  0  0  0  0  0  0  0  0  0
   -1.9630   -1.4980    1.3780 H   0  0  0  0  0  0  0  0  0  0  0  0
   -0.4760    2.5020    0.4460 H   0  0  0  0  0  0  0  0  0  0  0  0
    2.3650   -2.6060   -0.4450 H   0  0  0  0  0  0  0  0  0  0  0  0
    4.7900   -2.1120   -0.3570 H   0  0  0  0  0  0  0  0  0  0  0  0
    3.9250    2.0890    0.3390 H   0  0  0  0  0  0  0  0  0  0  0  0
    6.3370   -0.4180   -0.0680 H   0  0  0  0  0  0  0  0  0  0  0  0
   -6.4750    0.3910   -0.5290 H   0  0  0  0  0  0  0  0  0  0  0  0
  1 20  1  0
  1  2  2  0
  1  6  1  0
  2 21  1  0
  2  3  1  0
  3 19  1  0
  3  4  2  0
  4  5  1  0
  4 22  1  0
  5  6  2  0
  5 23  1  0
  6  7  1  0
  7 12  1  0
  7  8  2  0
  8  9  1  0
  8 24  1  0
  9 10  1  0
 10 11  2  0
 10 17  1  0
 11 14  1  0
 11 12  1  0
 12 13  2  0
 14 25  1  0
 14 15  2  0
 15 26  1  0
 15 16  1  0
 16 18  1  0
 16 17  2  0
 17 27  1  0
 18 28  1  0
 19 29  1  0
M  END
>  <id>  (749) 
859

>  <scaffolds>  (749) 
['c1ccccc1', 'O=c1c(-c2ccccc2)coc2ccccc12', 'O=c1ccoc2ccccc12']

>  <name>  (749) 
Daidzein

>  <formula>  (749) 
C15H10O4

>  <SMILES>  (749) 
C1=CC(=CC=C1C2=COC3=C(C2=O)C=CC(=C3)O)O

>  <ChEMBL_id>  (749) 
SCHEMBL19814

>  <ZINC_id>  (749) 
ZINC18847034

>  <PubChem_id>  (749) 
5281708

>  <DrugBank_id>  (749) 


>  <CAS_no>  (749) 
486-66-8

>  <references>  (749) 
[{'journal': {'name': 'Journal of Natural Products', 'id': 5}, 'title': 'Termisoflavones A–C, Isoflavonoid Glycosides from Termite-Associated Streptomyces sp. RB1', 'year': 2016, 'start_page': None, 'volume': None, 'issue': None, 'doi': 'https://doi.org/10.1021/acs.jnatprod.6b00738', 'isbn': '', 'despositor': {'code': 'BND', 'first_name': "Bakary N'tji", 'last_name': 'Diallo', 'id': 26}, 'refauthors_set': [{'author': {'first_name': 'Hee Rae ', 'initials': 'HRK', 'last_name': 'Kang', 'id': 978}, 'first_author': True, 'id': 1563}], 'id': 454}]

>  <classifications>  (749) 
[{'classification': 'Isoflavones', 'id': 892}, {'classification': 'Isoflavonoids (Classyfire)', 'id': 963}]

>  <molecular_mass>  (749) 
254.06

$$$$
SANC00860_minRM1.pdb
     RDKit          3D

 56 57  0  0  1  0  0  0  0  0999 V2000
   -8.4430    1.3630   -0.0660 C   0  0  0  0  0  0  0  0  0  0  0  0
   -7.1010    0.7400    0.0510 C   0  0  0  0  0  0  0  0  0  0  0  0
   -6.0260    1.4260    0.4400 C   0  0  0  0  0  0  0  0  0  0  0  0
   -4.6950    0.8320    0.5130 C   0  0  0  0  0  0  0  0  0  0  0  0
   -4.2530   -0.0210   -0.4940 C   0  0  0  0  0  0  0  0  0  0  0  0
   -2.9510   -0.5130   -0.4510 C   0  0  0  0  0  0  0  0  0  0  0  0
   -2.0950   -0.1520    0.5990 C   0  0  0  0  0  0  0  0  0  0  0  0
   -2.5600    0.6750    1.6240 C   0  0  0  0  0  0  0  0  0  0  0  0
   -3.8550    1.1670    1.5750 C   0  0  0  0  0  0  0  0  0  0  0  0
   -0.7550   -0.3980    0.6170 O   0  0  0  0  0  0  0  0  0  0  0  0
   -0.3230   -1.7380    0.4700 C   0  0  2  0  0  0  0  0  0  0  0  0
    0.4250   -2.0970    1.7520 C   0  0  0  0  0  0  0  0  0  0  0  0
    0.6300   -1.7130   -0.7640 C   0  0  1  0  0  0  0  0  0  0  0  0
    1.7990   -0.7970   -0.4980 C   0  0  0  0  0  0  0  0  0  0  0  0
    1.6370    0.5510   -0.7610 C   0  0  0  0  0  0  0  0  0  0  0  0
    2.6730    1.4530   -0.4580 C   0  0  0  0  0  0  0  0  0  0  0  0
    3.8640    0.9890    0.0990 C   0  0  0  0  0  0  0  0  0  0  0  0
    4.0140   -0.3940    0.3250 C   0  0  0  0  0  0  0  0  0  0  0  0
    2.9930   -1.2880    0.0320 C   0  0  0  0  0  0  0  0  0  0  0  0
    5.2220   -0.7350    0.8550 O   0  0  0  0  0  0  0  0  0  0  0  0
    5.4850   -2.1040    1.0390 C   0  0  0  0  0  0  0  0  0  0  0  0
    4.8030    1.8730    0.5470 O   0  0  0  0  0  0  0  0  0  0  0  0
    6.0740    1.7340   -0.0540 C   0  0  0  0  0  0  0  0  0  0  0  0
    2.3250    2.7410   -0.7220 O   0  0  0  0  0  0  0  0  0  0  0  0
    3.3220    3.7300   -0.7530 C   0  0  0  0  0  0  0  0  0  0  0  0
    1.0160   -3.0450   -0.9450 O   0  0  0  0  0  0  0  0  0  0  0  0
   -2.4060   -1.2890   -1.4340 O   0  0  0  0  0  0  0  0  0  0  0  0
   -3.2990   -2.1430   -2.1090 C   0  0  0  0  0  0  0  0  0  0  0  0
   -8.4820    2.4070    0.2770 H   0  0  0  0  0  0  0  0  0  0  0  0
   -9.1960    0.8110    0.5160 H   0  0  0  0  0  0  0  0  0  0  0  0
   -8.7850    1.3620   -1.1130 H   0  0  0  0  0  0  0  0  0  0  0  0
   -7.0530   -0.3250   -0.2020 H   0  0  0  0  0  0  0  0  0  0  0  0
   -6.0830    2.4840    0.7190 H   0  0  0  0  0  0  0  0  0  0  0  0
   -4.9180   -0.2630   -1.3270 H   0  0  0  0  0  0  0  0  0  0  0  0
   -1.8910    0.9500    2.4460 H   0  0  0  0  0  0  0  0  0  0  0  0
   -4.2140    1.8280    2.3700 H   0  0  0  0  0  0  0  0  0  0  0  0
   -1.1480   -2.4770    0.3000 H   0  0  0  0  0  0  0  0  0  0  0  0
   -0.2610   -2.1960    2.6060 H   0  0  0  0  0  0  0  0  0  0  0  0
    1.1710   -1.3420    2.0380 H   0  0  0  0  0  0  0  0  0  0  0  0
    0.9560   -3.0540    1.6480 H   0  0  0  0  0  0  0  0  0  0  0  0
    0.0660   -1.3500   -1.6680 H   0  0  0  0  0  0  0  0  0  0  0  0
    0.6960    0.9350   -1.1710 H   0  0  0  0  0  0  0  0  0  0  0  0
    3.0850   -2.3560    0.2390 H   0  0  0  0  0  0  0  0  0  0  0  0
    6.5180   -2.1150    1.4200 H   0  0  0  0  0  0  0  0  0  0  0  0
    4.8280   -2.5750    1.7880 H   0  0  0  0  0  0  0  0  0  0  0  0
    5.4470   -2.6870    0.1040 H   0  0  0  0  0  0  0  0  0  0  0  0
    6.4190    2.7580   -0.2680 H   0  0  0  0  0  0  0  0  0  0  0  0
    6.1010    1.1500   -0.9870 H   0  0  0  0  0  0  0  0  0  0  0  0
    6.7700    1.2740    0.6660 H   0  0  0  0  0  0  0  0  0  0  0  0
    3.6600    4.0210    0.2540 H   0  0  0  0  0  0  0  0  0  0  0  0
    2.8050    4.5890   -1.2110 H   0  0  0  0  0  0  0  0  0  0  0  0
    4.1930    3.4700   -1.3750 H   0  0  0  0  0  0  0  0  0  0  0  0
    1.5890   -3.0700   -1.7170 H   0  0  0  0  0  0  0  0  0  0  0  0
   -3.8530   -1.6160   -2.9030 H   0  0  0  0  0  0  0  0  0  0  0  0
   -2.6460   -2.8950   -2.5780 H   0  0  0  0  0  0  0  0  0  0  0  0
   -4.0200   -2.6590   -1.4530 H   0  0  0  0  0  0  0  0  0  0  0  0
  1 31  1  0
  1  2  1  0
  1 29  1  0
  1 30  1  0
  2 32  1  0
  2  3  2  0
  3  4  1  0
  3 33  1  0
  4  5  2  0
  4  9  1  0
  5 34  1  0
  5  6  1  0
  6 27  1  0
  6  7  2  0
  7 10  1  0
  7  8  1  0
  8  9  2  0
  8 35  1  0
  9 36  1  0
 10 11  1  0
 11 13  1  0
 11 37  1  6
 11 12  1  0
 12 40  1  0
 12 39  1  0
 12 38  1  0
 13 41  1  6
 13 26  1  0
 13 14  1  0
 14 15  2  0
 14 19  1  0
 15 42  1  0
 15 16  1  0
 16 24  1  0
 16 17  2  0
 17 18  1  0
 17 22  1  0
 18 19  2  0
 18 20  1  0
 19 43  1  0
 20 21  1  0
 21 46  1  0
 21 44  1  0
 21 45  1  0
 22 23  1  0
 23 48  1  0
 23 47  1  0
 23 49  1  0
 24 25  1  0
 25 52  1  0
 25 51  1  0
 25 50  1  0
 26 53  1  0
 27 28  1  0
 28 54  1  0
 28 55  1  0
 28 56  1  0
M  END
>  <id>  (750) 
860

>  <scaffolds>  (750) 
['c1ccccc1', 'c1ccc(CCOc2ccccc2)cc1']

>  <name>  (750) 
Surinamensin

>  <formula>  (750) 
C22H28O6

>  <SMILES>  (750) 
C/C=C/C1=CC(=C(C=C1)O[C@H](C)[C@@H](C2=CC(=C(C(=C2)OC)OC)OC)O)OC

>  <ChEMBL_id>  (750) 
CHEMBL2313009

>  <ZINC_id>  (750) 


>  <PubChem_id>  (750) 
5281868

>  <DrugBank_id>  (750) 


>  <CAS_no>  (750) 
68143-82-8

>  <references>  (750) 
[{'journal': {'name': 'Natural Product Communications', 'id': 47}, 'title': 'HPLC-Guided Isolation, Purification and Characterization of Phenylpropanoid and Phenolic Constituents of Nutmeg Kernel (Myristica fragrans)', 'year': 2016, 'start_page': None, 'volume': None, 'issue': None, 'doi': 'https://0-doi.org.wam.seals.ac.za/10.1177/1934578X1601100416', 'isbn': '', 'despositor': {'code': 'BND', 'first_name': "Bakary N'tji", 'last_name': 'Diallo', 'id': 26}, 'refauthors_set': [{'author': {'first_name': 'Sharon ', 'initials': 'SC', 'last_name': 'Chiu', 'id': 958}, 'first_author': True, 'id': 1545}], 'id': 434}]

>  <classifications>  (750) 
[{'classification': 'Lignans', 'id': 893}]

>  <molecular_mass>  (750) 
388.19

$$$$
SANC00861_minRM1.pdb
     RDKit          3D

 52 53  0  0  0  0  0  0  0  0999 V2000
   -6.0950   -1.9110   -0.2490 C   0  0  0  0  0  0  0  0  0  0  0  0
   -4.8100   -2.1440    0.2160 C   0  0  0  0  0  0  0  0  0  0  0  0
   -4.0000   -1.0530    0.5520 C   0  0  0  0  0  0  0  0  0  0  0  0
   -4.4470    0.2630    0.3990 C   0  0  0  0  0  0  0  0  0  0  0  0
   -5.7690    0.4530   -0.0160 C   0  0  0  0  0  0  0  0  0  0  0  0
   -6.5960   -0.6190   -0.3560 C   0  0  0  0  0  0  0  0  0  0  0  0
   -6.3320    1.6800   -0.1490 O   0  0  0  0  0  0  0  0  0  0  0  0
   -3.5540    1.4110    0.6490 C   0  0  0  0  0  0  0  0  0  0  0  0
   -3.1630    1.6770    1.7700 O   0  0  0  0  0  0  0  0  0  0  0  0
   -3.1460    2.2150   -0.5600 C   0  0  0  0  0  0  0  0  0  0  0  0
   -2.2250    1.3920   -1.4660 C   0  0  0  0  0  0  0  0  0  0  0  0
   -0.7890    1.9120   -1.4660 C   0  0  0  0  0  0  0  0  0  0  0  0
   -0.0690    1.6710   -0.1420 C   0  0  0  0  0  0  0  0  0  0  0  0
    0.4690    0.2460   -0.0260 C   0  0  0  0  0  0  0  0  0  0  0  0
    1.5680   -0.0100   -1.0520 C   0  0  0  0  0  0  0  0  0  0  0  0
    1.9980   -1.4730   -1.0890 C   0  0  0  0  0  0  0  0  0  0  0  0
    2.7670   -1.8920    0.1630 C   0  0  0  0  0  0  0  0  0  0  0  0
    4.0290   -1.1050    0.2960 C   0  0  0  0  0  0  0  0  0  0  0  0
    5.0880   -1.3750   -0.5660 C   0  0  0  0  0  0  0  0  0  0  0  0
    6.2670   -0.6440   -0.4480 C   0  0  0  0  0  0  0  0  0  0  0  0
    6.3940    0.3520    0.5320 C   0  0  0  0  0  0  0  0  0  0  0  0
    5.3270    0.6150    1.3920 C   0  0  0  0  0  0  0  0  0  0  0  0
    4.1530   -0.1150    1.2670 C   0  0  0  0  0  0  0  0  0  0  0  0
    7.4940    1.1250    0.7060 O   0  0  0  0  0  0  0  0  0  0  0  0
    7.3460   -0.8240   -1.2570 O   0  0  0  0  0  0  0  0  0  0  0  0
   -2.7580   -1.3810    0.9730 O   0  0  0  0  0  0  0  0  0  0  0  0
   -6.7320   -2.7590   -0.5220 H   0  0  0  0  0  0  0  0  0  0  0  0
   -4.4290   -3.1630    0.3240 H   0  0  0  0  0  0  0  0  0  0  0  0
   -7.6180   -0.4400   -0.6970 H   0  0  0  0  0  0  0  0  0  0  0  0
   -5.8970    2.2930    0.4540 H   0  0  0  0  0  0  0  0  0  0  0  0
   -4.0520    2.5320   -1.1200 H   0  0  0  0  0  0  0  0  0  0  0  0
   -2.6750    3.1720   -0.2500 H   0  0  0  0  0  0  0  0  0  0  0  0
   -2.2500    0.3140   -1.2020 H   0  0  0  0  0  0  0  0  0  0  0  0
   -2.6190    1.4130   -2.5060 H   0  0  0  0  0  0  0  0  0  0  0  0
   -0.2190    1.4360   -2.2970 H   0  0  0  0  0  0  0  0  0  0  0  0
   -0.7770    2.9940   -1.7180 H   0  0  0  0  0  0  0  0  0  0  0  0
   -0.7350    1.9000    0.7170 H   0  0  0  0  0  0  0  0  0  0  0  0
    0.7680    2.3950   -0.0320 H   0  0  0  0  0  0  0  0  0  0  0  0
   -0.3520   -0.4940   -0.1380 H   0  0  0  0  0  0  0  0  0  0  0  0
    0.8520    0.0810    1.0040 H   0  0  0  0  0  0  0  0  0  0  0  0
    1.2110    0.2970   -2.0630 H   0  0  0  0  0  0  0  0  0  0  0  0
    2.4410    0.6480   -0.8560 H   0  0  0  0  0  0  0  0  0  0  0  0
    1.1160   -2.1340   -1.2270 H   0  0  0  0  0  0  0  0  0  0  0  0
    2.6210   -1.6560   -1.9910 H   0  0  0  0  0  0  0  0  0  0  0  0
    3.0040   -2.9780    0.1180 H   0  0  0  0  0  0  0  0  0  0  0  0
    2.1310   -1.8020    1.0680 H   0  0  0  0  0  0  0  0  0  0  0  0
    4.9920   -2.1560   -1.3250 H   0  0  0  0  0  0  0  0  0  0  0  0
    5.4230    1.3920    2.1560 H   0  0  0  0  0  0  0  0  0  0  0  0
    3.3200    0.1000    1.9440 H   0  0  0  0  0  0  0  0  0  0  0  0
    8.2130    0.7920    0.1590 H   0  0  0  0  0  0  0  0  0  0  0  0
    7.2080   -1.6240   -1.7740 H   0  0  0  0  0  0  0  0  0  0  0  0
   -2.3570   -0.6350    1.4360 H   0  0  0  0  0  0  0  0  0  0  0  0
  1 27  1  0
  1  6  2  0
  1  2  1  0
  2 28  1  0
  2  3  2  0
  3  4  1  0
  3 26  1  0
  4  5  2  0
  4  8  1  0
  5  6  1  0
  5  7  1  0
  6 29  1  0
  7 30  1  0
  8 10  1  0
  8  9  2  0
 10 11  1  0
 10 31  1  0
 10 32  1  0
 11 34  1  0
 11 12  1  0
 11 33  1  0
 12 35  1  0
 12 36  1  0
 12 13  1  0
 13 38  1  0
 13 14  1  0
 13 37  1  0
 14 15  1  0
 14 39  1  0
 14 40  1  0
 15 41  1  0
 15 16  1  0
 15 42  1  0
 16 44  1  0
 16 43  1  0
 16 17  1  0
 17 45  1  0
 17 18  1  0
 17 46  1  0
 18 19  2  0
 18 23  1  0
 19 47  1  0
 19 20  1  0
 20 25  1  0
 20 21  2  0
 21 24  1  0
 21 22  1  0
 22 23  2  0
 22 48  1  0
 23 49  1  0
 24 50  1  0
 25 51  1  0
 26 52  1  0
M  END
>  <id>  (751) 
861

>  <scaffolds>  (751) 
['c1ccccc1', 'O=C(CCCCCCCCc1ccccc1)c1ccccc1']

>  <name>  (751) 
Malabaricone c

>  <formula>  (751) 
C21H26O5

>  <SMILES>  (751) 
C1=CC(=C(C(=C1)O)C(=O)CCCCCCCCC2=CC(=C(C=C2)O)O)O

>  <ChEMBL_id>  (751) 
SCHEMBL7784918

>  <ZINC_id>  (751) 
nan

>  <PubChem_id>  (751) 
100313

>  <DrugBank_id>  (751) 


>  <CAS_no>  (751) 
63335-25-1

>  <references>  (751) 
[{'journal': {'name': 'Natural Product Communications', 'id': 47}, 'title': 'HPLC-Guided Isolation, Purification and Characterization of Phenylpropanoid and Phenolic Constituents of Nutmeg Kernel (Myristica fragrans)', 'year': 2016, 'start_page': None, 'volume': None, 'issue': None, 'doi': 'https://0-doi.org.wam.seals.ac.za/10.1177/1934578X1601100416', 'isbn': '', 'despositor': {'code': 'BND', 'first_name': "Bakary N'tji", 'last_name': 'Diallo', 'id': 26}, 'refauthors_set': [{'author': {'first_name': 'Sharon ', 'initials': 'SC', 'last_name': 'Chiu', 'id': 958}, 'first_author': True, 'id': 1545}], 'id': 434}]

>  <classifications>  (751) 
[{'classification': 'Resorcinols', 'id': 894}, {'classification': 'Organooxygen compounds (Classyfire)', 'id': 954}]

>  <molecular_mass>  (751) 
358.18

$$$$
SANC00862_minRM1.pdb
     RDKit          3D

 51 52  0  0  0  0  0  0  0  0999 V2000
   -5.6180   -2.9340    0.3730 C   0  0  0  0  0  0  0  0  0  0  0  0
   -6.2450   -1.7590    0.7710 C   0  0  0  0  0  0  0  0  0  0  0  0
   -5.6620   -0.5380    0.4340 C   0  0  0  0  0  0  0  0  0  0  0  0
   -4.4550   -0.4610   -0.2730 C   0  0  0  0  0  0  0  0  0  0  0  0
   -3.8860   -1.6640   -0.7070 C   0  0  0  0  0  0  0  0  0  0  0  0
   -4.4520   -2.9020   -0.3740 C   0  0  0  0  0  0  0  0  0  0  0  0
   -2.7390   -1.7550   -1.4120 O   0  0  0  0  0  0  0  0  0  0  0  0
   -3.7970    0.8340   -0.5110 C   0  0  0  0  0  0  0  0  0  0  0  0
   -3.4750    1.1890   -1.6330 O   0  0  0  0  0  0  0  0  0  0  0  0
   -3.5240    1.6980    0.6940 C   0  0  0  0  0  0  0  0  0  0  0  0
   -2.0300    2.0060    0.7840 C   0  0  0  0  0  0  0  0  0  0  0  0
   -1.2310    0.7440    1.0890 C   0  0  0  0  0  0  0  0  0  0  0  0
    0.2540    1.0420    1.2900 C   0  0  0  0  0  0  0  0  0  0  0  0
    0.9480    1.4150   -0.0170 C   0  0  0  0  0  0  0  0  0  0  0  0
    2.4460    1.6130    0.2090 C   0  0  0  0  0  0  0  0  0  0  0  0
    3.1450    1.9760   -1.0980 C   0  0  0  0  0  0  0  0  0  0  0  0
    4.6410    2.2040   -0.8790 C   0  0  0  0  0  0  0  0  0  0  0  0
    5.3080    0.9440   -0.4350 C   0  0  0  0  0  0  0  0  0  0  0  0
    5.4950   -0.0880   -1.3490 C   0  0  0  0  0  0  0  0  0  0  0  0
    6.1100   -1.2710   -0.9640 C   0  0  0  0  0  0  0  0  0  0  0  0
    6.5400   -1.4050    0.3560 C   0  0  0  0  0  0  0  0  0  0  0  0
    6.3640   -0.3780    1.2880 C   0  0  0  0  0  0  0  0  0  0  0  0
    5.7440    0.7920    0.8800 C   0  0  0  0  0  0  0  0  0  0  0  0
    7.1530   -2.5200    0.8300 O   0  0  0  0  0  0  0  0  0  0  0  0
   -6.3360    0.5560    0.8670 O   0  0  0  0  0  0  0  0  0  0  0  0
   -6.0620   -3.8980    0.6420 H   0  0  0  0  0  0  0  0  0  0  0  0
   -7.1800   -1.7870    1.3380 H   0  0  0  0  0  0  0  0  0  0  0  0
   -3.9740   -3.8280   -0.7050 H   0  0  0  0  0  0  0  0  0  0  0  0
   -2.5250   -0.9130   -1.8310 H   0  0  0  0  0  0  0  0  0  0  0  0
   -4.1040    2.6430    0.6080 H   0  0  0  0  0  0  0  0  0  0  0  0
   -3.8830    1.2260    1.6320 H   0  0  0  0  0  0  0  0  0  0  0  0
   -1.8580    2.7720    1.5700 H   0  0  0  0  0  0  0  0  0  0  0  0
   -1.6840    2.4860   -0.1560 H   0  0  0  0  0  0  0  0  0  0  0  0
   -1.6340    0.2520    2.0010 H   0  0  0  0  0  0  0  0  0  0  0  0
   -1.3680   -0.0120    0.2870 H   0  0  0  0  0  0  0  0  0  0  0  0
    0.7480    0.1540    1.7400 H   0  0  0  0  0  0  0  0  0  0  0  0
    0.3890    1.8450    2.0450 H   0  0  0  0  0  0  0  0  0  0  0  0
    0.5040    2.3350   -0.4500 H   0  0  0  0  0  0  0  0  0  0  0  0
    0.7750    0.6300   -0.7830 H   0  0  0  0  0  0  0  0  0  0  0  0
    2.8990    0.6970    0.6440 H   0  0  0  0  0  0  0  0  0  0  0  0
    2.6200    2.4020    0.9710 H   0  0  0  0  0  0  0  0  0  0  0  0
    2.9820    1.1850   -1.8600 H   0  0  0  0  0  0  0  0  0  0  0  0
    2.6900    2.8880   -1.5400 H   0  0  0  0  0  0  0  0  0  0  0  0
    5.1140    2.5710   -1.8150 H   0  0  0  0  0  0  0  0  0  0  0  0
    4.8050    3.0300   -0.1540 H   0  0  0  0  0  0  0  0  0  0  0  0
    5.1580    0.0280   -2.3850 H   0  0  0  0  0  0  0  0  0  0  0  0
    6.2510   -2.0750   -1.6910 H   0  0  0  0  0  0  0  0  0  0  0  0
    6.7090   -0.5020    2.3180 H   0  0  0  0  0  0  0  0  0  0  0  0
    5.6000    1.6000    1.6050 H   0  0  0  0  0  0  0  0  0  0  0  0
    7.2240   -3.1610    0.1150 H   0  0  0  0  0  0  0  0  0  0  0  0
   -6.1440    1.2990    0.2830 H   0  0  0  0  0  0  0  0  0  0  0  0
  1  6  2  0
  1 26  1  0
  1  2  1  0
  2  3  2  0
  2 27  1  0
  3  4  1  0
  3 25  1  0
  4  5  2  0
  4  8  1  0
  5  7  1  0
  5  6  1  0
  6 28  1  0
  7 29  1  0
  8  9  2  0
  8 10  1  0
 10 30  1  0
 10 11  1  0
 10 31  1  0
 11 33  1  0
 11 12  1  0
 11 32  1  0
 12 35  1  0
 12 13  1  0
 12 34  1  0
 13 14  1  0
 13 36  1  0
 13 37  1  0
 14 39  1  0
 14 38  1  0
 14 15  1  0
 15 16  1  0
 15 40  1  0
 15 41  1  0
 16 42  1  0
 16 43  1  0
 16 17  1  0
 17 44  1  0
 17 18  1  0
 17 45  1  0
 18 19  2  0
 18 23  1  0
 19 46  1  0
 19 20  1  0
 20 47  1  0
 20 21  2  0
 21 24  1  0
 21 22  1  0
 22 23  2  0
 22 48  1  0
 23 49  1  0
 24 50  1  0
 25 51  1  0
M  END
>  <id>  (752) 
862

>  <scaffolds>  (752) 
['c1ccccc1', 'O=C(CCCCCCCCc1ccccc1)c1ccccc1']

>  <name>  (752) 
Malabaricone b

>  <formula>  (752) 
C21H26O4

>  <SMILES>  (752) 
C1=CC(=C(C(=C1)O)C(=O)CCCCCCCCC2=CC=C(C=C2)O)O

>  <ChEMBL_id>  (752) 
CHEMBL489354

>  <ZINC_id>  (752) 


>  <PubChem_id>  (752) 
163001

>  <DrugBank_id>  (752) 


>  <CAS_no>  (752) 
63335-24-0

>  <references>  (752) 
[{'journal': {'name': 'Natural Product Communications', 'id': 47}, 'title': 'HPLC-Guided Isolation, Purification and Characterization of Phenylpropanoid and Phenolic Constituents of Nutmeg Kernel (Myristica fragrans)', 'year': 2016, 'start_page': None, 'volume': None, 'issue': None, 'doi': 'https://0-doi.org.wam.seals.ac.za/10.1177/1934578X1601100416', 'isbn': '', 'despositor': {'code': 'BND', 'first_name': "Bakary N'tji", 'last_name': 'Diallo', 'id': 26}, 'refauthors_set': [{'author': {'first_name': 'Sharon ', 'initials': 'SC', 'last_name': 'Chiu', 'id': 958}, 'first_author': True, 'id': 1545}], 'id': 434}]

>  <classifications>  (752) 
[{'classification': 'Resorcinols', 'id': 894}, {'classification': 'Organooxygen compounds (Classyfire)', 'id': 954}]

>  <molecular_mass>  (752) 
342.18

$$$$
SANC00863_minRM1.pdb
     RDKit          3D

 44 47  0  0  1  0  0  0  0  0999 V2000
    6.7510   -1.4500   -2.0640 C   0  0  0  0  0  0  0  0  0  0  0  0
    5.4860   -0.8250   -1.6060 C   0  0  0  0  0  0  0  0  0  0  0  0
    4.8310   -1.2380   -0.5210 C   0  0  0  0  0  0  0  0  0  0  0  0
    3.5860   -0.6130   -0.0830 C   0  0  0  0  0  0  0  0  0  0  0  0
    2.5180   -1.4360    0.2910 C   0  0  0  0  0  0  0  0  0  0  0  0
    1.3480   -0.8340    0.6960 C   0  0  0  0  0  0  0  0  0  0  0  0
    1.2410    0.5580    0.7430 C   0  0  0  0  0  0  0  0  0  0  0  0
    2.3010    1.3830    0.3790 C   0  0  0  0  0  0  0  0  0  0  0  0
    3.4880    0.7770   -0.0410 C   0  0  0  0  0  0  0  0  0  0  0  0
    2.0530    2.7220    0.4320 O   0  0  0  0  0  0  0  0  0  0  0  0
    3.1790    3.5620    0.4410 C   0  0  0  0  0  0  0  0  0  0  0  0
    0.0280    1.0060    1.1820 O   0  0  0  0  0  0  0  0  0  0  0  0
   -0.8010   -0.1360    1.4070 C   0  0  2  0  0  0  0  0  0  0  0  0
    0.0500   -1.4210    1.1390 C   0  0  2  0  0  0  0  0  0  0  0  0
    0.2190   -2.2620    2.3910 C   0  0  0  0  0  0  0  0  0  0  0  0
   -1.9670   -0.0650    0.4640 C   0  0  0  0  0  0  0  0  0  0  0  0
   -3.2610   -0.2410    0.9840 C   0  0  0  0  0  0  0  0  0  0  0  0
   -4.2800   -0.1840    0.0680 C   0  0  0  0  0  0  0  0  0  0  0  0
   -4.0530    0.0420   -1.3030 C   0  0  0  0  0  0  0  0  0  0  0  0
   -2.7930    0.2190   -1.8160 C   0  0  0  0  0  0  0  0  0  0  0  0
   -1.7410    0.1560   -0.8880 C   0  0  0  0  0  0  0  0  0  0  0  0
   -5.2510    0.0500   -1.9670 O   0  0  0  0  0  0  0  0  0  0  0  0
   -6.2570   -0.1720   -0.9820 C   0  0  0  0  0  0  0  0  0  0  0  0
   -5.6260   -0.3230    0.2880 O   0  0  0  0  0  0  0  0  0  0  0  0
    6.6480   -1.8580   -3.0810 H   0  0  0  0  0  0  0  0  0  0  0  0
    7.5690   -0.7140   -2.0970 H   0  0  0  0  0  0  0  0  0  0  0  0
    7.0980   -2.2780   -1.4260 H   0  0  0  0  0  0  0  0  0  0  0  0
    5.1150   -0.0030   -2.2290 H   0  0  0  0  0  0  0  0  0  0  0  0
    5.1850   -2.0730    0.0940 H   0  0  0  0  0  0  0  0  0  0  0  0
    2.6060   -2.5250    0.2590 H   0  0  0  0  0  0  0  0  0  0  0  0
    4.3530    1.3780   -0.3320 H   0  0  0  0  0  0  0  0  0  0  0  0
    3.6770    3.6170   -0.5420 H   0  0  0  0  0  0  0  0  0  0  0  0
    3.9270    3.3020    1.2080 H   0  0  0  0  0  0  0  0  0  0  0  0
    2.7590    4.5530    0.6750 H   0  0  0  0  0  0  0  0  0  0  0  0
   -1.1240   -0.0550    2.4750 H   0  0  0  0  0  0  0  0  0  0  0  0
   -0.4010   -2.0400    0.3260 H   0  0  0  0  0  0  0  0  0  0  0  0
    0.8630   -3.1340    2.2050 H   0  0  0  0  0  0  0  0  0  0  0  0
    0.6800   -1.7000    3.2170 H   0  0  0  0  0  0  0  0  0  0  0  0
   -0.7430   -2.6450    2.7590 H   0  0  0  0  0  0  0  0  0  0  0  0
   -3.4530   -0.4110    2.0450 H   0  0  0  0  0  0  0  0  0  0  0  0
   -2.6160    0.3980   -2.8780 H   0  0  0  0  0  0  0  0  0  0  0  0
   -0.7170    0.2940   -1.2510 H   0  0  0  0  0  0  0  0  0  0  0  0
   -6.9470    0.7000   -0.9530 H   0  0  0  0  0  0  0  0  0  0  0  0
   -6.8210   -1.0980   -1.2290 H   0  0  0  0  0  0  0  0  0  0  0  0
  1 25  1  0
  1 26  1  0
  1  2  1  0
  1 27  1  0
  2 28  1  0
  2  3  2  0
  3  4  1  0
  3 29  1  0
  4  9  2  0
  4  5  1  0
  5 30  1  0
  5  6  2  0
  6  7  1  0
  6 14  1  0
  7  8  2  0
  7 12  1  0
  8  9  1  0
  8 10  1  0
  9 31  1  0
 10 11  1  0
 11 32  1  0
 11 34  1  0
 11 33  1  0
 12 13  1  0
 13 16  1  0
 13 14  1  0
 13 35  1  1
 14 36  1  6
 14 15  1  0
 15 37  1  0
 15 39  1  0
 15 38  1  0
 16 21  2  0
 16 17  1  0
 17 18  2  0
 17 40  1  0
 18 19  1  0
 18 24  1  0
 19 22  1  0
 19 20  2  0
 20 41  1  0
 20 21  1  0
 21 42  1  0
 22 23  1  0
 23 44  1  0
 23 43  1  0
 23 24  1  0
M  END
>  <id>  (753) 
863

>  <scaffolds>  (753) 
['c1ccccc1', 'c1ccc(CCc2ccccc2)cc1', 'c1ccc2c(c1)CC(c1ccc3c(c1)OCO3)O2', 'c1ccc2c(c1)OCO2']

>  <name>  (753) 
Licarin b

>  <formula>  (753) 
C20H20O4

>  <SMILES>  (753) 
C/C=C/C1=CC2=C(C(=C1)OC)O[C@H]([C@@H]2C)C3=CC4=C(C=C3)OCO4

>  <ChEMBL_id>  (753) 
SCHEMBL12604783

>  <ZINC_id>  (753) 
ZINC1587485

>  <PubChem_id>  (753) 
6441061

>  <DrugBank_id>  (753) 


>  <CAS_no>  (753) 
51020-87-2

>  <references>  (753) 
[{'journal': {'name': 'Natural Product Communications', 'id': 47}, 'title': 'HPLC-Guided Isolation, Purification and Characterization of Phenylpropanoid and Phenolic Constituents of Nutmeg Kernel (Myristica fragrans)', 'year': 2016, 'start_page': None, 'volume': None, 'issue': None, 'doi': 'https://0-doi.org.wam.seals.ac.za/10.1177/1934578X1601100416', 'isbn': '', 'despositor': {'code': 'BND', 'first_name': "Bakary N'tji", 'last_name': 'Diallo', 'id': 26}, 'refauthors_set': [{'author': {'first_name': 'Sharon ', 'initials': 'SC', 'last_name': 'Chiu', 'id': 958}, 'first_author': True, 'id': 1545}], 'id': 434}]

>  <classifications>  (753) 
[{'classification': 'Lignans', 'id': 893}, {'classification': '2-arylbenzofuran flavonoids (Classyfire)', 'id': 1005}]

>  <molecular_mass>  (753) 
324.14

$$$$
SANC00864_minRM1.pdb
     RDKit          3D

 31 31  0  0  0  0  0  0  0  0999 V2000
   -5.0950   -0.7380    0.0270 C   0  0  0  0  0  0  0  0  0  0  0  0
   -3.6790   -0.3550   -0.1980 C   0  0  0  0  0  0  0  0  0  0  0  0
   -2.6660   -0.9380    0.4430 C   0  0  0  0  0  0  0  0  0  0  0  0
   -1.2780   -0.5500    0.2030 C   0  0  0  0  0  0  0  0  0  0  0  0
   -0.9350    0.7990    0.1880 C   0  0  0  0  0  0  0  0  0  0  0  0
    0.3930    1.1530   -0.0470 C   0  0  0  0  0  0  0  0  0  0  0  0
    1.3590    0.1680   -0.2820 C   0  0  0  0  0  0  0  0  0  0  0  0
    0.9950   -1.1840   -0.2280 C   0  0  0  0  0  0  0  0  0  0  0  0
   -0.3270   -1.5500    0.0100 C   0  0  0  0  0  0  0  0  0  0  0  0
    2.0380   -2.0420   -0.3960 O   0  0  0  0  0  0  0  0  0  0  0  0
    1.7220   -3.3950   -0.6080 C   0  0  0  0  0  0  0  0  0  0  0  0
    2.6260    0.5230   -0.6470 O   0  0  0  0  0  0  0  0  0  0  0  0
    3.4810    0.6520    0.4670 C   0  0  0  0  0  0  0  0  0  0  0  0
    0.8890    2.4200   -0.0460 O   0  0  0  0  0  0  0  0  0  0  0  0
   -0.0460    3.4700   -0.0700 C   0  0  0  0  0  0  0  0  0  0  0  0
   -5.2340   -1.5020    0.8060 H   0  0  0  0  0  0  0  0  0  0  0  0
   -5.5480   -1.1390   -0.8930 H   0  0  0  0  0  0  0  0  0  0  0  0
   -5.7000    0.1310    0.3270 H   0  0  0  0  0  0  0  0  0  0  0  0
   -3.5160    0.4340   -0.9410 H   0  0  0  0  0  0  0  0  0  0  0  0
   -2.8180   -1.7400    1.1730 H   0  0  0  0  0  0  0  0  0  0  0  0
   -1.7070    1.5480    0.3740 H   0  0  0  0  0  0  0  0  0  0  0  0
   -0.6420   -2.5950    0.0470 H   0  0  0  0  0  0  0  0  0  0  0  0
    2.6970   -3.8510   -0.8440 H   0  0  0  0  0  0  0  0  0  0  0  0
    1.3120   -3.8860    0.2900 H   0  0  0  0  0  0  0  0  0  0  0  0
    1.0380   -3.5620   -1.4560 H   0  0  0  0  0  0  0  0  0  0  0  0
    4.4490    0.9390    0.0310 H   0  0  0  0  0  0  0  0  0  0  0  0
    3.1550    1.4380    1.1690 H   0  0  0  0  0  0  0  0  0  0  0  0
    3.6030   -0.2900    1.0260 H   0  0  0  0  0  0  0  0  0  0  0  0
    0.5800    4.3660   -0.1990 H   0  0  0  0  0  0  0  0  0  0  0  0
   -0.7570    3.4100   -0.9100 H   0  0  0  0  0  0  0  0  0  0  0  0
   -0.6080    3.5650    0.8740 H   0  0  0  0  0  0  0  0  0  0  0  0
  1 17  1  0
  1  2  1  0
  1 18  1  0
  1 16  1  0
  2 19  1  0
  2  3  2  0
  3  4  1  0
  3 20  1  0
  4  9  2  0
  4  5  1  0
  5  6  2  0
  5 21  1  0
  6  7  1  0
  6 14  1  0
  7 12  1  0
  7  8  2  0
  8 10  1  0
  8  9  1  0
  9 22  1  0
 10 11  1  0
 11 25  1  0
 11 23  1  0
 11 24  1  0
 12 13  1  0
 13 26  1  0
 13 28  1  0
 13 27  1  0
 14 15  1  0
 15 30  1  0
 15 29  1  0
 15 31  1  0
M  END
>  <id>  (754) 
864

>  <scaffolds>  (754) 
['c1ccccc1']

>  <name>  (754) 
Isoelemicin

>  <formula>  (754) 
C12H16O3

>  <SMILES>  (754) 
C/C=C/C1=CC(=C(C(=C1)OC)OC)OC

>  <ChEMBL_id>  (754) 
SCHEMBL8350155

>  <ZINC_id>  (754) 
ZINC1747260

>  <PubChem_id>  (754) 
5318557

>  <DrugBank_id>  (754) 


>  <CAS_no>  (754) 
487-12-7

>  <references>  (754) 
[{'journal': {'name': 'Natural Product Communications', 'id': 47}, 'title': 'HPLC-Guided Isolation, Purification and Characterization of Phenylpropanoid and Phenolic Constituents of Nutmeg Kernel (Myristica fragrans)', 'year': 2016, 'start_page': None, 'volume': None, 'issue': None, 'doi': 'https://0-doi.org.wam.seals.ac.za/10.1177/1934578X1601100416', 'isbn': '', 'despositor': {'code': 'BND', 'first_name': "Bakary N'tji", 'last_name': 'Diallo', 'id': 26}, 'refauthors_set': [{'author': {'first_name': 'Sharon ', 'initials': 'SC', 'last_name': 'Chiu', 'id': 958}, 'first_author': True, 'id': 1545}], 'id': 434}]

>  <classifications>  (754) 
[{'classification': 'Phenols', 'id': 895}, {'classification': 'Phenol ethers (Classyfire)', 'id': 969}]

>  <molecular_mass>  (754) 
208.11

$$$$
SANC00865_minRM1.pdb
     RDKit          3D

 26 27  0  0  0  0  0  0  0  0999 V2000
   -0.3200   -3.3250    0.2690 C   0  0  0  0  0  0  0  0  0  0  0  0
   -1.1790   -2.2130    0.2170 O   0  0  0  0  0  0  0  0  0  0  0  0
   -0.5980   -0.9990    0.0250 C   0  0  0  0  0  0  0  0  0  0  0  0
    0.7710   -0.7340   -0.1410 C   0  0  0  0  0  0  0  0  0  0  0  0
    1.2280    0.5670   -0.3300 C   0  0  0  0  0  0  0  0  0  0  0  0
    0.3630    1.6700   -0.3680 C   0  0  0  0  0  0  0  0  0  0  0  0
   -0.9730    1.3850   -0.2050 C   0  0  0  0  0  0  0  0  0  0  0  0
   -1.4570    0.0840   -0.0110 C   0  0  0  0  0  0  0  0  0  0  0  0
   -2.8220    0.1090    0.1210 O   0  0  0  0  0  0  0  0  0  0  0  0
   -3.2000    1.4780    0.0050 C   0  0  0  0  0  0  0  0  0  0  0  0
   -2.0240    2.2610   -0.1990 O   0  0  0  0  0  0  0  0  0  0  0  0
    2.6960    0.7850   -0.5180 C   0  0  0  0  0  0  0  0  0  0  0  0
    3.4740    0.0990    0.5560 C   0  0  0  0  0  0  0  0  0  0  0  0
    4.5840   -0.5850    0.3110 C   0  0  0  0  0  0  0  0  0  0  0  0
    0.3980   -3.2830    1.1050 H   0  0  0  0  0  0  0  0  0  0  0  0
   -1.0080   -4.1680    0.4360 H   0  0  0  0  0  0  0  0  0  0  0  0
    0.2280   -3.4970   -0.6720 H   0  0  0  0  0  0  0  0  0  0  0  0
    1.5030   -1.5460   -0.1280 H   0  0  0  0  0  0  0  0  0  0  0  0
    0.7140    2.6910   -0.5160 H   0  0  0  0  0  0  0  0  0  0  0  0
   -3.8840    1.6040   -0.8630 H   0  0  0  0  0  0  0  0  0  0  0  0
   -3.7050    1.8070    0.9400 H   0  0  0  0  0  0  0  0  0  0  0  0
    2.9840    0.4380   -1.5350 H   0  0  0  0  0  0  0  0  0  0  0  0
    2.9610    1.8650   -0.5100 H   0  0  0  0  0  0  0  0  0  0  0  0
    3.0790    0.2120    1.5710 H   0  0  0  0  0  0  0  0  0  0  0  0
    5.1670   -1.0670    1.0890 H   0  0  0  0  0  0  0  0  0  0  0  0
    5.0120   -0.7240   -0.6770 H   0  0  0  0  0  0  0  0  0  0  0  0
  1 17  1  0
  1  2  1  0
  1 16  1  0
  1 15  1  0
  2  3  1  0
  3  4  2  0
  3  8  1  0
  4  5  1  0
  4 18  1  0
  5 12  1  0
  5  6  2  0
  6 19  1  0
  6  7  1  0
  7 11  1  0
  7  8  2  0
  8  9  1  0
  9 10  1  0
 10 20  1  0
 10 11  1  0
 10 21  1  0
 12 22  1  0
 12 23  1  0
 12 13  1  0
 13 14  2  0
 13 24  1  0
 14 26  1  0
 14 25  1  0
M  END
>  <id>  (755) 
865

>  <scaffolds>  (755) 
['c1ccccc1', 'c1ccc2c(c1)OCO2']

>  <name>  (755) 
Myristicin

>  <formula>  (755) 
C11H12O3

>  <SMILES>  (755) 
COC1=CC(=CC2=C1OCO2)CC=C

>  <ChEMBL_id>  (755) 
CHEMBL481044

>  <ZINC_id>  (755) 
ZINC403089

>  <PubChem_id>  (755) 
4276

>  <DrugBank_id>  (755) 


>  <CAS_no>  (755) 
607-91-0

>  <references>  (755) 
[{'journal': {'name': 'Natural Product Communications', 'id': 47}, 'title': 'HPLC-Guided Isolation, Purification and Characterization of Phenylpropanoid and Phenolic Constituents of Nutmeg Kernel (Myristica fragrans)', 'year': 2016, 'start_page': None, 'volume': None, 'issue': None, 'doi': 'https://0-doi.org.wam.seals.ac.za/10.1177/1934578X1601100416', 'isbn': '', 'despositor': {'code': 'BND', 'first_name': "Bakary N'tji", 'last_name': 'Diallo', 'id': 26}, 'refauthors_set': [{'author': {'first_name': 'Sharon ', 'initials': 'SC', 'last_name': 'Chiu', 'id': 958}, 'first_author': True, 'id': 1545}], 'id': 434}]

>  <classifications>  (755) 
[{'classification': 'Benzodioxoles', 'id': 896}, {'classification': 'Benzodioxoles (Classyfire)', 'id': 1006}]

>  <molecular_mass>  (755) 
192.08

$$$$
SANC00866_minRM1.pdb
     RDKit          3D

 52 55  0  0  1  0  0  0  0  0999 V2000
    5.0500    0.7810    1.1420 C   0  0  0  0  0  0  0  0  0  0  0  0
    6.4180    0.9800    1.3070 C   0  0  0  0  0  0  0  0  0  0  0  0
    7.3120    0.3030    0.4860 C   0  0  0  0  0  0  0  0  0  0  0  0
    6.8340   -0.5750   -0.5100 C   0  0  0  0  0  0  0  0  0  0  0  0
    5.4690   -0.7680   -0.6760 C   0  0  0  0  0  0  0  0  0  0  0  0
    4.5840   -0.0870    0.1640 C   0  0  0  0  0  0  0  0  0  0  0  0
    3.1500   -0.3310    0.0070 C   0  0  0  0  0  0  0  0  0  0  0  0
    2.5850   -1.5270   -0.2120 C   0  0  0  0  0  0  0  0  0  0  0  0
    1.1310   -1.6650   -0.3450 C   0  0  0  0  0  0  0  0  0  0  0  0
    0.6050   -2.7200   -0.6500 O   0  0  0  0  0  0  0  0  0  0  0  0
    0.3920   -0.4330   -0.0740 C   0  0  0  0  0  0  0  0  0  0  0  0
    1.0850    0.7580    0.1400 C   0  0  0  0  0  0  0  0  0  0  0  0
    2.4450    0.8370    0.1170 O   0  0  0  0  0  0  0  0  0  0  0  0
    0.4500    1.9700    0.4120 C   0  0  0  0  0  0  0  0  0  0  0  0
   -0.9420    1.9620    0.4690 C   0  0  0  0  0  0  0  0  0  0  0  0
   -1.7000    0.8030    0.2500 C   0  0  0  0  0  0  0  0  0  0  0  0
   -1.0140   -0.3940   -0.0070 C   0  0  0  0  0  0  0  0  0  0  0  0
   -1.6270   -1.5650   -0.2030 O   0  0  0  0  0  0  0  0  0  0  0  0
   -3.1930    0.8520    0.2570 C   0  0  1  0  0  0  0  0  0  0  0  0
   -3.7410    0.9580   -1.1920 C   0  0  1  0  0  0  0  0  0  0  0  0
   -5.2880    0.8560   -1.1550 C   0  0  2  0  0  0  0  0  0  0  0  0
   -5.6700   -0.4720   -0.4560 C   0  0  1  0  0  0  0  0  0  0  0  0
   -5.0160   -0.4890    0.9460 C   0  0  2  0  0  0  0  0  0  0  0  0
   -3.6190   -0.3680    0.8200 O   0  0  0  0  0  0  0  0  0  0  0  0
   -5.2240   -1.8640    1.6240 C   0  0  0  0  0  0  0  0  0  0  0  0
   -4.8100   -1.8100    2.9500 O   0  0  0  0  0  0  0  0  0  0  0  0
   -7.0400   -0.6480   -0.3500 O   0  0  0  0  0  0  0  0  0  0  0  0
   -5.8230    0.7610   -2.4360 O   0  0  0  0  0  0  0  0  0  0  0  0
   -3.3410    2.1290   -1.8180 O   0  0  0  0  0  0  0  0  0  0  0  0
   -1.4930    3.1670    0.7390 O   0  0  0  0  0  0  0  0  0  0  0  0
    7.7890   -1.1790   -1.2570 O   0  0  0  0  0  0  0  0  0  0  0  0
    8.6570    0.4180    0.5640 O   0  0  0  0  0  0  0  0  0  0  0  0
    4.3500    1.3140    1.7930 H   0  0  0  0  0  0  0  0  0  0  0  0
    6.7740    1.6660    2.0810 H   0  0  0  0  0  0  0  0  0  0  0  0
    5.0880   -1.4350   -1.4550 H   0  0  0  0  0  0  0  0  0  0  0  0
    3.1830   -2.4400   -0.2830 H   0  0  0  0  0  0  0  0  0  0  0  0
    1.0200    2.8890    0.5730 H   0  0  0  0  0  0  0  0  0  0  0  0
   -2.5800   -1.5040    0.0030 H   0  0  0  0  0  0  0  0  0  0  0  0
   -3.5660    1.7180    0.8790 H   0  0  0  0  0  0  0  0  0  0  0  0
   -3.3050    0.1570   -1.8480 H   0  0  0  0  0  0  0  0  0  0  0  0
   -5.7230    1.7380   -0.6070 H   0  0  0  0  0  0  0  0  0  0  0  0
   -5.3410   -1.3520   -1.0700 H   0  0  0  0  0  0  0  0  0  0  0  0
   -5.4330    0.3260    1.5980 H   0  0  0  0  0  0  0  0  0  0  0  0
   -4.7350   -2.6790    1.0410 H   0  0  0  0  0  0  0  0  0  0  0  0
   -6.3080   -2.1110    1.6720 H   0  0  0  0  0  0  0  0  0  0  0  0
   -3.8480   -1.7730    2.9650 H   0  0  0  0  0  0  0  0  0  0  0  0
   -7.4360    0.1560    0.0030 H   0  0  0  0  0  0  0  0  0  0  0  0
   -5.4710    1.4860   -2.9650 H   0  0  0  0  0  0  0  0  0  0  0  0
   -3.5970    2.8820   -1.2740 H   0  0  0  0  0  0  0  0  0  0  0  0
   -2.4110    3.0420    1.0170 H   0  0  0  0  0  0  0  0  0  0  0  0
    7.3550   -1.7660   -1.8870 H   0  0  0  0  0  0  0  0  0  0  0  0
    8.8690    1.0480    1.2630 H   0  0  0  0  0  0  0  0  0  0  0  0
  1  6  2  0
  1  2  1  0
  1 33  1  0
  2  3  2  0
  2 34  1  0
  3  4  1  0
  3 32  1  0
  4 31  1  0
  4  5  2  0
  5 35  1  0
  5  6  1  0
  6  7  1  0
  7  8  2  0
  7 13  1  0
  8  9  1  0
  8 36  1  0
  9 10  2  0
  9 11  1  0
 11 17  2  0
 11 12  1  0
 12 13  1  0
 12 14  2  0
 14 15  1  0
 14 37  1  0
 15 16  2  0
 15 30  1  0
 16 17  1  0
 16 19  1  0
 17 18  1  0
 18 38  1  0
 19 20  1  0
 19 24  1  0
 19 39  1  1
 20 40  1  6
 20 29  1  0
 20 21  1  0
 21 28  1  0
 21 41  1  1
 21 22  1  0
 22 42  1  6
 22 27  1  0
 22 23  1  0
 23 24  1  0
 23 43  1  1
 23 25  1  0
 25 44  1  0
 25 45  1  0
 25 26  1  0
 26 46  1  0
 27 47  1  0
 28 48  1  0
 29 49  1  0
 30 50  1  0
 31 51  1  0
 32 52  1  0
M  END
>  <id>  (756) 
866

>  <scaffolds>  (756) 
['c1ccccc1', 'O=c1cc(-c2ccccc2)oc2ccccc12', 'C1CCOCC1', 'O=c1ccoc2ccccc12', 'O=c1cc(-c2ccccc2)oc2ccc(C3CCCCO3)cc12']

>  <name>  (756) 
Isoorientin

>  <formula>  (756) 
C21H20O11

>  <SMILES>  (756) 
C1=CC(=C(C=C1C2=CC(=O)C3=C(O2)C=C(C(=C3O)[C@H]4[C@@H]([C@H]([C@@H]([C@H](O4)CO)O)O)O)O)O)O

>  <ChEMBL_id>  (756) 
CHEMBL239559

>  <ZINC_id>  (756) 
ZINC4349262

>  <PubChem_id>  (756) 
114776

>  <DrugBank_id>  (756) 


>  <CAS_no>  (756) 
4261-42-1

>  <references>  (756) 
[{'journal': {'name': 'South African Journal of Botany', 'id': 1}, 'title': 'HPTLC fingerprinting of Croton gratissimus leaf extract with Preparative HPLC-MS-isolated marker compounds', 'year': 2018, 'start_page': None, 'volume': None, 'issue': None, 'doi': 'https://doi.org/10.1016/j.sajb.2017.10.004', 'isbn': '', 'despositor': {'code': 'BND', 'first_name': "Bakary N'tji", 'last_name': 'Diallo', 'id': 26}, 'refauthors_set': [{'author': {'first_name': 'J.', 'initials': 'JP', 'last_name': 'Pudumo', 'id': 994}, 'first_author': True, 'id': 1576}], 'id': 474}]

>  <classifications>  (756) 
[{'classification': 'Flavonoids', 'id': 776}, {'classification': 'Flavonoids (Classyfire)', 'id': 941}]

>  <molecular_mass>  (756) 
448.1

$$$$
SANC00867_minRM1.pdb
     RDKit          3D

 69 73  0  0  1  0  0  0  0  0999 V2000
    8.2470    0.5910    0.8320 C   0  0  0  0  0  0  0  0  0  0  0  0
    9.5540    0.8510    1.2230 C   0  0  0  0  0  0  0  0  0  0  0  0
   10.5210    1.0670    0.2410 C   0  0  0  0  0  0  0  0  0  0  0  0
   10.2020    1.0300   -1.1220 C   0  0  0  0  0  0  0  0  0  0  0  0
    8.8930    0.7760   -1.4890 C   0  0  0  0  0  0  0  0  0  0  0  0
    7.9120    0.5490   -0.5180 C   0  0  0  0  0  0  0  0  0  0  0  0
    6.5460    0.2950   -0.9500 C   0  0  0  0  0  0  0  0  0  0  0  0
    5.7270   -0.5500   -0.3130 C   0  0  0  0  0  0  0  0  0  0  0  0
    4.3650   -0.7350   -0.8270 C   0  0  0  0  0  0  0  0  0  0  0  0
    3.9090   -0.3070   -1.8760 O   0  0  0  0  0  0  0  0  0  0  0  0
    3.5960   -1.5000   -0.0060 O   0  0  0  0  0  0  0  0  0  0  0  0
    2.2530   -1.7070   -0.3680 C   0  0  0  0  0  0  0  0  0  0  0  0
    1.4360   -0.4160   -0.1470 C   0  0  2  0  0  0  0  0  0  0  0  0
    1.4730    0.0240    1.3350 C   0  0  2  0  0  0  0  0  0  0  0  0
    0.4780    1.1980    1.5210 C   0  0  1  0  0  0  0  0  0  0  0  0
   -0.9270    0.8060    0.9890 C   0  0  2  0  0  0  0  0  0  0  0  0
   -0.7770    0.2960   -0.4740 C   0  0  1  0  0  0  0  0  0  0  0  0
    0.1190   -0.7960   -0.4540 O   0  0  0  0  0  0  0  0  0  0  0  0
   -1.8930   -0.3650   -1.0400 O   0  0  0  0  0  0  0  0  0  0  0  0
   -3.1210    0.0530   -0.6210 C   0  0  0  0  0  0  0  0  0  0  0  0
   -3.9970   -0.8800   -0.1840 C   0  0  0  0  0  0  0  0  0  0  0  0
   -5.2900   -0.5710    0.1390 O   0  0  0  0  0  0  0  0  0  0  0  0
   -5.7060    0.7190    0.0100 C   0  0  0  0  0  0  0  0  0  0  0  0
   -7.0230    0.9320    0.4160 C   0  0  0  0  0  0  0  0  0  0  0  0
   -7.5210    2.2300    0.3020 C   0  0  0  0  0  0  0  0  0  0  0  0
   -6.7540    3.2910   -0.1930 C   0  0  0  0  0  0  0  0  0  0  0  0
   -5.4420    3.0240   -0.5840 C   0  0  0  0  0  0  0  0  0  0  0  0
   -4.8900    1.7350   -0.4940 C   0  0  0  0  0  0  0  0  0  0  0  0
   -3.5210    1.4410   -0.8950 C   0  0  0  0  0  0  0  0  0  0  0  0
   -2.7700    2.2420   -1.4260 O   0  0  0  0  0  0  0  0  0  0  0  0
   -4.6230    3.9790   -1.0590 O   0  0  0  0  0  0  0  0  0  0  0  0
   -8.7990    2.3880    0.7080 O   0  0  0  0  0  0  0  0  0  0  0  0
   -3.7670   -2.3150   -0.0580 C   0  0  0  0  0  0  0  0  0  0  0  0
   -4.7110   -3.2140   -0.5530 C   0  0  0  0  0  0  0  0  0  0  0  0
   -4.4840   -4.5800   -0.4740 C   0  0  0  0  0  0  0  0  0  0  0  0
   -3.3000   -5.0330    0.1110 C   0  0  0  0  0  0  0  0  0  0  0  0
   -2.3460   -4.1430    0.6160 C   0  0  0  0  0  0  0  0  0  0  0  0
   -2.5870   -2.7820    0.5230 C   0  0  0  0  0  0  0  0  0  0  0  0
   -2.9890   -6.3450    0.2350 O   0  0  0  0  0  0  0  0  0  0  0  0
   -1.7810    1.8920    1.1090 O   0  0  0  0  0  0  0  0  0  0  0  0
    0.4380    1.4120    2.8990 O   0  0  0  0  0  0  0  0  0  0  0  0
    2.7700    0.4790    1.5570 O   0  0  0  0  0  0  0  0  0  0  0  0
   11.8210    1.3280    0.5220 O   0  0  0  0  0  0  0  0  0  0  0  0
    7.4810    0.4350    1.5990 H   0  0  0  0  0  0  0  0  0  0  0  0
    9.8070    0.8850    2.2860 H   0  0  0  0  0  0  0  0  0  0  0  0
   10.9760    1.2040   -1.8750 H   0  0  0  0  0  0  0  0  0  0  0  0
    8.6280    0.7470   -2.5520 H   0  0  0  0  0  0  0  0  0  0  0  0
    6.2190    0.8390   -1.8480 H   0  0  0  0  0  0  0  0  0  0  0  0
    6.0110   -1.1240    0.5730 H   0  0  0  0  0  0  0  0  0  0  0  0
    1.9350   -2.5300    0.3070 H   0  0  0  0  0  0  0  0  0  0  0  0
    2.1380   -2.0760   -1.4130 H   0  0  0  0  0  0  0  0  0  0  0  0
    1.8050    0.4090   -0.8150 H   0  0  0  0  0  0  0  0  0  0  0  0
    1.1940   -0.8320    2.0080 H   0  0  0  0  0  0  0  0  0  0  0  0
    0.8590    2.1100    0.9820 H   0  0  0  0  0  0  0  0  0  0  0  0
   -1.3990    0.0270    1.6420 H   0  0  0  0  0  0  0  0  0  0  0  0
   -0.4620    1.1160   -1.1780 H   0  0  0  0  0  0  0  0  0  0  0  0
   -7.6400    0.1200    0.8080 H   0  0  0  0  0  0  0  0  0  0  0  0
   -7.1710    4.2970   -0.2700 H   0  0  0  0  0  0  0  0  0  0  0  0
   -5.1000    4.8180   -1.1070 H   0  0  0  0  0  0  0  0  0  0  0  0
   -9.0590    3.3110    0.6010 H   0  0  0  0  0  0  0  0  0  0  0  0
   -5.6350   -2.8500   -1.0150 H   0  0  0  0  0  0  0  0  0  0  0  0
   -5.2250   -5.2780   -0.8700 H   0  0  0  0  0  0  0  0  0  0  0  0
   -1.4240   -4.5200    1.0680 H   0  0  0  0  0  0  0  0  0  0  0  0
   -1.8370   -2.0810    0.9020 H   0  0  0  0  0  0  0  0  0  0  0  0
   -3.6880   -6.8720   -0.1690 H   0  0  0  0  0  0  0  0  0  0  0  0
   -1.4530    2.6160    0.5600 H   0  0  0  0  0  0  0  0  0  0  0  0
   -0.2270    2.0860    3.0790 H   0  0  0  0  0  0  0  0  0  0  0  0
    2.8630    0.6280    2.5040 H   0  0  0  0  0  0  0  0  0  0  0  0
   11.9390    1.3370    1.4780 H   0  0  0  0  0  0  0  0  0  0  0  0
  1  6  2  0
  1  2  1  0
  1 44  1  0
  2  3  2  0
  2 45  1  0
  3  4  1  0
  3 43  1  0
  4 46  1  0
  4  5  2  0
  5 47  1  0
  5  6  1  0
  6  7  1  0
  7 48  1  0
  7  8  2  0
  8  9  1  0
  8 49  1  0
  9 10  2  0
  9 11  1  0
 11 12  1  0
 12 51  1  0
 12 13  1  0
 12 50  1  0
 13 52  1  6
 13 18  1  0
 13 14  1  0
 14 15  1  0
 14 42  1  0
 14 53  1  1
 15 54  1  6
 15 16  1  0
 15 41  1  0
 16 17  1  0
 16 40  1  0
 16 55  1  1
 17 56  1  6
 17 19  1  0
 17 18  1  0
 19 20  1  0
 20 29  1  0
 20 21  2  0
 21 33  1  0
 21 22  1  0
 22 23  1  0
 23 28  2  0
 23 24  1  0
 24 25  2  0
 24 57  1  0
 25 26  1  0
 25 32  1  0
 26 27  2  0
 26 58  1  0
 27 31  1  0
 27 28  1  0
 28 29  1  0
 29 30  2  0
 31 59  1  0
 32 60  1  0
 33 34  2  0
 33 38  1  0
 34 61  1  0
 34 35  1  0
 35 62  1  0
 35 36  2  0
 36 39  1  0
 36 37  1  0
 37 38  2  0
 37 63  1  0
 38 64  1  0
 39 65  1  0
 40 66  1  0
 41 67  1  0
 42 68  1  0
 43 69  1  0
M  END
>  <id>  (757) 
867

>  <scaffolds>  (757) 
['c1ccccc1', 'O=c1cc(-c2ccccc2)oc2ccccc12', 'O=c1c(OC2CCCCO2)c(-c2ccccc2)oc2ccccc12', 'C1CCOCC1', 'O=c1ccoc2ccccc12', 'O=C(C=Cc1ccccc1)OCC1CCCC(Oc2c(-c3ccccc3)oc3ccccc3c2=O)O1']

>  <name>  (757) 
Tribuloside 

>  <formula>  (757) 
C30H26O13

>  <SMILES>  (757) 
C1=CC(=CC=C1/C=C/C(=O)OC[C@@H]2[C@H]([C@@H]([C@H]([C@@H](O2)OC3=C(OC4=CC(=CC(=C4C3=O)O)O)C5=CC=C(C=C5)O)O)O)O)O

>  <ChEMBL_id>  (757) 


>  <ZINC_id>  (757) 


>  <PubChem_id>  (757) 


>  <DrugBank_id>  (757) 


>  <CAS_no>  (757) 
20316-62-5

>  <references>  (757) 
[{'journal': {'name': 'South African Journal of Botany', 'id': 1}, 'title': 'HPTLC fingerprinting of Croton gratissimus leaf extract with Preparative HPLC-MS-isolated marker compounds', 'year': 2018, 'start_page': None, 'volume': None, 'issue': None, 'doi': 'https://doi.org/10.1016/j.sajb.2017.10.004', 'isbn': '', 'despositor': {'code': 'BND', 'first_name': "Bakary N'tji", 'last_name': 'Diallo', 'id': 26}, 'refauthors_set': [{'author': {'first_name': 'J.', 'initials': 'JP', 'last_name': 'Pudumo', 'id': 994}, 'first_author': True, 'id': 1576}], 'id': 474}]

>  <classifications>  (757) 
[{'classification': 'Flavonoids', 'id': 776}, {'classification': 'Flavonoids (Classyfire)', 'id': 941}]

>  <molecular_mass>  (757) 
594.52

$$$$
SANC00869_minRM1.pdb
     RDKit          3D

134142  0  0  1  0  0  0  0  0999 V2000
   13.5880   -0.3330   -0.4990 C   0  0  0  0  0  0  0  0  0  0  0  0
   12.7400    0.3590    0.5600 C   0  0  2  0  0  0  0  0  0  0  0  0
   11.6610   -0.5960    1.0800 C   0  0  0  0  0  0  0  0  0  0  0  0
   10.4200    0.1720    1.5130 C   0  0  0  0  0  0  0  0  0  0  0  0
    9.7800    0.8440    0.2810 C   0  0  2  0  0  0  0  0  0  0  0  0
    8.6670    1.8740    0.6750 C   0  0  2  0  0  0  0  0  0  0  0  0
    7.5120    1.5500   -0.2790 C   0  0  1  0  0  0  0  0  0  0  0  0
    8.0340    0.3610   -1.1330 C   0  0  1  0  0  0  0  0  0  0  0  0
    9.1270   -0.1870   -0.4370 O   0  0  0  0  0  0  0  0  0  0  0  0
    6.8980   -0.6760   -1.2370 C   0  0  0  0  0  0  0  0  0  0  0  0
    5.6750    0.1530   -0.8490 C   0  0  2  0  0  0  0  0  0  0  0  0
    6.1930    1.0170    0.3190 C   0  0  2  0  0  0  0  0  0  0  0  0
    5.1410    2.0830    0.6030 C   0  0  0  0  0  0  0  0  0  0  0  0
    3.8140    1.4190    0.9640 C   0  0  0  0  0  0  0  0  0  0  0  0
    3.3310    0.4340   -0.1070 C   0  0  1  0  0  0  0  0  0  0  0  0
    4.4120   -0.6000   -0.4580 C   0  0  1  0  0  0  0  0  0  0  0  0
    3.9540   -1.4850   -1.6160 C   0  0  0  0  0  0  0  0  0  0  0  0
    2.5170   -1.8550   -1.5400 C   0  0  0  0  0  0  0  0  0  0  0  0
    1.6540   -1.3030   -0.6890 C   0  0  0  0  0  0  0  0  0  0  0  0
    2.0560   -0.3040    0.3550 C   0  0  2  0  0  0  0  0  0  0  0  0
    0.9070    0.6970    0.5700 C   0  0  0  0  0  0  0  0  0  0  0  0
    0.1210    0.9070   -0.7170 C   0  0  0  0  0  0  0  0  0  0  0  0
   -0.6000   -0.3890   -1.1270 C   0  0  1  0  0  0  0  0  0  0  0  0
    0.2010   -1.6390   -0.7140 C   0  0  0  0  0  0  0  0  0  0  0  0
   -1.8320   -0.3430   -0.4340 O   0  0  0  0  0  0  0  0  0  0  0  0
   -2.7680   -1.3180   -0.7880 C   0  0  1  0  0  0  0  0  0  0  0  0
   -3.7750   -1.3960    0.4000 C   0  0  1  0  0  0  0  0  0  0  0  0
   -5.0240   -0.5120    0.1540 C   0  0  2  0  0  0  0  0  0  0  0  0
   -4.5420    0.7360   -0.6280 C   0  0  1  0  0  0  0  0  0  0  0  0
   -4.0960    0.2550   -2.0260 C   0  0  2  0  0  0  0  0  0  0  0  0
   -3.3530   -0.9350   -1.9950 O   0  0  0  0  0  0  0  0  0  0  0  0
   -3.2530    1.3310   -2.7500 C   0  0  0  0  0  0  0  0  0  0  0  0
   -4.0540    2.4170   -3.0960 O   0  0  0  0  0  0  0  0  0  0  0  0
   -5.6650    1.5570   -0.8230 O   0  0  0  0  0  0  0  0  0  0  0  0
   -5.5200    2.8940   -0.4250 C   0  0  1  0  0  0  0  0  0  0  0  0
   -6.8200    3.6070   -0.9240 C   0  0  1  0  0  0  0  0  0  0  0  0
   -7.4610    4.3830    0.2520 C   0  0  1  0  0  0  0  0  0  0  0  0
   -6.3280    5.1150    1.0070 C   0  0  2  0  0  0  0  0  0  0  0  0
   -5.4040    4.0440    1.6450 C   0  0  1  0  0  0  0  0  0  0  0  0
   -5.4840    2.8120    0.9790 O   0  0  0  0  0  0  0  0  0  0  0  0
   -3.9610    4.5350    1.6990 C   0  0  0  0  0  0  0  0  0  0  0  0
   -6.8090    5.9880    1.9720 O   0  0  0  0  0  0  0  0  0  0  0  0
   -8.4570    5.2480   -0.1660 O   0  0  0  0  0  0  0  0  0  0  0  0
   -6.4700    4.5710   -1.8700 O   0  0  0  0  0  0  0  0  0  0  0  0
   -5.6410   -0.2050    1.3550 O   0  0  0  0  0  0  0  0  0  0  0  0
   -4.0790   -2.7310    0.6760 O   0  0  0  0  0  0  0  0  0  0  0  0
   -4.7740   -3.4640   -0.2980 C   0  0  1  0  0  0  0  0  0  0  0  0
   -4.1860   -4.9050   -0.2230 C   0  0  1  0  0  0  0  0  0  0  0  0
   -4.5740   -5.5500    1.1280 C   0  0  1  0  0  0  0  0  0  0  0  0
   -6.1090   -5.4580    1.2950 C   0  0  2  0  0  0  0  0  0  0  0  0
   -6.5120   -3.9640    1.2520 C   0  0  1  0  0  0  0  0  0  0  0  0
   -6.1270   -3.4110    0.0130 O   0  0  0  0  0  0  0  0  0  0  0  0
   -8.0300   -3.8110    1.2930 C   0  0  0  0  0  0  0  0  0  0  0  0
   -6.5300   -6.0650    2.4700 O   0  0  0  0  0  0  0  0  0  0  0  0
   -4.1040   -6.8500    1.2150 O   0  0  0  0  0  0  0  0  0  0  0  0
   -4.7680   -5.7050   -1.2050 O   0  0  0  0  0  0  0  0  0  0  0  0
    2.3190   -1.0660    1.6560 C   0  0  0  0  0  0  0  0  0  0  0  0
    6.4360    0.1700    1.5650 C   0  0  0  0  0  0  0  0  0  0  0  0
    9.0960    3.3280    0.5610 C   0  0  0  0  0  0  0  0  0  0  0  0
   10.7870    1.4550   -0.6230 N   0  0  0  0  0  0  0  0  0  0  0  0
   12.1050    1.6460   -0.0040 C   0  0  0  0  0  0  0  0  0  0  0  0
   14.4460    0.2810   -0.8090 H   0  0  0  0  0  0  0  0  0  0  0  0
   13.0190   -0.5630   -1.4110 H   0  0  0  0  0  0  0  0  0  0  0  0
   14.0010   -1.2850   -0.1350 H   0  0  0  0  0  0  0  0  0  0  0  0
   13.4080    0.6490    1.4120 H   0  0  0  0  0  0  0  0  0  0  0  0
   12.0580   -1.1990    1.9230 H   0  0  0  0  0  0  0  0  0  0  0  0
   11.3840   -1.3540    0.3160 H   0  0  0  0  0  0  0  0  0  0  0  0
    9.6950   -0.5050    2.0110 H   0  0  0  0  0  0  0  0  0  0  0  0
   10.6690    0.9310    2.2840 H   0  0  0  0  0  0  0  0  0  0  0  0
    8.3830    1.7080    1.7420 H   0  0  0  0  0  0  0  0  0  0  0  0
    7.2860    2.4270   -0.9310 H   0  0  0  0  0  0  0  0  0  0  0  0
    8.3730    0.6890   -2.1480 H   0  0  0  0  0  0  0  0  0  0  0  0
    7.0470   -1.5530   -0.5780 H   0  0  0  0  0  0  0  0  0  0  0  0
    6.8180   -1.1070   -2.2530 H   0  0  0  0  0  0  0  0  0  0  0  0
    5.4260    0.8200   -1.7190 H   0  0  0  0  0  0  0  0  0  0  0  0
    5.4730    2.7600    1.4170 H   0  0  0  0  0  0  0  0  0  0  0  0
    5.0070    2.7570   -0.2700 H   0  0  0  0  0  0  0  0  0  0  0  0
    3.8920    0.9300    1.9580 H   0  0  0  0  0  0  0  0  0  0  0  0
    3.0330    2.2000    1.1190 H   0  0  0  0  0  0  0  0  0  0  0  0
    3.0850    1.0180   -1.0310 H   0  0  0  0  0  0  0  0  0  0  0  0
    4.6090   -1.2490    0.4390 H   0  0  0  0  0  0  0  0  0  0  0  0
    4.5830   -2.4010   -1.6630 H   0  0  0  0  0  0  0  0  0  0  0  0
    4.1220   -0.9860   -2.5980 H   0  0  0  0  0  0  0  0  0  0  0  0
    2.1950   -2.6040   -2.2730 H   0  0  0  0  0  0  0  0  0  0  0  0
    1.2950    1.6680    0.9500 H   0  0  0  0  0  0  0  0  0  0  0  0
    0.2180    0.3510    1.3700 H   0  0  0  0  0  0  0  0  0  0  0  0
   -0.5940    1.7480   -0.6000 H   0  0  0  0  0  0  0  0  0  0  0  0
    0.7900    1.2290   -1.5430 H   0  0  0  0  0  0  0  0  0  0  0  0
   -0.7760   -0.3930   -2.2360 H   0  0  0  0  0  0  0  0  0  0  0  0
   -0.1160   -2.0120    0.2840 H   0  0  0  0  0  0  0  0  0  0  0  0
   -0.0130   -2.4860   -1.4000 H   0  0  0  0  0  0  0  0  0  0  0  0
   -2.3310   -2.3240   -1.0380 H   0  0  0  0  0  0  0  0  0  0  0  0
   -3.2640   -1.1030    1.3570 H   0  0  0  0  0  0  0  0  0  0  0  0
   -5.8330   -1.0380   -0.4150 H   0  0  0  0  0  0  0  0  0  0  0  0
   -3.7050    1.2450   -0.0800 H   0  0  0  0  0  0  0  0  0  0  0  0
   -4.9890   -0.0180   -2.6520 H   0  0  0  0  0  0  0  0  0  0  0  0
   -2.4610    1.7580   -2.0980 H   0  0  0  0  0  0  0  0  0  0  0  0
   -2.7220    0.8930   -3.6270 H   0  0  0  0  0  0  0  0  0  0  0  0
   -4.6660    2.1270   -3.7810 H   0  0  0  0  0  0  0  0  0  0  0  0
   -4.5880    3.3800   -0.8330 H   0  0  0  0  0  0  0  0  0  0  0  0
   -7.5670    2.8750   -1.3350 H   0  0  0  0  0  0  0  0  0  0  0  0
   -8.0060    3.6660    0.9220 H   0  0  0  0  0  0  0  0  0  0  0  0
   -5.7580    5.7930    0.3190 H   0  0  0  0  0  0  0  0  0  0  0  0
   -5.7560    3.7700    2.6760 H   0  0  0  0  0  0  0  0  0  0  0  0
   -3.2890    3.7780    2.1290 H   0  0  0  0  0  0  0  0  0  0  0  0
   -3.8780    5.4340    2.3260 H   0  0  0  0  0  0  0  0  0  0  0  0
   -3.5490    4.7970    0.7150 H   0  0  0  0  0  0  0  0  0  0  0  0
   -7.5010    5.5460    2.4760 H   0  0  0  0  0  0  0  0  0  0  0  0
   -8.0670    5.9560   -0.6910 H   0  0  0  0  0  0  0  0  0  0  0  0
   -6.1790    4.1090   -2.6620 H   0  0  0  0  0  0  0  0  0  0  0  0
   -5.1340    0.4780    1.8080 H   0  0  0  0  0  0  0  0  0  0  0  0
   -4.7380   -3.0500   -1.3420 H   0  0  0  0  0  0  0  0  0  0  0  0
   -3.0680   -4.8670   -0.3260 H   0  0  0  0  0  0  0  0  0  0  0  0
   -4.0350   -5.0230    1.9590 H   0  0  0  0  0  0  0  0  0  0  0  0
   -6.6470   -6.0390    0.5000 H   0  0  0  0  0  0  0  0  0  0  0  0
   -6.0470   -3.4020    2.1070 H   0  0  0  0  0  0  0  0  0  0  0  0
   -8.4450   -4.2520    2.2100 H   0  0  0  0  0  0  0  0  0  0  0  0
   -8.3320   -2.7530    1.2710 H   0  0  0  0  0  0  0  0  0  0  0  0
   -8.5260   -4.3010    0.4430 H   0  0  0  0  0  0  0  0  0  0  0  0
   -6.0630   -5.6640    3.2110 H   0  0  0  0  0  0  0  0  0  0  0  0
   -4.6110   -7.4090    0.6160 H   0  0  0  0  0  0  0  0  0  0  0  0
   -4.4600   -5.3940   -2.0620 H   0  0  0  0  0  0  0  0  0  0  0  0
    3.1970   -1.7260    1.5750 H   0  0  0  0  0  0  0  0  0  0  0  0
    2.5070   -0.3900    2.5030 H   0  0  0  0  0  0  0  0  0  0  0  0
    1.4760   -1.7060    1.9530 H   0  0  0  0  0  0  0  0  0  0  0  0
    6.4980    0.7750    2.4810 H   0  0  0  0  0  0  0  0  0  0  0  0
    5.6360   -0.5680    1.7420 H   0  0  0  0  0  0  0  0  0  0  0  0
    7.3600   -0.4240    1.5110 H   0  0  0  0  0  0  0  0  0  0  0  0
    8.2810    4.0070    0.8560 H   0  0  0  0  0  0  0  0  0  0  0  0
    9.3960    3.6180   -0.4560 H   0  0  0  0  0  0  0  0  0  0  0  0
    9.9470    3.5560    1.2180 H   0  0  0  0  0  0  0  0  0  0  0  0
   10.8750    0.9300   -1.5030 H   0  0  0  0  0  0  0  0  0  0  0  0
   12.0070    2.4080    0.8050 H   0  0  0  0  0  0  0  0  0  0  0  0
   12.7760    2.1280   -0.7530 H   0  0  0  0  0  0  0  0  0  0  0  0
  1 63  1  0
  1 62  1  0
  1 64  1  0
  1  2  1  0
  2 61  1  0
  2  3  1  0
  2 65  1  1
  3 67  1  0
  3  4  1  0
  3 66  1  0
  4  5  1  0
  4 68  1  0
  4 69  1  0
  5 60  1  0
  5  9  1  6
  5  6  1  0
  6  7  1  0
  6 59  1  0
  6 70  1  1
  7  8  1  0
  7 71  1  6
  7 12  1  0
  8 72  1  6
  8 10  1  0
  8  9  1  0
 10 74  1  0
 10 11  1  0
 10 73  1  0
 11 75  1  6
 11 16  1  0
 11 12  1  0
 12 13  1  0
 12 58  1  1
 13 77  1  0
 13 14  1  0
 13 76  1  0
 14 15  1  0
 14 79  1  0
 14 78  1  0
 15 80  1  6
 15 16  1  0
 15 20  1  0
 16 17  1  0
 16 81  1  1
 17 83  1  0
 17 82  1  0
 17 18  1  0
 18 84  1  0
 18 19  2  0
 19 24  1  0
 19 20  1  0
 20 21  1  0
 20 57  1  1
 21 22  1  0
 21 85  1  0
 21 86  1  0
 22 88  1  0
 22 23  1  0
 22 87  1  0
 23 89  1  6
 23 24  1  0
 23 25  1  0
 24 91  1  0
 24 90  1  0
 25 26  1  0
 26 31  1  0
 26 92  1  6
 26 27  1  0
 27 28  1  0
 27 46  1  0
 27 93  1  1
 28 29  1  0
 28 94  1  6
 28 45  1  0
 29 30  1  0
 29 34  1  0
 29 95  1  1
 30 32  1  0
 30 96  1  6
 30 31  1  0
 32 98  1  0
 32 33  1  0
 32 97  1  0
 33 99  1  0
 34 35  1  0
 35 36  1  0
 35100  1  6
 35 40  1  0
 36 44  1  0
 36101  1  6
 36 37  1  0
 37 43  1  0
 37102  1  1
 37 38  1  0
 38103  1  6
 38 39  1  0
 38 42  1  0
 39 40  1  0
 39 41  1  0
 39104  1  1
 41107  1  0
 41105  1  0
 41106  1  0
 42108  1  0
 43109  1  0
 44110  1  0
 45111  1  0
 46 47  1  0
 47112  1  6
 47 48  1  0
 47 52  1  0
 48 56  1  0
 48113  1  6
 48 49  1  0
 49 55  1  0
 49 50  1  0
 49114  1  1
 50115  1  6
 50 51  1  0
 50 54  1  0
 51 52  1  0
 51 53  1  0
 51116  1  1
 53119  1  0
 53118  1  0
 53117  1  0
 54120  1  0
 55121  1  0
 56122  1  0
 57123  1  0
 57125  1  0
 57124  1  0
 58128  1  0
 58127  1  0
 58126  1  0
 59130  1  0
 59129  1  0
 59131  1  0
 60132  1  0
 60 61  1  0
 61134  1  0
 61133  1  0
M  END
>  <id>  (758) 
869

>  <scaffolds>  (758) 
['C1=C2CCCCC2C2CCC3CCCC3C2C1', 'C1=CCCCC1', 'C1=CCC2CCCCC2C1', 'C1CCNCC1', 'C1CCOCC1', 'C1=C2CC(OC3CCCCO3)CCC2C2CCC3CCCC3C2C1', 'C1CCCCC1', 'C1=C2CCCCC2CCC1', 'C1CCC(OC2CCCOC2)OC1', 'C1=C2CC(OC3OCC(OC4CCCCO4)CC3OC3CCCCO3)CCC2C2CCC3C4CC5(CCCCN5)OC4CC3C2C1']

>  <name>  (758) 
Solamargine

>  <formula>  (758) 
C45H73NO15

>  <SMILES>  (758) 
C[C@@H]1CC[C@@]2([C@H]([C@H]3[C@@H](O2)C[C@@H]4[C@@]3(CC[C@H]5[C@H]4CC=C6[C@@]5(CC[C@@H](C6)O[C@H]7[C@@H]([C@H]([C@@H]([C@H](O7)CO)O[C@H]8[C@@H]([C@@H]([C@H]([C@@H](O8)C)O)O)O)O)O[C@H]9[C@@H]([C@@H]([C@H]([C@@H](O9)C)O)O)O)C)C)C)NC1

>  <ChEMBL_id>  (758) 
CHEMBL443114

>  <ZINC_id>  (758) 
ZINC252474776

>  <PubChem_id>  (758) 
73611

>  <DrugBank_id>  (758) 
DB12700

>  <CAS_no>  (758) 
3671-38-3

>  <references>  (758) 
[{'journal': {'name': 'BMC Complementary Medicine and Therapies', 'id': 48}, 'title': 'Solamargine, a bioactive steroidal alkaloid isolated from Solanum aculeastrum induces non-selective cytotoxicity and P-glycoprotein inhibition', 'year': 2018, 'start_page': None, 'volume': None, 'issue': None, 'doi': '10.1186/s12906-018-2208-7', 'isbn': '', 'despositor': {'code': 'BND', 'first_name': "Bakary N'tji", 'last_name': 'Diallo', 'id': 26}, 'refauthors_set': [{'author': {'first_name': 'Trevor ', 'initials': 'TB', 'last_name': 'Burger', 'id': 990}, 'first_author': True, 'id': 1572}], 'id': 465}]

>  <classifications>  (758) 
[{'classification': 'Alkaloids', 'id': 898}, {'classification': 'Steroids and steroid derivatives (Classyfire)', 'id': 942}]

>  <molecular_mass>  (758) 
867.5

$$$$
SANC00870_minRM1.pdb
     RDKit          3D

 81 85  0  0  1  0  0  0  0  0999 V2000
    3.2070   -3.0230   -0.0060 C   0  0  0  0  0  0  0  0  0  0  0  0
    3.4960   -1.5290   -0.1350 C   0  0  2  0  0  0  0  0  0  0  0  0
    4.9210   -1.2380    0.3700 C   0  0  0  0  0  0  0  0  0  0  0  0
    5.6420   -0.2180   -0.5140 C   0  0  0  0  0  0  0  0  0  0  0  0
    6.9830    0.1310    0.0300 C   0  0  0  0  0  0  0  0  0  0  0  0
    7.7800    1.0330   -0.5510 C   0  0  0  0  0  0  0  0  0  0  0  0
    7.3890    1.7610   -1.7870 C   0  0  0  0  0  0  0  0  0  0  0  0
    9.1180    1.3700    0.0030 C   0  0  0  0  0  0  0  0  0  0  0  0
    2.4630   -0.7210    0.6590 C   0  0  1  0  0  0  0  0  0  0  0  0
    2.7610    0.7900    0.6580 C   0  0  0  0  0  0  0  0  0  0  0  0
    1.4130    1.5220    0.7040 C   0  0  0  0  0  0  0  0  0  0  0  0
    0.3620    0.4140    0.8840 C   0  0  2  0  0  0  0  0  0  0  0  0
    1.0060   -0.7850    0.1450 C   0  0  2  0  0  0  0  0  0  0  0  0
    0.2370   -2.0500    0.5000 C   0  0  0  0  0  0  0  0  0  0  0  0
   -1.2680   -1.8090    0.6580 C   0  0  0  0  0  0  0  0  0  0  0  0
   -1.8270   -0.5390    0.0610 C   0  0  2  0  0  0  0  0  0  0  0  0
   -0.9930    0.7180    0.2460 C   0  0  1  0  0  0  0  0  0  0  0  0
   -1.7770    1.7820    1.0100 C   0  0  0  0  0  0  0  0  0  0  0  0
   -3.0590    2.0870    0.2370 C   0  0  0  0  0  0  0  0  0  0  0  0
   -4.0180    0.9100    0.3930 C   0  0  2  0  0  0  0  0  0  0  0  0
   -3.3610   -0.4090    0.0600 C   0  0  1  0  0  0  0  0  0  0  0  0
   -2.6160   -0.6270   -1.2350 C   0  0  0  0  0  0  0  0  0  0  0  0
   -4.1880   -1.5570    0.6010 C   0  0  0  0  0  0  0  0  0  0  0  0
   -5.6870   -1.2630    0.5390 C   0  0  0  0  0  0  0  0  0  0  0  0
   -6.0140   -0.3030   -0.6130 C   0  0  1  0  0  0  0  0  0  0  0  0
   -5.3500    1.0850   -0.3720 C   0  0  1  0  0  0  0  0  0  0  0  0
   -6.3060    1.9190    0.4930 C   0  0  0  0  0  0  0  0  0  0  0  0
   -5.1960    1.8210   -1.7000 C   0  0  0  0  0  0  0  0  0  0  0  0
   -5.5320   -0.9450   -1.7580 O   0  0  0  0  0  0  0  0  0  0  0  0
    0.9900   -0.6170   -1.3740 C   0  0  0  0  0  0  0  0  0  0  0  0
    0.2270    0.1410    2.3830 C   0  0  0  0  0  0  0  0  0  0  0  0
    3.2290   -3.3690    1.0370 H   0  0  0  0  0  0  0  0  0  0  0  0
    3.9370   -3.6340   -0.5580 H   0  0  0  0  0  0  0  0  0  0  0  0
    2.2210   -3.2980   -0.4130 H   0  0  0  0  0  0  0  0  0  0  0  0
    3.4230   -1.2610   -1.2230 H   0  0  0  0  0  0  0  0  0  0  0  0
    5.5270   -2.1700    0.4070 H   0  0  0  0  0  0  0  0  0  0  0  0
    4.9070   -0.8970    1.4260 H   0  0  0  0  0  0  0  0  0  0  0  0
    5.0180    0.7000   -0.6260 H   0  0  0  0  0  0  0  0  0  0  0  0
    5.7470   -0.6150   -1.5480 H   0  0  0  0  0  0  0  0  0  0  0  0
    7.2990   -0.3900    0.9390 H   0  0  0  0  0  0  0  0  0  0  0  0
    7.1620    1.0720   -2.6160 H   0  0  0  0  0  0  0  0  0  0  0  0
    8.1710    2.4410   -2.1560 H   0  0  0  0  0  0  0  0  0  0  0  0
    6.4910    2.3790   -1.6290 H   0  0  0  0  0  0  0  0  0  0  0  0
    9.9180    1.1460   -0.7190 H   0  0  0  0  0  0  0  0  0  0  0  0
    9.1930    2.4420    0.2420 H   0  0  0  0  0  0  0  0  0  0  0  0
    9.3650    0.8260    0.9260 H   0  0  0  0  0  0  0  0  0  0  0  0
    2.4820   -1.0870    1.7210 H   0  0  0  0  0  0  0  0  0  0  0  0
    3.4050    1.0730    1.5140 H   0  0  0  0  0  0  0  0  0  0  0  0
    3.3520    1.0920   -0.2340 H   0  0  0  0  0  0  0  0  0  0  0  0
    1.3810    2.2830    1.5090 H   0  0  0  0  0  0  0  0  0  0  0  0
    1.2430    2.1210   -0.2130 H   0  0  0  0  0  0  0  0  0  0  0  0
    0.6290   -2.5030    1.4370 H   0  0  0  0  0  0  0  0  0  0  0  0
    0.4320   -2.8420   -0.2590 H   0  0  0  0  0  0  0  0  0  0  0  0
   -1.8020   -2.7000    0.2640 H   0  0  0  0  0  0  0  0  0  0  0  0
   -1.5150   -1.7920    1.7470 H   0  0  0  0  0  0  0  0  0  0  0  0
   -0.7880    1.1520   -0.7720 H   0  0  0  0  0  0  0  0  0  0  0  0
   -1.1630    2.6990    1.1310 H   0  0  0  0  0  0  0  0  0  0  0  0
   -2.0170    1.4680    2.0460 H   0  0  0  0  0  0  0  0  0  0  0  0
   -2.8180    2.3120   -0.8210 H   0  0  0  0  0  0  0  0  0  0  0  0
   -3.5270    3.0200    0.6140 H   0  0  0  0  0  0  0  0  0  0  0  0
   -4.2650    0.8580    1.4920 H   0  0  0  0  0  0  0  0  0  0  0  0
   -2.7120   -1.5790   -1.7690 H   0  0  0  0  0  0  0  0  0  0  0  0
   -2.5450    0.1680   -1.9830 H   0  0  0  0  0  0  0  0  0  0  0  0
   -3.8940   -1.7780    1.6490 H   0  0  0  0  0  0  0  0  0  0  0  0
   -3.9820   -2.4940    0.0430 H   0  0  0  0  0  0  0  0  0  0  0  0
   -6.0570   -0.8410    1.4950 H   0  0  0  0  0  0  0  0  0  0  0  0
   -6.2590   -2.2080    0.4220 H   0  0  0  0  0  0  0  0  0  0  0  0
   -7.1310   -0.1710   -0.6850 H   0  0  0  0  0  0  0  0  0  0  0  0
   -7.2440    2.1600   -0.0300 H   0  0  0  0  0  0  0  0  0  0  0  0
   -5.8660    2.8820    0.7890 H   0  0  0  0  0  0  0  0  0  0  0  0
   -6.5980    1.4140    1.4250 H   0  0  0  0  0  0  0  0  0  0  0  0
   -4.4260    1.3820   -2.3490 H   0  0  0  0  0  0  0  0  0  0  0  0
   -6.1340    1.8280   -2.2790 H   0  0  0  0  0  0  0  0  0  0  0  0
   -4.9330    2.8810   -1.5680 H   0  0  0  0  0  0  0  0  0  0  0  0
   -5.9330   -0.5250   -2.5230 H   0  0  0  0  0  0  0  0  0  0  0  0
   -0.0070   -0.7660   -1.8150 H   0  0  0  0  0  0  0  0  0  0  0  0
    1.6390   -1.3530   -1.8770 H   0  0  0  0  0  0  0  0  0  0  0  0
    1.3450    0.3660   -1.7120 H   0  0  0  0  0  0  0  0  0  0  0  0
    0.0690    1.0610    2.9660 H   0  0  0  0  0  0  0  0  0  0  0  0
    1.1310   -0.3270    2.8060 H   0  0  0  0  0  0  0  0  0  0  0  0
   -0.6130   -0.5240    2.6370 H   0  0  0  0  0  0  0  0  0  0  0  0
  1 33  1  0
  1 34  1  0
  1  2  1  0
  1 32  1  0
  2 35  1  6
  2  3  1  0
  2  9  1  0
  3  4  1  0
  3 36  1  0
  3 37  1  0
  4 39  1  0
  4 38  1  0
  4  5  1  0
  5  6  2  0
  5 40  1  0
  6  7  1  0
  6  8  1  0
  7 41  1  0
  7 42  1  0
  7 43  1  0
  8 44  1  0
  8 45  1  0
  8 46  1  0
  9 13  1  0
  9 10  1  0
  9 47  1  1
 10 49  1  0
 10 11  1  0
 10 48  1  0
 11 51  1  0
 11 12  1  0
 11 50  1  0
 12 13  1  0
 12 17  1  0
 12 31  1  1
 13 30  1  6
 13 14  1  0
 14 53  1  0
 14 15  1  0
 14 52  1  0
 15 54  1  0
 15 55  1  0
 16 15  1  1
 16 22  1  0
 16 21  1  0
 16 17  1  0
 17 56  1  6
 17 18  1  0
 18 19  1  0
 18 57  1  0
 18 58  1  0
 19 59  1  0
 19 20  1  0
 19 60  1  0
 20 26  1  0
 20 21  1  0
 20 61  1  1
 21 22  1  6
 21 23  1  0
 22 63  1  0
 22 62  1  0
 23 65  1  0
 23 24  1  0
 23 64  1  0
 24 25  1  0
 24 67  1  0
 24 66  1  0
 25 29  1  0
 25 68  1  6
 25 26  1  0
 26 28  1  6
 26 27  1  0
 27 69  1  0
 27 70  1  0
 27 71  1  0
 28 72  1  0
 28 73  1  0
 28 74  1  0
 29 75  1  0
 30 77  1  0
 30 76  1  0
 30 78  1  0
 31 81  1  0
 31 80  1  0
 31 79  1  0
M  END
>  <id>  (759) 
870

>  <scaffolds>  (759) 
['C1CCC(C2CCCC2)CC1', 'C1CCCCC1', 'C1CC2CCC34CC35CCCCC5CCC4C2C1', 'C1CCC2C(C1)CCC1C3CCCC3CCC21', 'C1CCC2CCCCC2C1']

>  <name>  (759) 
Cycloartenol

>  <formula>  (759) 
C30H50O

>  <SMILES>  (759) 
C[C@H](CCC=C(C)C)[C@H]1CC[C@@]2([C@@]1(CC[C@]34[C@H]2CC[C@@H]5[C@]3(C4)CC[C@@H](C5(C)C)O)C)C

>  <ChEMBL_id>  (759) 


>  <ZINC_id>  (759) 


>  <PubChem_id>  (759) 


>  <DrugBank_id>  (759) 


>  <CAS_no>  (759) 
469-38-5

>  <references>  (759) 
[{'journal': {'name': 'Natural Product Research', 'id': 18}, 'title': 'Cycloartanol and Sutherlandioside C peracetate from Sutherlandia frutescens and their immune potentiating effects', 'year': 2019, 'start_page': None, 'volume': None, 'issue': None, 'doi': 'https://doi.org/10.1080/14786419.2019.1648457', 'isbn': '', 'despositor': {'code': 'BND', 'first_name': "Bakary N'tji", 'last_name': 'Diallo', 'id': 26}, 'refauthors_set': [{'author': {'first_name': 'Odwa ', 'initials': 'OG', 'last_name': 'Gonyela', 'id': 992}, 'first_author': True, 'id': 1574}], 'id': 468}]

>  <classifications>  (759) 
[{'classification': 'Terpenes', 'id': 888}, {'classification': 'Steroids and steroid derivatives (Classyfire)', 'id': 942}]

>  <molecular_mass>  (759) 
802.99

$$$$
SANC00871_minRM1.pdb
     RDKit          3D

 38 40  0  0  1  0  0  0  0  0999 V2000
   -0.6130   -0.8250    1.4780 C   0  0  0  0  0  0  0  0  0  0  0  0
   -0.8980   -0.7430   -0.0180 C   0  0  1  0  0  0  0  0  0  0  0  0
   -2.2980   -1.3110   -0.3090 C   0  0  0  0  0  0  0  0  0  0  0  0
   -3.3960   -0.4550    0.3370 C   0  0  1  0  0  0  0  0  0  0  0  0
   -3.2980    0.9900   -0.1720 C   0  0  0  0  0  0  0  0  0  0  0  0
   -1.9270    1.5060    0.1230 C   0  0  0  0  0  0  0  0  0  0  0  0
   -1.7540    2.5810    0.8850 C   0  0  0  0  0  0  0  0  0  0  0  0
   -0.8360    0.7080   -0.5250 C   0  0  1  0  0  0  0  0  0  0  0  0
    0.5500    1.2910   -0.2830 C   0  0  0  0  0  0  0  0  0  0  0  0
    1.6230    0.5220   -1.0480 C   0  0  2  0  0  0  0  0  0  0  0  0
    1.5100   -1.0170   -0.9350 C   0  0  2  0  0  0  0  0  0  0  0  0
    0.1100   -1.5980   -0.7940 C   0  0  0  0  0  0  0  0  0  0  0  0
    2.3040   -1.4040    0.1810 O   0  0  0  0  0  0  0  0  0  0  0  0
    3.2060   -0.4120    0.4570 C   0  0  0  0  0  0  0  0  0  0  0  0
    4.0440   -0.6190    1.3050 O   0  0  0  0  0  0  0  0  0  0  0  0
    2.9400    0.7740   -0.3800 C   0  0  0  0  0  0  0  0  0  0  0  0
    3.7210    1.8360   -0.4750 C   0  0  0  0  0  0  0  0  0  0  0  0
   -4.6600   -0.9010   -0.0700 O   0  0  0  0  0  0  0  0  0  0  0  0
   -0.9450   -1.7800    1.9120 H   0  0  0  0  0  0  0  0  0  0  0  0
   -1.1080   -0.0280    2.0520 H   0  0  0  0  0  0  0  0  0  0  0  0
    0.4570   -0.7520    1.7190 H   0  0  0  0  0  0  0  0  0  0  0  0
   -2.4830   -1.3730   -1.4030 H   0  0  0  0  0  0  0  0  0  0  0  0
   -2.3700   -2.3620    0.0410 H   0  0  0  0  0  0  0  0  0  0  0  0
   -3.3120   -0.4770    1.4580 H   0  0  0  0  0  0  0  0  0  0  0  0
   -3.5070    1.0460   -1.2620 H   0  0  0  0  0  0  0  0  0  0  0  0
   -4.0970    1.6120    0.2870 H   0  0  0  0  0  0  0  0  0  0  0  0
   -0.8020    3.0250    1.1520 H   0  0  0  0  0  0  0  0  0  0  0  0
   -2.5790    3.1340    1.3270 H   0  0  0  0  0  0  0  0  0  0  0  0
   -1.0280    0.7160   -1.6320 H   0  0  0  0  0  0  0  0  0  0  0  0
    0.7870    1.3220    0.8010 H   0  0  0  0  0  0  0  0  0  0  0  0
    0.5860    2.3560   -0.6030 H   0  0  0  0  0  0  0  0  0  0  0  0
    1.6210    0.8260   -2.1220 H   0  0  0  0  0  0  0  0  0  0  0  0
    2.0000   -1.4900   -1.8330 H   0  0  0  0  0  0  0  0  0  0  0  0
   -0.2670   -1.7830   -1.8240 H   0  0  0  0  0  0  0  0  0  0  0  0
    0.1720   -2.6110   -0.3370 H   0  0  0  0  0  0  0  0  0  0  0  0
    4.6600    1.9320    0.0660 H   0  0  0  0  0  0  0  0  0  0  0  0
    3.4860    2.6910   -1.1030 H   0  0  0  0  0  0  0  0  0  0  0  0
   -4.7850   -1.7850    0.2850 H   0  0  0  0  0  0  0  0  0  0  0  0
  1 21  1  0
  1 19  1  0
  1 20  1  0
  2  1  1  1
  2 12  1  0
  2  8  1  0
  2  3  1  0
  3 22  1  0
  3 23  1  0
  3  4  1  0
  4  5  1  0
  4 18  1  0
  4 24  1  1
  5 25  1  0
  5  6  1  0
  5 26  1  0
  6  8  1  0
  6  7  2  0
  7 27  1  0
  7 28  1  0
  8 29  1  6
  8  9  1  0
  9 10  1  0
  9 31  1  0
  9 30  1  0
 10 32  1  6
 10 11  1  0
 10 16  1  0
 11 33  1  6
 11 12  1  0
 11 13  1  0
 12 34  1  0
 12 35  1  0
 13 14  1  0
 14 16  1  0
 14 15  2  0
 16 17  2  0
 17 37  1  0
 17 36  1  0
 18 38  1  0
M  END
>  <id>  (760) 
871

>  <scaffolds>  (760) 
['C1CCCCC1', 'C=C1CCCC2CCCCC12', 'C=C1CCCC2CC3OC(=O)C(=C)C3CC12', 'O=C1CCCO1', 'C=C1C(=O)OC2CCCCC12', 'C1CCC2CCCCC2C1']

>  <name>  (760) 
Ivalin

>  <formula>  (760) 
C15H20O3

>  <SMILES>  (760) 
C[C@@]12C[C@@H](CC(=C)[C@H]1C[C@@H]3[C@H](C2)OC(=O)C3=C)O

>  <ChEMBL_id>  (760) 
CHEMBL1974789

>  <ZINC_id>  (760) 


>  <PubChem_id>  (760) 
257273

>  <DrugBank_id>  (760) 


>  <CAS_no>  (760) 
5938-03-04

>  <references>  (760) 
[{'journal': {'name': 'Natural Product Research', 'id': 18}, 'title': 'Sesquiterpene lactones from Geigeria aspera Harv. and their cytotoxicity', 'year': 2019, 'start_page': None, 'volume': None, 'issue': None, 'doi': 'https://doi.org/10.1080/14786419.2019.1675068', 'isbn': '', 'despositor': {'code': 'BND', 'first_name': "Bakary N'tji", 'last_name': 'Diallo', 'id': 26}, 'refauthors_set': [{'author': {'first_name': 'Gerda ', 'initials': 'GF', 'last_name': 'Fouche', 'id': 967}, 'first_author': True, 'id': 1553}], 'id': 442}]

>  <classifications>  (760) 
[{'classification': 'Sesquiterpene', 'id': 828}, {'classification': 'Phenol lipids (Classyfire)', 'id': 951}]

>  <molecular_mass>  (760) 
248.14

$$$$
SANC00872_minRM1.pdb
     RDKit          3D

 39 41  0  0  1  0  0  0  0  0999 V2000
   -1.1850   -3.3870   -0.6890 C   0  0  0  0  0  0  0  0  0  0  0  0
   -0.8390   -2.0390   -0.0560 C   0  0  1  0  0  0  0  0  0  0  0  0
    0.6730   -1.8200   -0.1640 C   0  0  0  0  0  0  0  0  0  0  0  0
    1.1760   -0.7550    0.8190 C   0  0  2  0  0  0  0  0  0  0  0  0
    1.1650    0.7020    0.2990 C   0  0  1  0  0  0  0  0  0  0  0  0
    2.6260    0.9990   -0.0740 C   0  0  1  0  0  0  0  0  0  0  0  0
    3.3710   -0.1300    0.5990 C   0  0  0  0  0  0  0  0  0  0  0  0
    4.5590   -0.3120    0.7340 O   0  0  0  0  0  0  0  0  0  0  0  0
    2.5260   -1.0650    1.1250 O   0  0  0  0  0  0  0  0  0  0  0  0
    2.9710    0.9900   -1.5520 C   0  0  0  0  0  0  0  0  0  0  0  0
    0.1500    0.9260   -0.8260 C   0  0  1  0  0  0  0  0  0  0  0  0
   -1.1940    0.4450   -0.3820 C   0  0  0  0  0  0  0  0  0  0  0  0
   -2.1280    1.1400    0.2800 C   0  0  0  0  0  0  0  0  0  0  0  0
   -3.3600    0.3250    0.4090 C   0  0  0  0  0  0  0  0  0  0  0  0
   -4.3750    0.6420    0.9880 O   0  0  0  0  0  0  0  0  0  0  0  0
   -3.1310   -0.9770   -0.3230 C   0  0  0  0  0  0  0  0  0  0  0  0
   -1.6490   -0.9400   -0.7560 C   0  0  2  0  0  0  0  0  0  0  0  0
   -2.0790    2.5110    0.8110 C   0  0  0  0  0  0  0  0  0  0  0  0
    0.1670    2.3060   -1.0610 O   0  0  0  0  0  0  0  0  0  0  0  0
   -0.7460   -4.2290   -0.1330 H   0  0  0  0  0  0  0  0  0  0  0  0
   -0.8210   -3.4700   -1.7240 H   0  0  0  0  0  0  0  0  0  0  0  0
   -2.2670   -3.5770   -0.7230 H   0  0  0  0  0  0  0  0  0  0  0  0
   -1.1230   -2.0710    1.0290 H   0  0  0  0  0  0  0  0  0  0  0  0
    1.1940   -2.7800    0.0550 H   0  0  0  0  0  0  0  0  0  0  0  0
    0.9770   -1.5960   -1.2070 H   0  0  0  0  0  0  0  0  0  0  0  0
    0.6360   -0.8380    1.7970 H   0  0  0  0  0  0  0  0  0  0  0  0
    0.8810    1.3720    1.1530 H   0  0  0  0  0  0  0  0  0  0  0  0
    2.9450    1.9790    0.3630 H   0  0  0  0  0  0  0  0  0  0  0  0
    2.4680    1.7990   -2.1000 H   0  0  0  0  0  0  0  0  0  0  0  0
    4.0520    1.1380   -1.7040 H   0  0  0  0  0  0  0  0  0  0  0  0
    2.7180    0.0420   -2.0490 H   0  0  0  0  0  0  0  0  0  0  0  0
    0.4390    0.3810   -1.7690 H   0  0  0  0  0  0  0  0  0  0  0  0
   -3.8160   -1.0580   -1.1910 H   0  0  0  0  0  0  0  0  0  0  0  0
   -3.3960   -1.8390    0.3200 H   0  0  0  0  0  0  0  0  0  0  0  0
   -1.5640   -1.0640   -1.8650 H   0  0  0  0  0  0  0  0  0  0  0  0
   -2.7470    2.6390    1.6780 H   0  0  0  0  0  0  0  0  0  0  0  0
   -2.4030    3.2420    0.0540 H   0  0  0  0  0  0  0  0  0  0  0  0
   -1.0720    2.8110    1.1390 H   0  0  0  0  0  0  0  0  0  0  0  0
   -0.5610    2.5130   -1.6550 H   0  0  0  0  0  0  0  0  0  0  0  0
  1 21  1  0
  1 22  1  0
  1 20  1  0
  1  2  1  0
  2 17  1  0
  2  3  1  0
  2 23  1  1
  3 25  1  0
  3 24  1  0
  3  4  1  0
  4  5  1  0
  4  9  1  0
  4 26  1  1
  5 11  1  0
  5  6  1  0
  5 27  1  1
  6 10  1  0
  6 28  1  1
  6  7  1  0
  7  8  2  0
  7  9  1  0
 10 29  1  0
 10 31  1  0
 10 30  1  0
 11 32  1  6
 11 19  1  0
 11 12  1  0
 12 17  1  0
 12 13  2  0
 13 14  1  0
 13 18  1  0
 14 16  1  0
 14 15  2  0
 16 33  1  0
 16 17  1  0
 16 34  1  0
 17 35  1  6
 18 37  1  0
 18 38  1  0
 18 36  1  0
 19 39  1  0
M  END
>  <id>  (761) 
872

>  <scaffolds>  (761) 
['O=C1CCCO1']

>  <name>  (761) 
Geigerin

>  <formula>  (761) 
C15H20O4

>  <SMILES>  (761) 
C[C@H]1C[C@@H]2[C@@H]([C@@H](C(=O)O2)C)[C@@H](C3=C(C(=O)C[C@H]13)C)O

>  <ChEMBL_id>  (761) 


>  <ZINC_id>  (761) 


>  <PubChem_id>  (761) 
442244

>  <DrugBank_id>  (761) 


>  <CAS_no>  (761) 
436-45-3

>  <references>  (761) 
[{'journal': {'name': 'Natural Product Research', 'id': 18}, 'title': 'Sesquiterpene lactones from Geigeria aspera Harv. and their cytotoxicity', 'year': 2019, 'start_page': None, 'volume': None, 'issue': None, 'doi': 'https://doi.org/10.1080/14786419.2019.1675068', 'isbn': '', 'despositor': {'code': 'BND', 'first_name': "Bakary N'tji", 'last_name': 'Diallo', 'id': 26}, 'refauthors_set': [{'author': {'first_name': 'Gerda ', 'initials': 'GF', 'last_name': 'Fouche', 'id': 967}, 'first_author': True, 'id': 1553}], 'id': 442}]

>  <classifications>  (761) 
[{'classification': 'Sesquiterpene', 'id': 828}, {'classification': 'Phenol lipids (Classyfire)', 'id': 951}]

>  <molecular_mass>  (761) 
264.14

$$$$
SANC00873_minRM1.pdb
     RDKit          3D

 50 55  0  0  1  0  0  0  0  0999 V2000
   -3.9190   -1.5720    1.8080 C   0  0  0  0  0  0  0  0  0  0  0  0
   -3.3210   -0.5780    0.9130 C   0  0  0  0  0  0  0  0  0  0  0  0
   -2.3230   -0.6650    0.0250 C   0  0  0  0  0  0  0  0  0  0  0  0
   -1.4120   -1.7190   -0.4050 C   0  0  2  0  0  0  0  0  0  0  0  0
   -0.1030   -1.3010   -1.0500 C   0  0  2  0  0  0  0  0  0  0  0  0
   -1.2080   -1.7520   -1.8110 O   0  0  0  0  0  0  0  0  0  0  0  0
    1.0510   -2.2730   -1.0340 C   0  0  0  0  0  0  0  0  0  0  0  0
    2.0420   -1.8620    0.0420 C   0  0  0  0  0  0  0  0  0  0  0  0
    2.5550   -0.4500   -0.2350 C   0  0  1  0  0  0  0  0  0  0  0  0
    1.3980    0.5680   -0.2110 C   0  0  2  0  0  0  0  0  0  0  0  0
    0.3160    0.1450   -1.2470 C   0  0  2  0  0  0  0  0  0  0  0  0
   -0.8420    1.1270   -1.1880 C   0  0  2  0  0  0  0  0  0  0  0  0
   -2.1370    0.6720   -0.5950 C   0  0  1  0  0  0  0  0  0  0  0  0
   -1.9850    0.8010   -1.9800 O   0  0  0  0  0  0  0  0  0  0  0  0
   -3.0620    1.5580   -0.0440 O   0  0  0  0  0  0  0  0  0  0  0  0
   -3.8100    0.8320    0.8730 C   0  0  0  0  0  0  0  0  0  0  0  0
   -4.6770    1.4110    1.4760 O   0  0  0  0  0  0  0  0  0  0  0  0
    1.9320    1.9600   -0.6190 C   0  0  0  0  0  0  0  0  0  0  0  0
    3.4420    2.1190   -0.4720 C   0  0  0  0  0  0  0  0  0  0  0  0
    3.9120    1.4340    0.7970 C   0  0  0  0  0  0  0  0  0  0  0  0
    3.7440   -0.0890    0.6890 C   0  0  1  0  0  0  0  0  0  0  0  0
    3.6200   -0.6490    2.1080 C   0  0  0  0  0  0  0  0  0  0  0  0
    5.0250   -0.6780    0.0790 C   0  0  0  0  0  0  0  0  0  0  0  0
    0.7290    0.6320    1.1590 C   0  0  0  0  0  0  0  0  0  0  0  0
   -3.8640   -1.2500    2.8600 H   0  0  0  0  0  0  0  0  0  0  0  0
   -3.4290   -2.5540    1.7380 H   0  0  0  0  0  0  0  0  0  0  0  0
   -4.9860   -1.7220    1.5770 H   0  0  0  0  0  0  0  0  0  0  0  0
   -1.5270   -2.6940    0.1060 H   0  0  0  0  0  0  0  0  0  0  0  0
    0.7020   -3.3150   -0.8720 H   0  0  0  0  0  0  0  0  0  0  0  0
    1.5240   -2.3040   -2.0400 H   0  0  0  0  0  0  0  0  0  0  0  0
    1.5710   -1.9540    1.0430 H   0  0  0  0  0  0  0  0  0  0  0  0
    2.8790   -2.5910    0.0640 H   0  0  0  0  0  0  0  0  0  0  0  0
    2.9470   -0.4450   -1.2900 H   0  0  0  0  0  0  0  0  0  0  0  0
    0.7400    0.1990   -2.2860 H   0  0  0  0  0  0  0  0  0  0  0  0
   -0.5780    2.2020   -1.1910 H   0  0  0  0  0  0  0  0  0  0  0  0
    1.6720    2.2070   -1.6710 H   0  0  0  0  0  0  0  0  0  0  0  0
    1.4310    2.7560   -0.0260 H   0  0  0  0  0  0  0  0  0  0  0  0
    3.9790    1.7280   -1.3620 H   0  0  0  0  0  0  0  0  0  0  0  0
    3.7100    3.1980   -0.4590 H   0  0  0  0  0  0  0  0  0  0  0  0
    4.9700    1.6980    1.0140 H   0  0  0  0  0  0  0  0  0  0  0  0
    3.3620    1.8500    1.6670 H   0  0  0  0  0  0  0  0  0  0  0  0
    2.6610   -0.3860    2.5820 H   0  0  0  0  0  0  0  0  0  0  0  0
    3.7180   -1.7430    2.1570 H   0  0  0  0  0  0  0  0  0  0  0  0
    4.4080   -0.2540    2.7680 H   0  0  0  0  0  0  0  0  0  0  0  0
    5.8970   -0.5460    0.7370 H   0  0  0  0  0  0  0  0  0  0  0  0
    5.2940   -0.2110   -0.8800 H   0  0  0  0  0  0  0  0  0  0  0  0
    4.9490   -1.7580   -0.1110 H   0  0  0  0  0  0  0  0  0  0  0  0
    0.0430    1.4860    1.2620 H   0  0  0  0  0  0  0  0  0  0  0  0
    0.1230   -0.2600    1.3800 H   0  0  0  0  0  0  0  0  0  0  0  0
    1.4490    0.7200    1.9870 H   0  0  0  0  0  0  0  0  0  0  0  0
  1  2  1  0
  1 27  1  0
  1 26  1  0
  1 25  1  0
  2  3  2  0
  2 16  1  0
  3  4  1  0
  4  6  1  0
  4  5  1  0
  4 28  1  1
  5  6  1  6
  5 11  1  0
  5  7  1  0
  7 30  1  0
  7 29  1  0
  7  8  1  0
  8  9  1  0
  8 32  1  0
  8 31  1  0
  9 33  1  6
  9 10  1  0
  9 21  1  0
 10 11  1  0
 10 18  1  0
 10 24  1  1
 11 34  1  6
 11 12  1  0
 12 14  1  0
 12 35  1  1
 12 13  1  0
 13  3  1  0
 13 14  1  6
 13 15  1  0
 15 16  1  0
 16 17  2  0
 18 36  1  0
 18 19  1  0
 18 37  1  0
 19 38  1  0
 19 39  1  0
 19 20  1  0
 20 21  1  0
 20 40  1  0
 20 41  1  0
 21 23  1  6
 21 22  1  0
 22 43  1  0
 22 42  1  0
 22 44  1  0
 23 46  1  0
 23 47  1  0
 23 45  1  0
 24 48  1  0
 24 49  1  0
 24 50  1  0
M  END
>  <id>  (762) 
873

>  <scaffolds>  (762) 
['C=C1CCC2CCCCC2C1', 'C1CCCCC1', 'O=C1C=C2C3OC34CCC3CCCCC3C4C3OC23O1', 'C1CCC2CCCCC2C1']

>  <name>  (762) 
Jolkinolide b

>  <formula>  (762) 
C20H26O4

>  <SMILES>  (762) 
CC1=C2[C@@H]3[C@]4(O3)CC[C@H]5[C@]([C@@H]4[C@@H]6[C@]2(O6)OC1=O)(CCCC5(C)C)C

>  <ChEMBL_id>  (762) 
CHEMBL404387

>  <ZINC_id>  (762) 
ZINC5766692

>  <PubChem_id>  (762) 
161954

>  <DrugBank_id>  (762) 


>  <CAS_no>  (762) 
37905-08-1

>  <references>  (762) 
[{'journal': {'name': 'Natural Product Research', 'id': 18}, 'title': 'Ent-abietane diterpenoids from Suregada zanzibariensis Baill. (Euphorbiaceae), their cytotoxic and anticancer properties', 'year': 2018, 'start_page': None, 'volume': None, 'issue': None, 'doi': 'https://doi.org/10.1080/14786419.2018.1470628', 'isbn': '', 'despositor': {'code': 'BND', 'first_name': "Bakary N'tji", 'last_name': 'Diallo', 'id': 26}, 'refauthors_set': [{'author': {'first_name': 'Mandisa ', 'initials': 'MM', 'last_name': 'Mangisa', 'id': 980}, 'first_author': True, 'id': 1565}], 'id': 457}]

>  <classifications>  (762) 
[{'classification': 'Diterpene', 'id': 771}, {'classification': 'Naphthofurans (Classyfire)', 'id': 974}]

>  <molecular_mass>  (762) 
330.18

$$$$
SANC00874_minRM1.pdb
     RDKit          3D

 32 34  0  0  1  0  0  0  0  0999 V2000
    3.0920    2.1710    0.8230 C   0  0  0  0  0  0  0  0  0  0  0  0
    2.3840    1.4080   -0.2850 C   0  0  1  0  0  0  0  0  0  0  0  0
    2.3910   -0.1570   -0.1610 C   0  0  1  0  0  0  0  0  0  0  0  0
    0.9240   -0.4340   -0.0710 C   0  0  0  0  0  0  0  0  0  0  0  0
    0.2330    0.7270   -0.1240 C   0  0  0  0  0  0  0  0  0  0  0  0
    1.0100    1.8300   -0.2550 O   0  0  0  0  0  0  0  0  0  0  0  0
   -1.2060    0.8400   -0.0670 C   0  0  0  0  0  0  0  0  0  0  0  0
   -1.8580    2.0650   -0.1280 C   0  0  0  0  0  0  0  0  0  0  0  0
   -3.2490    2.1010   -0.0760 C   0  0  0  0  0  0  0  0  0  0  0  0
   -3.9740    0.9230    0.0350 C   0  0  0  0  0  0  0  0  0  0  0  0
   -3.3190   -0.3040    0.1000 C   0  0  0  0  0  0  0  0  0  0  0  0
   -1.9300   -0.3540    0.0510 C   0  0  0  0  0  0  0  0  0  0  0  0
   -1.2450   -1.6640    0.1280 C   0  0  0  0  0  0  0  0  0  0  0  0
   -1.8650   -2.7020    0.2540 O   0  0  0  0  0  0  0  0  0  0  0  0
    0.2750   -1.7130    0.0490 C   0  0  0  0  0  0  0  0  0  0  0  0
    0.8500   -2.7830    0.0850 O   0  0  0  0  0  0  0  0  0  0  0  0
    2.9830   -0.7850   -1.4170 C   0  0  0  0  0  0  0  0  0  0  0  0
    3.1130   -0.6880    1.0660 C   0  0  0  0  0  0  0  0  0  0  0  0
    4.1640    1.9320    0.8540 H   0  0  0  0  0  0  0  0  0  0  0  0
    3.0140    3.2590    0.6720 H   0  0  0  0  0  0  0  0  0  0  0  0
    2.6750    1.9720    1.8200 H   0  0  0  0  0  0  0  0  0  0  0  0
    2.7700    1.7390   -1.2830 H   0  0  0  0  0  0  0  0  0  0  0  0
   -1.2870    2.9940   -0.2160 H   0  0  0  0  0  0  0  0  0  0  0  0
   -3.7690    3.0630   -0.1230 H   0  0  0  0  0  0  0  0  0  0  0  0
   -5.0680    0.9550    0.0720 H   0  0  0  0  0  0  0  0  0  0  0  0
   -3.9050   -1.2260    0.1890 H   0  0  0  0  0  0  0  0  0  0  0  0
    2.9270   -1.8840   -1.3850 H   0  0  0  0  0  0  0  0  0  0  0  0
    2.4550   -0.4760   -2.3300 H   0  0  0  0  0  0  0  0  0  0  0  0
    4.0410   -0.5200   -1.5480 H   0  0  0  0  0  0  0  0  0  0  0  0
    2.6820   -0.3200    2.0070 H   0  0  0  0  0  0  0  0  0  0  0  0
    4.1810   -0.4300    1.0690 H   0  0  0  0  0  0  0  0  0  0  0  0
    3.0570   -1.7870    1.1180 H   0  0  0  0  0  0  0  0  0  0  0  0
  1  2  1  0
  1 20  1  0
  1 19  1  0
  1 21  1  0
  2 22  1  6
  2  6  1  0
  2  3  1  0
  3 17  1  6
  3  4  1  0
  3 18  1  0
  4  5  2  0
  4 15  1  0
  5  6  1  0
  5  7  1  0
  7  8  2  0
  7 12  1  0
  8 23  1  0
  8  9  1  0
  9 24  1  0
  9 10  2  0
 10 25  1  0
 10 11  1  0
 11 12  2  0
 11 26  1  0
 12 13  1  0
 13 15  1  0
 13 14  2  0
 15 16  2  0
 17 28  1  0
 17 29  1  0
 17 27  1  0
 18 31  1  0
 18 32  1  0
 18 30  1  0
M  END
>  <id>  (763) 
874

>  <scaffolds>  (763) 
['c1ccccc1', 'O=C1C(=O)c2ccccc2C2=C1CCO2']

>  <name>  (763) 
Dunnione

>  <formula>  (763) 
C15H14O3

>  <SMILES>  (763) 
CC1C(C2=C(O1)C3=CC=CC=C3C(=O)C2=O)(C)C

>  <ChEMBL_id>  (763) 
CHEMBL3398290

>  <ZINC_id>  (763) 


>  <PubChem_id>  (763) 
262097

>  <DrugBank_id>  (763) 


>  <CAS_no>  (763) 
33404-57-8

>  <references>  (763) 
[{'journal': {'name': 'Journal of Natural Products', 'id': 5}, 'title': 'Isolation, Structure Elucidation, and Cytotoxic Evaluation of Furanonaphthoquinones from in Vitro Plantlets and Cultures of Streptocarpus dunnii', 'year': 2011, 'start_page': None, 'volume': None, 'issue': None, 'doi': 'https://doi.org/10.1021/np100358a', 'isbn': '', 'despositor': {'code': 'BND', 'first_name': "Bakary N'tji", 'last_name': 'Diallo', 'id': 26}, 'refauthors_set': [{'author': {'first_name': 'Helen', 'initials': 'HS', 'last_name': 'Sheridan', 'id': 987}, 'first_author': True, 'id': 1570}], 'id': 463}]

>  <classifications>  (763) 
[{'classification': 'Naphthoquinone', 'id': 798}, {'classification': 'Naphthofurans (Classyfire)', 'id': 974}]

>  <molecular_mass>  (763) 
242.09

$$$$
SANC00875_minRM1.pdb
     RDKit          3D

 28 30  0  0  0  0  0  0  0  0999 V2000
    4.6740    0.2750   -0.0000 C   0  0  0  0  0  0  0  0  0  0  0  0
    3.2620   -0.1870   -0.0000 C   0  0  0  0  0  0  0  0  0  0  0  0
    2.1910    0.7240   -0.0000 C   0  0  0  0  0  0  0  0  0  0  0  0
    0.8590    0.2820   -0.0000 C   0  0  0  0  0  0  0  0  0  0  0  0
    0.6090   -1.0890   -0.0000 C   0  0  0  0  0  0  0  0  0  0  0  0
    1.6600   -1.9960   -0.0000 C   0  0  0  0  0  0  0  0  0  0  0  0
    2.9770   -1.5430   -0.0000 C   0  0  0  0  0  0  0  0  0  0  0  0
   -0.7770   -1.6060    0.0000 C   0  0  0  0  0  0  0  0  0  0  0  0
   -0.9960   -2.8080    0.0000 O   0  0  0  0  0  0  0  0  0  0  0  0
   -1.8830   -0.6310    0.0000 C   0  0  0  0  0  0  0  0  0  0  0  0
   -3.1960   -1.0950    0.0000 C   0  0  0  0  0  0  0  0  0  0  0  0
   -4.2530   -0.1910    0.0000 C   0  0  0  0  0  0  0  0  0  0  0  0
   -4.0000    1.1730    0.0000 C   0  0  0  0  0  0  0  0  0  0  0  0
   -2.6890    1.6390    0.0000 C   0  0  0  0  0  0  0  0  0  0  0  0
   -1.6280    0.7380    0.0000 C   0  0  0  0  0  0  0  0  0  0  0  0
   -0.2430    1.2590    0.0000 C   0  0  0  0  0  0  0  0  0  0  0  0
   -0.0320    2.4610   -0.0000 O   0  0  0  0  0  0  0  0  0  0  0  0
    2.3490    2.0640    0.0000 O   0  0  0  0  0  0  0  0  0  0  0  0
    4.9140    0.8770    0.8900 H   0  0  0  0  0  0  0  0  0  0  0  0
    4.9140    0.8770   -0.8910 H   0  0  0  0  0  0  0  0  0  0  0  0
    5.3970   -0.5550   -0.0000 H   0  0  0  0  0  0  0  0  0  0  0  0
    1.4670   -3.0750   -0.0000 H   0  0  0  0  0  0  0  0  0  0  0  0
    3.7900   -2.2780   -0.0000 H   0  0  0  0  0  0  0  0  0  0  0  0
   -3.4050   -2.1710    0.0000 H   0  0  0  0  0  0  0  0  0  0  0  0
   -5.2840   -0.5590    0.0000 H   0  0  0  0  0  0  0  0  0  0  0  0
   -4.8300    1.8850   -0.0000 H   0  0  0  0  0  0  0  0  0  0  0  0
   -2.5010    2.7190   -0.0000 H   0  0  0  0  0  0  0  0  0  0  0  0
    3.2860    2.2890   -0.0000 H   0  0  0  0  0  0  0  0  0  0  0  0
  1 20  1  0
  1 21  1  0
  1  2  1  0
  1 19  1  0
  2  7  2  0
  2  3  1  0
  3  4  2  0
  3 18  1  0
  4  5  1  0
  4 16  1  0
  5  6  2  0
  5  8  1  0
  6  7  1  0
  6 22  1  0
  7 23  1  0
  8 10  1  0
  8  9  2  0
 10 15  2  0
 10 11  1  0
 11 12  2  0
 11 24  1  0
 12 13  1  0
 12 25  1  0
 13 26  1  0
 13 14  2  0
 14 27  1  0
 14 15  1  0
 15 16  1  0
 16 17  2  0
 18 28  1  0
M  END
>  <id>  (764) 
875

>  <scaffolds>  (764) 
['c1ccccc1', 'O=C1c2ccccc2C(=O)c2ccccc21', 'O=C(c1ccccc1)c1ccccc1', 'c1ccc(Cc2ccccc2)cc1']

>  <name>  (764) 
1-hydroxy-2-methylanthraquinone

>  <formula>  (764) 
C15H10O3

>  <SMILES>  (764) 
CC1=C(C2=C(C=C1)C(=O)C3=CC=CC=C3C2=O)O

>  <ChEMBL_id>  (764) 
SCHEMBL1426900

>  <ZINC_id>  (764) 
ZINC4783164

>  <PubChem_id>  (764) 
160817

>  <DrugBank_id>  (764) 


>  <CAS_no>  (764) 
6268-09-03

>  <references>  (764) 
[{'journal': {'name': 'Journal of Natural Products', 'id': 5}, 'title': 'Isolation, Structure Elucidation, and Cytotoxic Evaluation of Furanonaphthoquinones from in Vitro Plantlets and Cultures of Streptocarpus dunnii', 'year': 2011, 'start_page': None, 'volume': None, 'issue': None, 'doi': 'https://doi.org/10.1021/np100358a', 'isbn': '', 'despositor': {'code': 'BND', 'first_name': "Bakary N'tji", 'last_name': 'Diallo', 'id': 26}, 'refauthors_set': [{'author': {'first_name': 'Helen', 'initials': 'HS', 'last_name': 'Sheridan', 'id': 987}, 'first_author': True, 'id': 1570}], 'id': 463}]

>  <classifications>  (764) 
[{'classification': 'Anthraquinones', 'id': 900}, {'classification': 'Anthracenes (Classyfire)', 'id': 980}]

>  <molecular_mass>  (764) 
238.06

$$$$
SANC00876_minRM1.pdb
     RDKit          3D

 52 54  0  0  1  0  0  0  0  0999 V2000
    0.7370    2.9880   -0.6400 C   0  0  0  0  0  0  0  0  0  0  0  0
   -0.2690    2.0090   -0.0490 C   0  0  1  0  0  0  0  0  0  0  0  0
   -1.6590    2.3700   -0.5860 C   0  0  0  0  0  0  0  0  0  0  0  0
   -2.6410    1.2070   -0.5330 C   0  0  0  0  0  0  0  0  0  0  0  0
   -2.3630    0.2980    0.6610 C   0  0  1  0  0  0  0  0  0  0  0  0
   -3.4450   -0.8010    0.7340 C   0  0  2  0  0  0  0  0  0  0  0  0
   -3.3940   -1.6080   -0.5390 C   0  0  0  0  0  0  0  0  0  0  0  0
   -4.3720   -1.8370   -1.2270 O   0  0  0  0  0  0  0  0  0  0  0  0
   -2.0430   -2.1430   -0.9250 C   0  0  0  0  0  0  0  0  0  0  0  0
   -0.9770   -1.7960    0.1010 C   0  0  0  0  0  0  0  0  0  0  0  0
   -0.9500   -0.3260    0.5410 C   0  0  1  0  0  0  0  0  0  0  0  0
    0.0610    0.5230   -0.2980 C   0  0  1  0  0  0  0  0  0  0  0  0
   -0.0100    0.2220   -1.7880 C   0  0  0  0  0  0  0  0  0  0  0  0
    1.4680    0.1740    0.2490 C   0  0  0  0  0  0  0  0  0  0  0  0
    2.6520    0.4340   -0.6850 C   0  0  0  0  0  0  0  0  0  0  0  0
    3.9090    0.1220    0.0250 C   0  0  0  0  0  0  0  0  0  0  0  0
    4.8830    0.9960    0.4360 C   0  0  0  0  0  0  0  0  0  0  0  0
    5.8990    0.3180    1.0590 O   0  0  0  0  0  0  0  0  0  0  0  0
    5.5590   -1.0100    1.0410 C   0  0  0  0  0  0  0  0  0  0  0  0
    4.3500   -1.1890    0.4200 C   0  0  0  0  0  0  0  0  0  0  0  0
   -4.8400   -0.2330    0.9680 C   0  0  0  0  0  0  0  0  0  0  0  0
   -2.4540    1.1230    1.9520 C   0  0  0  0  0  0  0  0  0  0  0  0
    0.7840    2.9600   -1.7380 H   0  0  0  0  0  0  0  0  0  0  0  0
    0.4850    4.0260   -0.3730 H   0  0  0  0  0  0  0  0  0  0  0  0
    1.7640    2.8190   -0.2790 H   0  0  0  0  0  0  0  0  0  0  0  0
   -0.2670    2.1700    1.0670 H   0  0  0  0  0  0  0  0  0  0  0  0
   -2.0560    3.2380   -0.0160 H   0  0  0  0  0  0  0  0  0  0  0  0
   -1.6010    2.7460   -1.6300 H   0  0  0  0  0  0  0  0  0  0  0  0
   -3.6880    1.5840   -0.5110 H   0  0  0  0  0  0  0  0  0  0  0  0
   -2.5900    0.6250   -1.4820 H   0  0  0  0  0  0  0  0  0  0  0  0
   -3.2120   -1.5020    1.5790 H   0  0  0  0  0  0  0  0  0  0  0  0
   -1.7850   -1.7840   -1.9430 H   0  0  0  0  0  0  0  0  0  0  0  0
   -2.1080   -3.2470   -1.0520 H   0  0  0  0  0  0  0  0  0  0  0  0
    0.0180   -2.1200   -0.2720 H   0  0  0  0  0  0  0  0  0  0  0  0
   -1.1240   -2.4390    0.9990 H   0  0  0  0  0  0  0  0  0  0  0  0
   -0.5410   -0.3520    1.5900 H   0  0  0  0  0  0  0  0  0  0  0  0
   -1.0360    0.2650   -2.1870 H   0  0  0  0  0  0  0  0  0  0  0  0
    0.5670    0.9370   -2.3930 H   0  0  0  0  0  0  0  0  0  0  0  0
    0.3820   -0.7720   -2.0480 H   0  0  0  0  0  0  0  0  0  0  0  0
    1.5130   -0.9010    0.5340 H   0  0  0  0  0  0  0  0  0  0  0  0
    1.6400    0.7130    1.2060 H   0  0  0  0  0  0  0  0  0  0  0  0
    2.6000   -0.1860   -1.6050 H   0  0  0  0  0  0  0  0  0  0  0  0
    2.6680    1.4860   -1.0430 H   0  0  0  0  0  0  0  0  0  0  0  0
    5.0100    2.0690    0.3700 H   0  0  0  0  0  0  0  0  0  0  0  0
    6.2750   -1.6780    1.5030 H   0  0  0  0  0  0  0  0  0  0  0  0
    3.8210   -2.1160    0.2480 H   0  0  0  0  0  0  0  0  0  0  0  0
   -4.9710    0.1500    1.9900 H   0  0  0  0  0  0  0  0  0  0  0  0
   -5.0770    0.5900    0.2770 H   0  0  0  0  0  0  0  0  0  0  0  0
   -5.6220   -0.9950    0.8310 H   0  0  0  0  0  0  0  0  0  0  0  0
   -1.5720    1.7650    2.1180 H   0  0  0  0  0  0  0  0  0  0  0  0
   -2.5410    0.4930    2.8500 H   0  0  0  0  0  0  0  0  0  0  0  0
   -3.3160    1.8050    1.9580 H   0  0  0  0  0  0  0  0  0  0  0  0
  1 23  1  0
  1 24  1  0
  1 25  1  0
  1  2  1  0
  2  3  1  0
  2 12  1  0
  2 26  1  1
  3 28  1  0
  3  4  1  0
  3 27  1  0
  4 30  1  0
  4 29  1  0
  4  5  1  0
  5 11  1  0
  5  6  1  0
  5 22  1  1
  6  7  1  0
  6 21  1  0
  6 31  1  1
  7  8  2  0
  7  9  1  0
  9 32  1  0
  9 33  1  0
  9 10  1  0
 10 34  1  0
 10 11  1  0
 10 35  1  0
 11 12  1  0
 11 36  1  1
 12 13  1  6
 12 14  1  0
 13 38  1  0
 13 37  1  0
 13 39  1  0
 14 15  1  0
 14 40  1  0
 14 41  1  0
 15 42  1  0
 15 43  1  0
 15 16  1  0
 16 20  1  0
 16 17  2  0
 17 44  1  0
 17 18  1  0
 18 19  1  0
 19 20  2  0
 19 45  1  0
 20 46  1  0
 21 48  1  0
 21 49  1  0
 21 47  1  0
 22 52  1  0
 22 50  1  0
 22 51  1  0
M  END
>  <id>  (765) 
876

>  <scaffolds>  (765) 
['c1ccoc1', 'C1CCCCC1', 'O=C1CCC2C(CCc3ccoc3)CCCC2C1', 'C1CCC2CCCCC2C1']

>  <name>  (765) 
Cascarillone

>  <formula>  (765) 
C20H30O2

>  <SMILES>  (765) 
C[C@H]1CC[C@]2([C@H](C(=O)CC[C@H]2[C@]1(C)CCC3=COC=C3)C)C

>  <ChEMBL_id>  (765) 


>  <ZINC_id>  (765) 


>  <PubChem_id>  (765) 
101600184

>  <DrugBank_id>  (765) 


>  <CAS_no>  (765) 
59742-40-4

>  <references>  (765) 
[{'journal': {'name': 'Phytochemistry', 'id': 10}, 'title': 'Diterpenoids from the roots of Croton dichogamus Pax.', 'year': 2017, 'start_page': None, 'volume': None, 'issue': None, 'doi': '10.1016/j.phytochem.2017.08.014', 'isbn': '', 'despositor': {'code': 'BND', 'first_name': "Bakary N'tji", 'last_name': 'Diallo', 'id': 26}, 'refauthors_set': [{'author': {'first_name': 'Areej ', 'initials': 'AA', 'last_name': 'Aldhaher', 'id': 977}, 'first_author': True, 'id': 1562}], 'id': 453}]

>  <classifications>  (765) 
[{'classification': 'Diterpenoid', 'id': 772}, {'classification': 'Phenol lipids (Classyfire)', 'id': 951}]

>  <molecular_mass>  (765) 
302.22

$$$$
SANC00877_minRM1.pdb
     RDKit          3D

 81 85  0  0  1  0  0  0  0  0999 V2000
   -3.2440   -0.3700   -1.8530 C   0  0  0  0  0  0  0  0  0  0  0  0
   -3.0040   -0.5770   -0.3620 C   0  0  2  0  0  0  0  0  0  0  0  0
   -3.5560   -1.9640    0.0450 C   0  0  0  0  0  0  0  0  0  0  0  0
   -4.7880   -1.9020    0.9390 C   0  0  0  0  0  0  0  0  0  0  0  0
   -5.8130   -0.8980    0.4020 C   0  0  1  0  0  0  0  0  0  0  0  0
   -5.2270    0.5460    0.3860 C   0  0  2  0  0  0  0  0  0  0  0  0
   -3.6830    0.5200    0.4730 C   0  0  2  0  0  0  0  0  0  0  0  0
   -3.0570    1.8690    0.1310 C   0  0  0  0  0  0  0  0  0  0  0  0
   -1.5880    1.8750    0.5370 C   0  0  0  0  0  0  0  0  0  0  0  0
   -0.7700    0.8030   -0.2030 C   0  0  2  0  0  0  0  0  0  0  0  0
   -1.4830   -0.5520   -0.0410 C   0  0  2  0  0  0  0  0  0  0  0  0
   -0.7550   -1.6580   -0.8090 C   0  0  0  0  0  0  0  0  0  0  0  0
    0.7450   -1.4290   -0.9320 C   0  0  0  0  0  0  0  0  0  0  0  0
    1.3310   -0.6500    0.2510 C   0  0  2  0  0  0  0  0  0  0  0  0
    0.6030    0.6590    0.4200 C   0  0  0  0  0  0  0  0  0  0  0  0
    1.1810    1.6070    1.1590 C   0  0  0  0  0  0  0  0  0  0  0  0
    2.5340    1.3610    1.7300 C   0  0  0  0  0  0  0  0  0  0  0  0
    3.4340    0.8460    0.6020 C   0  0  2  0  0  0  0  0  0  0  0  0
    2.8490   -0.4310   -0.0420 C   0  0  1  0  0  0  0  0  0  0  0  0
    3.6730   -1.6620    0.3530 C   0  0  0  0  0  0  0  0  0  0  0  0
    5.1350   -1.5610   -0.1150 C   0  0  1  0  0  0  0  0  0  0  0  0
    5.6600   -0.1300    0.0630 C   0  0  0  0  0  0  0  0  0  0  0  0
    4.8570    0.6060    1.1260 C   0  0  0  0  0  0  0  0  0  0  0  0
    5.9800   -2.5250    0.7230 C   0  0  0  0  0  0  0  0  0  0  0  0
    5.2550   -1.9760   -1.5820 C   0  0  0  0  0  0  0  0  0  0  0  0
    3.5140    2.0070   -0.3790 C   0  0  0  0  0  0  0  0  0  0  0  0
    4.2810    2.9580   -0.3280 O   0  0  0  0  0  0  0  0  0  0  0  0
    2.5980    1.9930   -1.3700 O   0  0  0  0  0  0  0  0  0  0  0  0
    1.0940   -1.4290    1.5490 C   0  0  0  0  0  0  0  0  0  0  0  0
   -0.5410    1.2610   -1.6420 C   0  0  0  0  0  0  0  0  0  0  0  0
   -5.7480    1.2580    1.6480 C   0  0  0  0  0  0  0  0  0  0  0  0
   -5.7580    1.3290   -0.8120 C   0  0  0  0  0  0  0  0  0  0  0  0
   -6.1590   -1.3820   -0.8640 O   0  0  0  0  0  0  0  0  0  0  0  0
   -4.3030   -0.4620   -2.1340 H   0  0  0  0  0  0  0  0  0  0  0  0
   -2.6890   -1.0990   -2.4670 H   0  0  0  0  0  0  0  0  0  0  0  0
   -2.9300    0.6270   -2.2040 H   0  0  0  0  0  0  0  0  0  0  0  0
   -2.7950   -2.5820    0.5700 H   0  0  0  0  0  0  0  0  0  0  0  0
   -3.7920   -2.5680   -0.8570 H   0  0  0  0  0  0  0  0  0  0  0  0
   -4.5250   -1.6440    1.9860 H   0  0  0  0  0  0  0  0  0  0  0  0
   -5.2490   -2.9110    1.0180 H   0  0  0  0  0  0  0  0  0  0  0  0
   -6.7250   -0.9240    1.0650 H   0  0  0  0  0  0  0  0  0  0  0  0
   -3.4330    0.3090    1.5500 H   0  0  0  0  0  0  0  0  0  0  0  0
   -3.1680    2.1170   -0.9450 H   0  0  0  0  0  0  0  0  0  0  0  0
   -3.5800    2.6970    0.6580 H   0  0  0  0  0  0  0  0  0  0  0  0
   -1.5040    1.7320    1.6360 H   0  0  0  0  0  0  0  0  0  0  0  0
   -1.1660    2.8860    0.3530 H   0  0  0  0  0  0  0  0  0  0  0  0
   -1.3910   -0.7940    1.0600 H   0  0  0  0  0  0  0  0  0  0  0  0
   -1.1890   -1.7880   -1.8270 H   0  0  0  0  0  0  0  0  0  0  0  0
   -0.9430   -2.6380   -0.3170 H   0  0  0  0  0  0  0  0  0  0  0  0
    1.2630   -2.4030   -1.0610 H   0  0  0  0  0  0  0  0  0  0  0  0
    0.9550   -0.8820   -1.8810 H   0  0  0  0  0  0  0  0  0  0  0  0
    0.7450    2.5850    1.3680 H   0  0  0  0  0  0  0  0  0  0  0  0
    2.9620    2.2690    2.2030 H   0  0  0  0  0  0  0  0  0  0  0  0
    2.4740    0.6130    2.5540 H   0  0  0  0  0  0  0  0  0  0  0  0
    2.9640   -0.3330   -1.1540 H   0  0  0  0  0  0  0  0  0  0  0  0
    3.6460   -1.8220    1.4510 H   0  0  0  0  0  0  0  0  0  0  0  0
    3.2170   -2.5850   -0.0630 H   0  0  0  0  0  0  0  0  0  0  0  0
    6.7390   -0.1300    0.3240 H   0  0  0  0  0  0  0  0  0  0  0  0
    5.6270    0.4370   -0.8920 H   0  0  0  0  0  0  0  0  0  0  0  0
    4.8410    0.0380    2.0800 H   0  0  0  0  0  0  0  0  0  0  0  0
    5.3520    1.5600    1.4100 H   0  0  0  0  0  0  0  0  0  0  0  0
    6.0430   -2.2180    1.7770 H   0  0  0  0  0  0  0  0  0  0  0  0
    7.0150   -2.5990    0.3580 H   0  0  0  0  0  0  0  0  0  0  0  0
    5.5730   -3.5470    0.7150 H   0  0  0  0  0  0  0  0  0  0  0  0
    4.6130   -1.3840   -2.2480 H   0  0  0  0  0  0  0  0  0  0  0  0
    4.9810   -3.0300   -1.7400 H   0  0  0  0  0  0  0  0  0  0  0  0
    6.2830   -1.8620   -1.9570 H   0  0  0  0  0  0  0  0  0  0  0  0
    2.6790    2.7790   -1.9310 H   0  0  0  0  0  0  0  0  0  0  0  0
    1.6600   -1.0090    2.3960 H   0  0  0  0  0  0  0  0  0  0  0  0
    0.0330   -1.4060    1.8550 H   0  0  0  0  0  0  0  0  0  0  0  0
    1.3520   -2.4940    1.4710 H   0  0  0  0  0  0  0  0  0  0  0  0
    0.0190    2.2080   -1.6760 H   0  0  0  0  0  0  0  0  0  0  0  0
    0.0420    0.5440   -2.2400 H   0  0  0  0  0  0  0  0  0  0  0  0
   -1.4730    1.4370   -2.1990 H   0  0  0  0  0  0  0  0  0  0  0  0
   -5.3100    2.2580    1.7770 H   0  0  0  0  0  0  0  0  0  0  0  0
   -6.8380    1.4070    1.6270 H   0  0  0  0  0  0  0  0  0  0  0  0
   -5.5290    0.7020    2.5710 H   0  0  0  0  0  0  0  0  0  0  0  0
   -5.3860    0.9390   -1.7730 H   0  0  0  0  0  0  0  0  0  0  0  0
   -6.8580    1.3090   -0.8660 H   0  0  0  0  0  0  0  0  0  0  0  0
   -5.4970    2.3960   -0.7790 H   0  0  0  0  0  0  0  0  0  0  0  0
   -6.9790   -0.9560   -1.1270 H   0  0  0  0  0  0  0  0  0  0  0  0
  1 35  1  0
  1 36  1  0
  1 34  1  0
  2  1  1  6
  2 11  1  0
  2  3  1  0
  2  7  1  0
  3 38  1  0
  3 37  1  0
  3  4  1  0
  4  5  1  0
  4 40  1  0
  4 39  1  0
  5 33  1  0
  5  6  1  0
  5 41  1  1
  6 32  1  6
  6  7  1  0
  6 31  1  0
  7  8  1  0
  7 42  1  1
  8 43  1  0
  8  9  1  0
  8 44  1  0
  9 10  1  0
  9 46  1  0
  9 45  1  0
 10 30  1  6
 10 11  1  0
 10 15  1  0
 11 12  1  0
 11 47  1  1
 12 48  1  0
 12 13  1  0
 12 49  1  0
 13 51  1  0
 13 50  1  0
 13 14  1  0
 14 19  1  0
 14 15  1  0
 14 29  1  1
 15 16  2  0
 16 52  1  0
 16 17  1  0
 17 18  1  0
 17 53  1  0
 17 54  1  0
 18 26  1  6
 18 19  1  0
 18 23  1  0
 19 55  1  6
 19 20  1  0
 20 21  1  0
 20 57  1  0
 20 56  1  0
 21 25  1  6
 21 22  1  0
 21 24  1  0
 22 59  1  0
 22 58  1  0
 22 23  1  0
 23 61  1  0
 23 60  1  0
 24 63  1  0
 24 64  1  0
 24 62  1  0
 25 65  1  0
 25 67  1  0
 25 66  1  0
 26 28  1  0
 26 27  2  0
 28 68  1  0
 29 71  1  0
 29 70  1  0
 29 69  1  0
 30 73  1  0
 30 74  1  0
 30 72  1  0
 31 76  1  0
 31 75  1  0
 31 77  1  0
 32 78  1  0
 32 79  1  0
 32 80  1  0
 33 81  1  0
M  END
>  <id>  (766) 
877

>  <scaffolds>  (766) 
['C1=CCCCC1', 'C1=CCC2CCCCC2C1', 'C1=C2C(CCC3C2CCC2CCCCC23)C2CCCCC2C1', 'C1CCCCC1', 'C=C1CCCC2CCCCC12', 'C1=C2CCCCC2CCC1', 'C1=C2C3CCCCC3CCC2C2CCCCC2C1', 'C1CCC2CCCCC2C1']

>  <name>  (766) 
Maprounic acid

>  <formula>  (766) 
C30H48O3

>  <SMILES>  (766) 
C[C@]12CC[C@@H](C([C@@H]1CC[C@@]3([C@@H]2CC[C@@]4(C3=CC[C@@]5([C@H]4CC(CC5)(C)C)C(=O)O)C)C)(C)C)O

>  <ChEMBL_id>  (766) 
CHEMBL258249

>  <ZINC_id>  (766) 


>  <PubChem_id>  (766) 
161527

>  <DrugBank_id>  (766) 


>  <CAS_no>  (766) 
26549-17-7

>  <references>  (766) 
[{'journal': {'name': 'Phytochemistry', 'id': 10}, 'title': 'Diterpenoids from the roots of Croton dichogamus Pax.', 'year': 2017, 'start_page': None, 'volume': None, 'issue': None, 'doi': '10.1016/j.phytochem.2017.08.014', 'isbn': '', 'despositor': {'code': 'BND', 'first_name': "Bakary N'tji", 'last_name': 'Diallo', 'id': 26}, 'refauthors_set': [{'author': {'first_name': 'Areej ', 'initials': 'AA', 'last_name': 'Aldhaher', 'id': 977}, 'first_author': True, 'id': 1562}], 'id': 453}]

>  <classifications>  (766) 
[{'classification': 'Triterpene', 'id': 842}, {'classification': 'Phenol lipids (Classyfire)', 'id': 951}]

>  <molecular_mass>  (766) 
456.36

$$$$
SANC00878_minRM1.pdb
     RDKit          3D

 38 40  0  0  1  0  0  0  0  0999 V2000
    1.7260    2.2260   -0.7450 C   0  0  0  0  0  0  0  0  0  0  0  0
    0.9020    0.9840   -1.0640 C   0  0  1  0  0  0  0  0  0  0  0  0
    1.7800   -0.0900   -1.7160 C   0  0  0  0  0  0  0  0  0  0  0  0
    2.4570   -1.0220   -0.7160 C   0  0  0  0  0  0  0  0  0  0  0  0
    1.4940   -1.4720    0.3790 C   0  0  2  0  0  0  0  0  0  0  0  0
    0.1910   -2.0060   -0.2640 C   0  0  0  0  0  0  0  0  0  0  0  0
   -0.6520   -0.7920   -0.3340 C   0  0  0  0  0  0  0  0  0  0  0  0
   -1.9480   -0.5410   -0.5210 C   0  0  0  0  0  0  0  0  0  0  0  0
   -2.2260    0.8530   -0.0980 C   0  0  0  0  0  0  0  0  0  0  0  0
   -3.2700    1.4530   -0.2300 O   0  0  0  0  0  0  0  0  0  0  0  0
   -0.9720    1.4040    0.5690 C   0  0  0  0  0  0  0  0  0  0  0  0
    0.1280    0.4260    0.1400 C   0  0  2  0  0  0  0  0  0  0  0  0
    1.0310   -0.2350    1.1980 C   0  0  1  0  0  0  0  0  0  0  0  0
    0.2210   -0.6940    2.4140 C   0  0  0  0  0  0  0  0  0  0  0  0
    2.1770    0.6070    1.7250 C   0  0  0  0  0  0  0  0  0  0  0  0
   -3.0140   -1.4360   -0.9910 C   0  0  0  0  0  0  0  0  0  0  0  0
    1.2260    2.9060   -0.0410 H   0  0  0  0  0  0  0  0  0  0  0  0
    1.9300    2.8140   -1.6530 H   0  0  0  0  0  0  0  0  0  0  0  0
    2.7110    1.9910   -0.3120 H   0  0  0  0  0  0  0  0  0  0  0  0
    0.1300    1.2920   -1.8230 H   0  0  0  0  0  0  0  0  0  0  0  0
    1.1700   -0.6810   -2.4340 H   0  0  0  0  0  0  0  0  0  0  0  0
    2.5470    0.3840   -2.3660 H   0  0  0  0  0  0  0  0  0  0  0  0
    2.8770   -1.9040   -1.2450 H   0  0  0  0  0  0  0  0  0  0  0  0
    3.3460   -0.5280   -0.2650 H   0  0  0  0  0  0  0  0  0  0  0  0
    1.9800   -2.2380    1.0250 H   0  0  0  0  0  0  0  0  0  0  0  0
    0.3470   -2.4990   -1.2430 H   0  0  0  0  0  0  0  0  0  0  0  0
   -0.2900   -2.7880    0.3590 H   0  0  0  0  0  0  0  0  0  0  0  0
   -1.1170    1.4490    1.6650 H   0  0  0  0  0  0  0  0  0  0  0  0
   -0.7850    2.4540    0.2750 H   0  0  0  0  0  0  0  0  0  0  0  0
    0.0140    0.1280    3.1150 H   0  0  0  0  0  0  0  0  0  0  0  0
   -0.7550   -1.1320    2.1630 H   0  0  0  0  0  0  0  0  0  0  0  0
    0.7600   -1.4560    2.9980 H   0  0  0  0  0  0  0  0  0  0  0  0
    2.9480    0.8270    0.9670 H   0  0  0  0  0  0  0  0  0  0  0  0
    2.7070    0.1040    2.5480 H   0  0  0  0  0  0  0  0  0  0  0  0
    1.8260    1.5740    2.1130 H   0  0  0  0  0  0  0  0  0  0  0  0
   -2.6270   -2.4050   -1.3380 H   0  0  0  0  0  0  0  0  0  0  0  0
   -3.7460   -1.6410   -0.1950 H   0  0  0  0  0  0  0  0  0  0  0  0
   -3.5730   -0.9870   -1.8270 H   0  0  0  0  0  0  0  0  0  0  0  0
  1 18  1  0
  1  2  1  0
  1 19  1  0
  1 17  1  0
  2 20  1  6
  2  3  1  0
  2 12  1  0
  3 21  1  0
  3 22  1  0
  3  4  1  0
  4 23  1  0
  4 24  1  0
  4  5  1  0
  5  6  1  0
  5 25  1  1
  5 13  1  0
  6 26  1  0
  6  7  1  0
  6 27  1  0
  7  8  2  0
  8 16  1  0
  8  9  1  0
  9 10  2  0
  9 11  1  0
 12 11  1  1
 11 29  1  0
 11 28  1  0
 12  7  1  0
 12 13  1  0
 13 15  1  1
 13 14  1  0
 14 31  1  0
 14 32  1  0
 14 30  1  0
 15 33  1  0
 15 35  1  0
 15 34  1  0
 16 38  1  0
 16 36  1  0
 16 37  1  0
M  END
>  <id>  (767) 
878

>  <scaffolds>  (767) 
['C1CCCCC1', 'C1=C2CC3CCCC2(CC1)C3', 'O=C1C=C2CC3CCCC2(C1)C3']

>  <name>  (767) 
Cyperotundone

>  <formula>  (767) 
C15H22O

>  <SMILES>  (767) 
CC1CC[C@@H]2CC3=C(C(=O)C[C@]13C2(C)C)C

>  <ChEMBL_id>  (767) 


>  <ZINC_id>  (767) 


>  <PubChem_id>  (767) 
91752785

>  <DrugBank_id>  (767) 
 

>  <CAS_no>  (767) 
3466-15-7

>  <references>  (767) 
[{'journal': {'name': 'Phytochemistry', 'id': 10}, 'title': 'Diterpenoids from the roots of Croton dichogamus Pax.', 'year': 2017, 'start_page': None, 'volume': None, 'issue': None, 'doi': '10.1016/j.phytochem.2017.08.014', 'isbn': '', 'despositor': {'code': 'BND', 'first_name': "Bakary N'tji", 'last_name': 'Diallo', 'id': 26}, 'refauthors_set': [{'author': {'first_name': 'Areej ', 'initials': 'AA', 'last_name': 'Aldhaher', 'id': 977}, 'first_author': True, 'id': 1562}], 'id': 453}]

>  <classifications>  (767) 
[{'classification': 'Sesquiterpene', 'id': 828}, {'classification': 'Phenol lipids (Classyfire)', 'id': 951}]

>  <molecular_mass>  (767) 
218.17

$$$$
SANC00879_minRM1.pdb
     RDKit          3D

 39 41  0  0  1  0  0  0  0  0999 V2000
    0.2400    2.6300   -0.5110 C   0  0  0  0  0  0  0  0  0  0  0  0
   -0.7380    1.4620   -0.4300 C   0  0  2  0  0  0  0  0  0  0  0  0
   -1.4870    1.5640    0.9060 C   0  0  0  0  0  0  0  0  0  0  0  0
   -2.2450    0.2970    1.2910 C   0  0  0  0  0  0  0  0  0  0  0  0
   -1.4120   -0.9500    1.0160 C   0  0  2  0  0  0  0  0  0  0  0  0
   -0.0310   -0.7990    1.7060 C   0  0  0  0  0  0  0  0  0  0  0  0
    0.8050   -0.2110    0.6340 C   0  0  0  0  0  0  0  0  0  0  0  0
    2.1110   -0.1120    0.3940 C   0  0  0  0  0  0  0  0  0  0  0  0
    2.3560    0.2410   -1.0470 C   0  0  0  0  0  0  0  0  0  0  0  0
    0.9780    0.0720   -1.7300 C   0  0  0  0  0  0  0  0  0  0  0  0
   -0.0350    0.1050   -0.5790 C   0  0  2  0  0  0  0  0  0  0  0  0
   -1.0820   -1.0280   -0.4990 C   0  0  2  0  0  0  0  0  0  0  0  0
   -2.2820   -0.8440   -1.4140 C   0  0  0  0  0  0  0  0  0  0  0  0
   -0.4700   -2.3910   -0.8180 C   0  0  0  0  0  0  0  0  0  0  0  0
    3.2300   -0.3420    1.3230 C   0  0  0  0  0  0  0  0  0  0  0  0
    1.0800    2.5230    0.1910 H   0  0  0  0  0  0  0  0  0  0  0  0
    0.6760    2.7580   -1.5120 H   0  0  0  0  0  0  0  0  0  0  0  0
   -0.2480    3.5870   -0.2750 H   0  0  0  0  0  0  0  0  0  0  0  0
   -1.4790    1.5590   -1.2690 H   0  0  0  0  0  0  0  0  0  0  0  0
   -2.1920    2.4230    0.8710 H   0  0  0  0  0  0  0  0  0  0  0  0
   -0.7790    1.8390    1.7170 H   0  0  0  0  0  0  0  0  0  0  0  0
   -2.5240    0.3390    2.3670 H   0  0  0  0  0  0  0  0  0  0  0  0
   -3.2270    0.2420    0.7770 H   0  0  0  0  0  0  0  0  0  0  0  0
   -1.9500   -1.8590    1.3650 H   0  0  0  0  0  0  0  0  0  0  0  0
    0.3740   -1.7750    2.0440 H   0  0  0  0  0  0  0  0  0  0  0  0
   -0.0630   -0.1900    2.6290 H   0  0  0  0  0  0  0  0  0  0  0  0
    2.7540    1.2690   -1.1510 H   0  0  0  0  0  0  0  0  0  0  0  0
    3.1280   -0.4110   -1.4980 H   0  0  0  0  0  0  0  0  0  0  0  0
    0.7910    0.8350   -2.5070 H   0  0  0  0  0  0  0  0  0  0  0  0
    0.9290   -0.8880   -2.2850 H   0  0  0  0  0  0  0  0  0  0  0  0
   -3.1220   -1.4870   -1.1170 H   0  0  0  0  0  0  0  0  0  0  0  0
   -2.6620    0.1890   -1.4450 H   0  0  0  0  0  0  0  0  0  0  0  0
   -2.0430   -1.0940   -2.4580 H   0  0  0  0  0  0  0  0  0  0  0  0
   -1.2020   -3.2030   -0.7000 H   0  0  0  0  0  0  0  0  0  0  0  0
    0.3890   -2.6500   -0.1830 H   0  0  0  0  0  0  0  0  0  0  0  0
   -0.0990   -2.4420   -1.8550 H   0  0  0  0  0  0  0  0  0  0  0  0
    2.8930   -0.6840    2.3120 H   0  0  0  0  0  0  0  0  0  0  0  0
    3.9270   -1.1030    0.9390 H   0  0  0  0  0  0  0  0  0  0  0  0
    3.8140    0.5780    1.4800 H   0  0  0  0  0  0  0  0  0  0  0  0
  1 17  1  0
  1  2  1  0
  1 18  1  0
  1 16  1  0
  2 19  1  6
  2 11  1  0
  2  3  1  0
  3 20  1  0
  3  4  1  0
  3 21  1  0
  4 23  1  0
  4  5  1  0
  4 22  1  0
  5 12  1  0
  5 24  1  1
  5  6  1  0
  6  7  1  0
  6 25  1  0
  6 26  1  0
  7  8  2  0
  8  9  1  0
  8 15  1  0
  9 10  1  0
  9 28  1  0
  9 27  1  0
 10 29  1  0
 10 30  1  0
 11 10  1  6
 11  7  1  0
 11 12  1  0
 12 13  1  6
 12 14  1  0
 13 33  1  0
 13 32  1  0
 13 31  1  0
 14 36  1  0
 14 34  1  0
 14 35  1  0
 15 38  1  0
 15 39  1  0
 15 37  1  0
M  END
>  <id>  (768) 
879

>  <scaffolds>  (768) 
['C1CCCCC1', 'C1=C2CC3CCCC2(CC1)C3']

>  <name>  (768) 
Cyperene

>  <formula>  (768) 
C15H24

>  <SMILES>  (768) 
C[C@@H]1CC[C@@H]2CC3=C(CC[C@]13C2(C)C)C

>  <ChEMBL_id>  (768) 


>  <ZINC_id>  (768) 


>  <PubChem_id>  (768) 
12308843

>  <DrugBank_id>  (768) 


>  <CAS_no>  (768) 
2387-78-2

>  <references>  (768) 
[{'journal': {'name': 'Phytochemistry', 'id': 10}, 'title': 'Diterpenoids from the roots of Croton dichogamus Pax.', 'year': 2017, 'start_page': None, 'volume': None, 'issue': None, 'doi': '10.1016/j.phytochem.2017.08.014', 'isbn': '', 'despositor': {'code': 'BND', 'first_name': "Bakary N'tji", 'last_name': 'Diallo', 'id': 26}, 'refauthors_set': [{'author': {'first_name': 'Areej ', 'initials': 'AA', 'last_name': 'Aldhaher', 'id': 977}, 'first_author': True, 'id': 1562}], 'id': 453}]

>  <classifications>  (768) 
[{'classification': 'Sesquiterpene', 'id': 828}, {'classification': 'Phenol lipids (Classyfire)', 'id': 951}]

>  <molecular_mass>  (768) 
204.19

$$$$
SANC00880_minRM1.pdb
     RDKit          3D

 33 34  0  0  0  0  0  0  0  0999 V2000
   -0.2290   -3.7910    0.0310 C   0  0  0  0  0  0  0  0  0  0  0  0
    0.2920   -2.3980    0.0200 C   0  0  0  0  0  0  0  0  0  0  0  0
   -0.5770   -1.3420    0.0100 C   0  0  0  0  0  0  0  0  0  0  0  0
   -0.1140   -0.0010    0.0010 C   0  0  0  0  0  0  0  0  0  0  0  0
   -1.0060    1.1100   -0.0090 C   0  0  0  0  0  0  0  0  0  0  0  0
   -0.4950    2.3800   -0.0160 C   0  0  0  0  0  0  0  0  0  0  0  0
    0.8970    2.6100   -0.0160 C   0  0  0  0  0  0  0  0  0  0  0  0
    1.7730    1.5610   -0.0080 C   0  0  0  0  0  0  0  0  0  0  0  0
    1.2760    0.2270    0.0010 C   0  0  0  0  0  0  0  0  0  0  0  0
    2.1600   -0.8830    0.0110 C   0  0  0  0  0  0  0  0  0  0  0  0
    1.6850   -2.1630    0.0210 C   0  0  0  0  0  0  0  0  0  0  0  0
    3.2370    1.8250   -0.0080 C   0  0  0  0  0  0  0  0  0  0  0  0
   -2.5000    0.9560   -0.0120 C   0  0  0  0  0  0  0  0  0  0  0  0
   -2.9760    0.2330   -1.2680 C   0  0  0  0  0  0  0  0  0  0  0  0
   -2.9840    0.2520    1.2520 C   0  0  0  0  0  0  0  0  0  0  0  0
   -0.8540   -3.9950   -0.8520 H   0  0  0  0  0  0  0  0  0  0  0  0
    0.5610   -4.5560    0.0370 H   0  0  0  0  0  0  0  0  0  0  0  0
   -0.8550   -3.9810    0.9160 H   0  0  0  0  0  0  0  0  0  0  0  0
   -1.6570   -1.5420    0.0100 H   0  0  0  0  0  0  0  0  0  0  0  0
   -1.1530    3.2560   -0.0220 H   0  0  0  0  0  0  0  0  0  0  0  0
    1.2510    3.6460   -0.0230 H   0  0  0  0  0  0  0  0  0  0  0  0
    3.2430   -0.7270    0.0120 H   0  0  0  0  0  0  0  0  0  0  0  0
    2.3770   -3.0100    0.0280 H   0  0  0  0  0  0  0  0  0  0  0  0
    3.4850    2.8970   -0.0160 H   0  0  0  0  0  0  0  0  0  0  0  0
    3.7280    1.4090    0.8850 H   0  0  0  0  0  0  0  0  0  0  0  0
    3.7310    1.3940   -0.8920 H   0  0  0  0  0  0  0  0  0  0  0  0
   -2.9730    1.9770   -0.0210 H   0  0  0  0  0  0  0  0  0  0  0  0
   -2.5710    0.6920   -2.1810 H   0  0  0  0  0  0  0  0  0  0  0  0
   -2.6830   -0.8280   -1.2880 H   0  0  0  0  0  0  0  0  0  0  0  0
   -4.0720    0.2540   -1.3560 H   0  0  0  0  0  0  0  0  0  0  0  0
   -4.0810    0.2630    1.3260 H   0  0  0  0  0  0  0  0  0  0  0  0
   -2.6790   -0.8050    1.2970 H   0  0  0  0  0  0  0  0  0  0  0  0
   -2.5970    0.7330    2.1610 H   0  0  0  0  0  0  0  0  0  0  0  0
  1 16  1  0
  1  2  1  0
  1 17  1  0
  1 18  1  0
  2  3  2  0
  2 11  1  0
  3  4  1  0
  3 19  1  0
  4  5  2  0
  4  9  1  0
  5  6  1  0
  5 13  1  0
  6 20  1  0
  6  7  2  0
  7 21  1  0
  7  8  1  0
  8 12  1  0
  8  9  2  0
  9 10  1  0
 10 22  1  0
 10 11  2  0
 11 23  1  0
 12 26  1  0
 12 24  1  0
 12 25  1  0
 13 14  1  0
 13 27  1  0
 13 15  1  0
 14 28  1  0
 14 30  1  0
 14 29  1  0
 15 32  1  0
 15 31  1  0
 15 33  1  0
M  END
>  <id>  (769) 
880

>  <scaffolds>  (769) 
['c1ccccc1', 'c1ccc2ccccc2c1']

>  <name>  (769) 
Cadalene

>  <formula>  (769) 
C15H18

>  <SMILES>  (769) 
CC1=CC2=C(C=CC(=C2C=C1)C)C(C)C

>  <ChEMBL_id>  (769) 


>  <ZINC_id>  (769) 
ZINC2040470

>  <PubChem_id>  (769) 
10225

>  <DrugBank_id>  (769) 


>  <CAS_no>  (769) 
483-78-3

>  <references>  (769) 
[{'journal': {'name': 'Phytochemistry', 'id': 10}, 'title': 'Diterpenoids from the roots of Croton dichogamus Pax.', 'year': 2017, 'start_page': None, 'volume': None, 'issue': None, 'doi': '10.1016/j.phytochem.2017.08.014', 'isbn': '', 'despositor': {'code': 'BND', 'first_name': "Bakary N'tji", 'last_name': 'Diallo', 'id': 26}, 'refauthors_set': [{'author': {'first_name': 'Areej ', 'initials': 'AA', 'last_name': 'Aldhaher', 'id': 977}, 'first_author': True, 'id': 1562}], 'id': 453}]

>  <classifications>  (769) 
[{'classification': 'Sesquiterpene', 'id': 828}, {'classification': 'Phenol lipids (Classyfire)', 'id': 951}]

>  <molecular_mass>  (769) 
198.14

$$$$
SANC00881_minRM1.pdb
     RDKit          3D

 48 50  0  0  1  0  0  0  0  0999 V2000
   -0.6770   -5.3160    1.5190 C   0  0  0  0  0  0  0  0  0  0  0  0
   -0.5710   -4.3910    0.3590 C   0  0  0  0  0  0  0  0  0  0  0  0
   -1.0410   -3.1420    0.4110 C   0  0  0  0  0  0  0  0  0  0  0  0
   -0.9210   -2.1940   -0.7350 C   0  0  0  0  0  0  0  0  0  0  0  0
   -1.6220   -0.9090   -0.4410 C   0  0  0  0  0  0  0  0  0  0  0  0
   -0.9300    0.2890   -0.2340 C   0  0  0  0  0  0  0  0  0  0  0  0
   -1.5780    1.5020    0.0280 C   0  0  0  0  0  0  0  0  0  0  0  0
   -2.9850    1.5030    0.0620 C   0  0  0  0  0  0  0  0  0  0  0  0
   -3.7170    0.3350   -0.1230 C   0  0  0  0  0  0  0  0  0  0  0  0
   -3.0180   -0.8550   -0.3570 C   0  0  0  0  0  0  0  0  0  0  0  0
   -3.8210   -1.9290   -0.5170 O   0  0  0  0  0  0  0  0  0  0  0  0
   -3.5310    2.7170    0.3050 O   0  0  0  0  0  0  0  0  0  0  0  0
   -4.9340    2.8130    0.3580 C   0  0  0  0  0  0  0  0  0  0  0  0
   -0.8050    2.7130    0.2920 C   0  0  0  0  0  0  0  0  0  0  0  0
   -1.2860    3.8260    0.3790 O   0  0  0  0  0  0  0  0  0  0  0  0
    0.6750    2.4820    0.4800 C   0  0  0  0  0  0  0  0  0  0  0  0
    1.1310    1.4020   -0.4980 C   0  0  2  0  0  0  0  0  0  0  0  0
    0.4230    0.1920   -0.2710 O   0  0  0  0  0  0  0  0  0  0  0  0
    2.5740    1.0540   -0.2800 C   0  0  0  0  0  0  0  0  0  0  0  0
    3.5200    1.3940   -1.2400 C   0  0  0  0  0  0  0  0  0  0  0  0
    4.8600    1.0860   -1.0460 C   0  0  0  0  0  0  0  0  0  0  0  0
    5.2350    0.4230    0.1230 C   0  0  0  0  0  0  0  0  0  0  0  0
    4.2940    0.0720    1.0980 C   0  0  0  0  0  0  0  0  0  0  0  0
    2.9640    0.3950    0.8850 C   0  0  0  0  0  0  0  0  0  0  0  0
    6.5140    0.0740    0.4020 O   0  0  0  0  0  0  0  0  0  0  0  0
    0.0930   -4.9410   -0.8510 C   0  0  0  0  0  0  0  0  0  0  0  0
   -1.2060   -4.8860    2.3820 H   0  0  0  0  0  0  0  0  0  0  0  0
    0.3190   -5.6160    1.8790 H   0  0  0  0  0  0  0  0  0  0  0  0
   -1.2130   -6.2390    1.2510 H   0  0  0  0  0  0  0  0  0  0  0  0
   -1.5010   -2.7480    1.3230 H   0  0  0  0  0  0  0  0  0  0  0  0
    0.1540   -2.0410   -0.9760 H   0  0  0  0  0  0  0  0  0  0  0  0
   -1.3240   -2.6370   -1.6760 H   0  0  0  0  0  0  0  0  0  0  0  0
   -4.8080    0.3050   -0.0910 H   0  0  0  0  0  0  0  0  0  0  0  0
   -3.3000   -2.7390   -0.5700 H   0  0  0  0  0  0  0  0  0  0  0  0
   -5.4260    2.5460   -0.5910 H   0  0  0  0  0  0  0  0  0  0  0  0
   -5.1010    3.8840    0.5550 H   0  0  0  0  0  0  0  0  0  0  0  0
   -5.3800    2.2270    1.1790 H   0  0  0  0  0  0  0  0  0  0  0  0
    1.2600    3.4130    0.3310 H   0  0  0  0  0  0  0  0  0  0  0  0
    0.8630    2.1950    1.5350 H   0  0  0  0  0  0  0  0  0  0  0  0
    0.9380    1.7340   -1.5550 H   0  0  0  0  0  0  0  0  0  0  0  0
    3.2210    1.9090   -2.1590 H   0  0  0  0  0  0  0  0  0  0  0  0
    5.5970    1.3590   -1.8050 H   0  0  0  0  0  0  0  0  0  0  0  0
    4.6090   -0.4490    2.0060 H   0  0  0  0  0  0  0  0  0  0  0  0
    2.2170    0.1150    1.6360 H   0  0  0  0  0  0  0  0  0  0  0  0
    7.0790    0.3490   -0.3290 H   0  0  0  0  0  0  0  0  0  0  0  0
    0.9700   -4.3430   -1.1430 H   0  0  0  0  0  0  0  0  0  0  0  0
    0.4530   -5.9720   -0.7180 H   0  0  0  0  0  0  0  0  0  0  0  0
   -0.5850   -4.9600   -1.7190 H   0  0  0  0  0  0  0  0  0  0  0  0
  1  2  1  0
  1 29  1  0
  1 28  1  0
  1 27  1  0
  2 26  1  0
  2  3  2  0
  3  4  1  0
  3 30  1  0
  4 32  1  0
  4 31  1  0
  4  5  1  0
  5 10  2  0
  5  6  1  0
  6 18  1  0
  6  7  2  0
  7  8  1  0
  7 14  1  0
  8  9  2  0
  8 12  1  0
  9 10  1  0
  9 33  1  0
 10 11  1  0
 11 34  1  0
 12 13  1  0
 13 35  1  0
 13 36  1  0
 13 37  1  0
 14 15  2  0
 14 16  1  0
 16 17  1  0
 16 38  1  0
 16 39  1  0
 17 40  1  6
 17 19  1  0
 17 18  1  0
 19 20  2  0
 19 24  1  0
 20 41  1  0
 20 21  1  0
 21 42  1  0
 21 22  2  0
 22 25  1  0
 22 23  1  0
 23 24  2  0
 23 43  1  0
 24 44  1  0
 25 45  1  0
 26 48  1  0
 26 46  1  0
 26 47  1  0
M  END
>  <id>  (770) 
881

>  <scaffolds>  (770) 
['c1ccccc1', 'O=C1CC(c2ccccc2)Oc2ccccc21', 'c1ccc(C2CCc3ccccc3O2)cc1', 'O=C(CCc1ccccc1)c1ccccc1']

>  <name>  (770) 
Isoxanthohumol

>  <formula>  (770) 
C21H22O5

>  <SMILES>  (770) 
CC(=CCC1=C2C(=C(C=C1O)OC)C(=O)CC(O2)C3=CC=C(C=C3)O)C

>  <ChEMBL_id>  (770) 
SCHEMBL904557

>  <ZINC_id>  (770) 


>  <PubChem_id>  (770) 
513197

>  <DrugBank_id>  (770) 


>  <CAS_no>  (770) 
70872-29-6

>  <references>  (770) 
[{'journal': {'name': 'Molecules', 'id': 25}, 'title': 'Inhibition of Oxidative Stress and Skin Aging-Related Enzymes by Prenylated Chalcones and Other Flavonoids from Helichrysum teretifolium', 'year': 2015, 'start_page': None, 'volume': None, 'issue': None, 'doi': '10.3390/molecules20047143', 'isbn': '', 'despositor': {'code': 'BND', 'first_name': "Bakary N'tji", 'last_name': 'Diallo', 'id': 26}, 'refauthors_set': [{'author': {'first_name': 'Olugbenga K. ', 'initials': 'OKP', 'last_name': 'Popoola', 'id': 961}, 'first_author': True, 'id': 1548}], 'id': 437}]

>  <classifications>  (770) 
[{'classification': 'Xanthone', 'id': 846}, {'classification': 'Flavonoids (Classyfire)', 'id': 941}]

>  <molecular_mass>  (770) 
354.15

$$$$
SANC00882_minRM1.pdb
     RDKit          3D

 44 46  0  0  1  0  0  0  0  0999 V2000
    6.5830    0.2330    0.4240 C   0  0  0  0  0  0  0  0  0  0  0  0
    5.6750    0.2670   -0.7530 C   0  0  0  0  0  0  0  0  0  0  0  0
    4.4100   -0.1590   -0.6960 C   0  0  0  0  0  0  0  0  0  0  0  0
    3.8030   -0.7260    0.5430 C   0  0  0  0  0  0  0  0  0  0  0  0
    2.3130   -0.7420    0.4440 C   0  0  0  0  0  0  0  0  0  0  0  0
    1.5930    0.4550    0.3160 C   0  0  0  0  0  0  0  0  0  0  0  0
    0.1900    0.4750    0.2230 C   0  0  0  0  0  0  0  0  0  0  0  0
   -0.4860   -0.7480    0.2830 C   0  0  0  0  0  0  0  0  0  0  0  0
    0.1840   -1.9620    0.4030 C   0  0  0  0  0  0  0  0  0  0  0  0
    1.5800   -1.9330    0.4760 C   0  0  0  0  0  0  0  0  0  0  0  0
    2.2910   -3.0750    0.5940 O   0  0  0  0  0  0  0  0  0  0  0  0
   -1.8360   -0.8510    0.2000 O   0  0  0  0  0  0  0  0  0  0  0  0
   -2.5630    0.3380    0.4700 C   0  0  1  0  0  0  0  0  0  0  0  0
   -2.0060    1.5140   -0.3310 C   0  0  0  0  0  0  0  0  0  0  0  0
   -0.5560    1.7160    0.0340 C   0  0  0  0  0  0  0  0  0  0  0  0
   -0.0750    2.8280    0.1330 O   0  0  0  0  0  0  0  0  0  0  0  0
   -3.9770    0.0470    0.0540 C   0  0  0  0  0  0  0  0  0  0  0  0
   -5.0240    0.3500    0.9190 C   0  0  0  0  0  0  0  0  0  0  0  0
   -6.3350    0.1110    0.5280 C   0  0  0  0  0  0  0  0  0  0  0  0
   -6.6010   -0.4360   -0.7220 C   0  0  0  0  0  0  0  0  0  0  0  0
   -5.5540   -0.7430   -1.5820 C   0  0  0  0  0  0  0  0  0  0  0  0
   -4.2410   -0.5000   -1.1970 C   0  0  0  0  0  0  0  0  0  0  0  0
    2.1640    1.6690    0.2680 O   0  0  0  0  0  0  0  0  0  0  0  0
    6.2620    0.8090   -2.0070 C   0  0  0  0  0  0  0  0  0  0  0  0
    6.2720    0.9530    1.1970 H   0  0  0  0  0  0  0  0  0  0  0  0
    6.6060   -0.7600    0.9000 H   0  0  0  0  0  0  0  0  0  0  0  0
    7.6250    0.4790    0.1730 H   0  0  0  0  0  0  0  0  0  0  0  0
    3.7690   -0.1480   -1.5850 H   0  0  0  0  0  0  0  0  0  0  0  0
    4.1040   -0.1660    1.4580 H   0  0  0  0  0  0  0  0  0  0  0  0
    4.2330   -1.7380    0.7130 H   0  0  0  0  0  0  0  0  0  0  0  0
   -0.3790   -2.8980    0.4390 H   0  0  0  0  0  0  0  0  0  0  0  0
    1.6880   -3.8280    0.5960 H   0  0  0  0  0  0  0  0  0  0  0  0
   -2.4890    0.5510    1.5710 H   0  0  0  0  0  0  0  0  0  0  0  0
   -2.6090    2.4270   -0.1450 H   0  0  0  0  0  0  0  0  0  0  0  0
   -2.0820    1.3430   -1.4250 H   0  0  0  0  0  0  0  0  0  0  0  0
   -4.8270    0.7770    1.9080 H   0  0  0  0  0  0  0  0  0  0  0  0
   -7.1590    0.3510    1.2060 H   0  0  0  0  0  0  0  0  0  0  0  0
   -7.6350   -0.6250   -1.0280 H   0  0  0  0  0  0  0  0  0  0  0  0
   -5.7630   -1.1760   -2.5650 H   0  0  0  0  0  0  0  0  0  0  0  0
   -3.4200   -0.7500   -1.8770 H   0  0  0  0  0  0  0  0  0  0  0  0
    3.1270    1.6030    0.2940 H   0  0  0  0  0  0  0  0  0  0  0  0
    7.0950    0.1810   -2.3590 H   0  0  0  0  0  0  0  0  0  0  0  0
    6.6640    1.8230   -1.8570 H   0  0  0  0  0  0  0  0  0  0  0  0
    5.5460    0.8760   -2.8390 H   0  0  0  0  0  0  0  0  0  0  0  0
  1  2  1  0
  1 27  1  0
  1 26  1  0
  1 25  1  0
  2 24  1  0
  2  3  2  0
  3 28  1  0
  3  4  1  0
  4  5  1  0
  4 30  1  0
  4 29  1  0
  5  6  2  0
  5 10  1  0
  6  7  1  0
  6 23  1  0
  7 15  1  0
  7  8  2  0
  8 12  1  0
  8  9  1  0
  9 31  1  0
  9 10  2  0
 10 11  1  0
 11 32  1  0
 12 13  1  0
 13 14  1  0
 13 17  1  0
 13 33  1  1
 14 35  1  0
 14 34  1  0
 14 15  1  0
 15 16  2  0
 17 22  2  0
 17 18  1  0
 18 19  2  0
 18 36  1  0
 19 20  1  0
 19 37  1  0
 20 21  2  0
 20 38  1  0
 21 39  1  0
 21 22  1  0
 22 40  1  0
 23 41  1  0
 24 44  1  0
 24 42  1  0
 24 43  1  0
M  END
>  <id>  (771) 
882

>  <scaffolds>  (771) 
['c1ccccc1', 'O=C1CC(c2ccccc2)Oc2ccccc21', 'c1ccc(C2CCc3ccccc3O2)cc1', 'O=C(CCc1ccccc1)c1ccccc1']

>  <name>  (771) 
Isoglabranin

>  <formula>  (771) 
C20H20O4

>  <SMILES>  (771) 
CC(=CCC1=C(C2=C(C=C1O)O[C@@H](CC2=O)C3=CC=CC=C3)O)C

>  <ChEMBL_id>  (771) 
CHEMBL2165236

>  <ZINC_id>  (771) 
ZINC4026533

>  <PubChem_id>  (771) 
6546086

>  <DrugBank_id>  (771) 


>  <CAS_no>  (771) 
55051-77-9

>  <references>  (771) 
[{'journal': {'name': 'Molecules', 'id': 25}, 'title': 'Inhibition of Oxidative Stress and Skin Aging-Related Enzymes by Prenylated Chalcones and Other Flavonoids from Helichrysum teretifolium', 'year': 2015, 'start_page': None, 'volume': None, 'issue': None, 'doi': '10.3390/molecules20047143', 'isbn': '', 'despositor': {'code': 'BND', 'first_name': "Bakary N'tji", 'last_name': 'Diallo', 'id': 26}, 'refauthors_set': [{'author': {'first_name': 'Olugbenga K. ', 'initials': 'OKP', 'last_name': 'Popoola', 'id': 961}, 'first_author': True, 'id': 1548}], 'id': 437}]

>  <classifications>  (771) 
[{'classification': 'Flavonoids', 'id': 776}, {'classification': 'Flavonoids (Classyfire)', 'id': 941}]

>  <molecular_mass>  (771) 
324.14

$$$$
SANC00883_minRM1.pdb
     RDKit          3D

 44 46  0  0  1  0  0  0  0  0999 V2000
   -1.1780    2.2070    1.6900 C   0  0  0  0  0  0  0  0  0  0  0  0
   -1.9250    3.1220    0.7890 C   0  0  0  0  0  0  0  0  0  0  0  0
   -1.9650    2.9660   -0.5360 C   0  0  0  0  0  0  0  0  0  0  0  0
   -1.2500    1.8790   -1.2660 C   0  0  0  0  0  0  0  0  0  0  0  0
   -1.5740    0.5210   -0.7400 C   0  0  0  0  0  0  0  0  0  0  0  0
   -0.5820   -0.3710   -0.3420 C   0  0  0  0  0  0  0  0  0  0  0  0
   -0.8710   -1.6530    0.1480 C   0  0  0  0  0  0  0  0  0  0  0  0
   -2.2180   -2.0430    0.2590 C   0  0  0  0  0  0  0  0  0  0  0  0
   -3.2460   -1.1910   -0.1450 C   0  0  0  0  0  0  0  0  0  0  0  0
   -2.9050    0.0640   -0.6550 C   0  0  0  0  0  0  0  0  0  0  0  0
   -3.9720    0.7820   -1.0540 O   0  0  0  0  0  0  0  0  0  0  0  0
   -2.5900   -3.2350    0.7390 O   0  0  0  0  0  0  0  0  0  0  0  0
    0.1850   -2.5800    0.4880 C   0  0  0  0  0  0  0  0  0  0  0  0
   -0.0700   -3.6990    0.9320 O   0  0  0  0  0  0  0  0  0  0  0  0
    1.5870   -2.1130    0.2370 C   0  0  0  0  0  0  0  0  0  0  0  0
    1.6430   -0.5900    0.3790 C   0  0  2  0  0  0  0  0  0  0  0  0
    0.7080    0.0360   -0.4870 O   0  0  0  0  0  0  0  0  0  0  0  0
    2.9890   -0.0790   -0.0490 C   0  0  0  0  0  0  0  0  0  0  0  0
    3.8770    0.4020    0.9090 C   0  0  0  0  0  0  0  0  0  0  0  0
    5.1340    0.8500    0.5210 C   0  0  0  0  0  0  0  0  0  0  0  0
    5.5010    0.8230   -0.8190 C   0  0  0  0  0  0  0  0  0  0  0  0
    4.6110    0.3480   -1.7730 C   0  0  0  0  0  0  0  0  0  0  0  0
    3.3540   -0.1060   -1.3900 C   0  0  0  0  0  0  0  0  0  0  0  0
   -2.6410    4.2400    1.4620 C   0  0  0  0  0  0  0  0  0  0  0  0
   -1.0110    2.6330    2.6910 H   0  0  0  0  0  0  0  0  0  0  0  0
   -1.7250    1.2630    1.8370 H   0  0  0  0  0  0  0  0  0  0  0  0
   -0.1850    1.9470    1.2940 H   0  0  0  0  0  0  0  0  0  0  0  0
   -2.4930    3.6920   -1.1650 H   0  0  0  0  0  0  0  0  0  0  0  0
   -1.4810    1.9090   -2.3560 H   0  0  0  0  0  0  0  0  0  0  0  0
   -0.1600    2.1030   -1.2320 H   0  0  0  0  0  0  0  0  0  0  0  0
   -4.2910   -1.5040   -0.0720 H   0  0  0  0  0  0  0  0  0  0  0  0
   -3.7010    1.6310   -1.4190 H   0  0  0  0  0  0  0  0  0  0  0  0
   -1.8000   -3.7820    0.9710 H   0  0  0  0  0  0  0  0  0  0  0  0
    2.3140   -2.5950    0.9240 H   0  0  0  0  0  0  0  0  0  0  0  0
    1.8970   -2.4450   -0.7780 H   0  0  0  0  0  0  0  0  0  0  0  0
    1.4030   -0.2950    1.4380 H   0  0  0  0  0  0  0  0  0  0  0  0
    3.5980    0.4320    1.9660 H   0  0  0  0  0  0  0  0  0  0  0  0
    5.8340    1.2250    1.2730 H   0  0  0  0  0  0  0  0  0  0  0  0
    6.4910    1.1780   -1.1220 H   0  0  0  0  0  0  0  0  0  0  0  0
    4.8970    0.3310   -2.8290 H   0  0  0  0  0  0  0  0  0  0  0  0
    2.6540   -0.4720   -2.1480 H   0  0  0  0  0  0  0  0  0  0  0  0
   -3.3040    3.8690    2.2600 H   0  0  0  0  0  0  0  0  0  0  0  0
   -3.2700    4.8370    0.7860 H   0  0  0  0  0  0  0  0  0  0  0  0
   -1.9330    4.9390    1.9320 H   0  0  0  0  0  0  0  0  0  0  0  0
  1  2  1  0
  1 27  1  0
  1 26  1  0
  1 25  1  0
  2  3  2  0
  2 24  1  0
  3  4  1  0
  3 28  1  0
  4 29  1  0
  4 30  1  0
  4  5  1  0
  5 10  2  0
  5  6  1  0
  6 17  1  0
  6  7  2  0
  7  8  1  0
  7 13  1  0
  8  9  2  0
  8 12  1  0
  9 10  1  0
  9 31  1  0
 10 11  1  0
 11 32  1  0
 12 33  1  0
 13 15  1  0
 13 14  2  0
 15 35  1  0
 15 16  1  0
 15 34  1  0
 16 17  1  0
 16 18  1  0
 16 36  1  1
 18 23  2  0
 18 19  1  0
 19 20  2  0
 19 37  1  0
 20 21  1  0
 20 38  1  0
 21 22  2  0
 21 39  1  0
 22 40  1  0
 22 23  1  0
 23 41  1  0
 24 43  1  0
 24 44  1  0
 24 42  1  0
M  END
>  <id>  (772) 
883

>  <scaffolds>  (772) 
['c1ccccc1', 'O=C1CC(c2ccccc2)Oc2ccccc21', 'c1ccc(C2CCc3ccccc3O2)cc1', 'O=C(CCc1ccccc1)c1ccccc1']

>  <name>  (772) 
Glabranin

>  <formula>  (772) 
C20H20O4

>  <SMILES>  (772) 
CC(=CCC1=C2C(=C(C=C1O)O)C(=O)C[C@H](O2)C3=CC=CC=C3)C

>  <ChEMBL_id>  (772) 
CHEMBL253998

>  <ZINC_id>  (772) 
ZINC113294

>  <PubChem_id>  (772) 
124049

>  <DrugBank_id>  (772) 


>  <CAS_no>  (772) 
41983-91-9

>  <references>  (772) 
[{'journal': {'name': 'Molecules', 'id': 25}, 'title': 'Inhibition of Oxidative Stress and Skin Aging-Related Enzymes by Prenylated Chalcones and Other Flavonoids from Helichrysum teretifolium', 'year': 2015, 'start_page': None, 'volume': None, 'issue': None, 'doi': '10.3390/molecules20047143', 'isbn': '', 'despositor': {'code': 'BND', 'first_name': "Bakary N'tji", 'last_name': 'Diallo', 'id': 26}, 'refauthors_set': [{'author': {'first_name': 'Olugbenga K. ', 'initials': 'OKP', 'last_name': 'Popoola', 'id': 961}, 'first_author': True, 'id': 1548}], 'id': 437}]

>  <classifications>  (772) 
[{'classification': 'Dihydroxyflavanone', 'id': 901}, {'classification': 'Flavonoids (Classyfire)', 'id': 941}]

>  <molecular_mass>  (772) 
324.14

$$$$
SANC00884_minRM1.pdb
     RDKit          3D

 36 38  0  0  0  0  0  0  0  0999 V2000
   -4.4840    2.4420   -0.6450 C   0  0  0  0  0  0  0  0  0  0  0  0
   -3.2200    2.4080   -0.0220 O   0  0  0  0  0  0  0  0  0  0  0  0
   -2.4950    1.2640   -0.0990 C   0  0  0  0  0  0  0  0  0  0  0  0
   -3.0170   -0.0320   -0.1650 C   0  0  0  0  0  0  0  0  0  0  0  0
   -2.1390   -1.1290   -0.2100 C   0  0  0  0  0  0  0  0  0  0  0  0
   -0.7510   -0.9230   -0.1560 C   0  0  0  0  0  0  0  0  0  0  0  0
   -0.2720    0.3840   -0.0700 C   0  0  0  0  0  0  0  0  0  0  0  0
   -1.1090    1.4900   -0.0450 C   0  0  0  0  0  0  0  0  0  0  0  0
    1.0650    0.6600   -0.0150 O   0  0  0  0  0  0  0  0  0  0  0  0
    1.9370   -0.3900   -0.0460 C   0  0  0  0  0  0  0  0  0  0  0  0
    1.5750   -1.6840   -0.1240 C   0  0  0  0  0  0  0  0  0  0  0  0
    0.1690   -2.0430   -0.1900 C   0  0  0  0  0  0  0  0  0  0  0  0
   -0.2530   -3.1990   -0.2650 O   0  0  0  0  0  0  0  0  0  0  0  0
    3.3200    0.0830    0.0160 C   0  0  0  0  0  0  0  0  0  0  0  0
    4.2640   -0.4930   -0.8310 C   0  0  0  0  0  0  0  0  0  0  0  0
    5.5860   -0.0720   -0.7700 C   0  0  0  0  0  0  0  0  0  0  0  0
    5.9620    0.9190    0.1300 C   0  0  0  0  0  0  0  0  0  0  0  0
    5.0160    1.4940    0.9690 C   0  0  0  0  0  0  0  0  0  0  0  0
    3.6900    1.0810    0.9150 C   0  0  0  0  0  0  0  0  0  0  0  0
   -2.6840   -2.3450   -0.2810 O   0  0  0  0  0  0  0  0  0  0  0  0
   -4.3600   -0.2560   -0.2880 O   0  0  0  0  0  0  0  0  0  0  0  0
   -4.9450   -0.6900    0.9210 C   0  0  0  0  0  0  0  0  0  0  0  0
   -4.6630    3.5180   -0.7980 H   0  0  0  0  0  0  0  0  0  0  0  0
   -4.5260    1.9290   -1.6180 H   0  0  0  0  0  0  0  0  0  0  0  0
   -5.2730    2.0440    0.0130 H   0  0  0  0  0  0  0  0  0  0  0  0
   -0.7100    2.5060    0.0150 H   0  0  0  0  0  0  0  0  0  0  0  0
    2.3130   -2.4890   -0.1280 H   0  0  0  0  0  0  0  0  0  0  0  0
    3.9690   -1.2670   -1.5480 H   0  0  0  0  0  0  0  0  0  0  0  0
    6.3310   -0.5210   -1.4330 H   0  0  0  0  0  0  0  0  0  0  0  0
    7.0050    1.2470    0.1760 H   0  0  0  0  0  0  0  0  0  0  0  0
    5.3130    2.2750    1.6750 H   0  0  0  0  0  0  0  0  0  0  0  0
    2.9460    1.5360    1.5770 H   0  0  0  0  0  0  0  0  0  0  0  0
   -1.9740   -3.0390   -0.3160 H   0  0  0  0  0  0  0  0  0  0  0  0
   -4.8540    0.0520    1.7320 H   0  0  0  0  0  0  0  0  0  0  0  0
   -4.5460   -1.6510    1.2860 H   0  0  0  0  0  0  0  0  0  0  0  0
   -6.0070   -0.8210    0.6680 H   0  0  0  0  0  0  0  0  0  0  0  0
  1 24  1  0
  1 23  1  0
  1  2  1  0
  1 25  1  0
  2  3  1  0
  3  4  2  0
  3  8  1  0
  4 21  1  0
  4  5  1  0
  5 20  1  0
  5  6  2  0
  6 12  1  0
  6  7  1  0
  7  8  2  0
  7  9  1  0
  8 26  1  0
  9 10  1  0
 10 11  2  0
 10 14  1  0
 11 12  1  0
 11 27  1  0
 12 13  2  0
 14 15  2  0
 14 19  1  0
 15 28  1  0
 15 16  1  0
 16 29  1  0
 16 17  2  0
 17 30  1  0
 17 18  1  0
 18 19  2  0
 18 31  1  0
 19 32  1  0
 20 33  1  0
 21 22  1  0
 22 36  1  0
 22 35  1  0
 22 34  1  0
M  END
>  <id>  (773) 
884

>  <scaffolds>  (773) 
['c1ccccc1', 'O=c1cc(-c2ccccc2)oc2ccccc12', 'O=c1ccoc2ccccc12']

>  <name>  (773) 
Mosloflavone

>  <formula>  (773) 
C17H14O5

>  <SMILES>  (773) 
COC1=C(C(=C2C(=C1)OC(=CC2=O)C3=CC=CC=C3)O)OC

>  <ChEMBL_id>  (773) 
SCHEMBL971985

>  <ZINC_id>  (773) 
ZINC2566769

>  <PubChem_id>  (773) 
471722

>  <DrugBank_id>  (773) 


>  <CAS_no>  (773) 
740-33-0

>  <references>  (773) 
[{'journal': {'name': 'Molecules', 'id': 25}, 'title': 'Inhibition of Oxidative Stress and Skin Aging-Related Enzymes by Prenylated Chalcones and Other Flavonoids from Helichrysum teretifolium', 'year': 2015, 'start_page': None, 'volume': None, 'issue': None, 'doi': '10.3390/molecules20047143', 'isbn': '', 'despositor': {'code': 'BND', 'first_name': "Bakary N'tji", 'last_name': 'Diallo', 'id': 26}, 'refauthors_set': [{'author': {'first_name': 'Olugbenga K. ', 'initials': 'OKP', 'last_name': 'Popoola', 'id': 961}, 'first_author': True, 'id': 1548}], 'id': 437}]

>  <classifications>  (773) 
[{'classification': 'Flavonoids', 'id': 776}, {'classification': 'Flavonoids (Classyfire)', 'id': 941}]

>  <molecular_mass>  (773) 
298.08

$$$$
SANC00885_minRM1.pdb
     RDKit          3D

 34 36  0  0  0  0  0  0  0  0999 V2000
   -6.5670   -1.3060    0.4770 C   0  0  0  0  0  0  0  0  0  0  0  0
   -5.8800   -0.3900   -0.3380 O   0  0  0  0  0  0  0  0  0  0  0  0
   -4.5310   -0.2920   -0.1770 C   0  0  0  0  0  0  0  0  0  0  0  0
   -3.7730   -1.0240    0.7340 C   0  0  0  0  0  0  0  0  0  0  0  0
   -2.4000   -0.8100    0.7880 C   0  0  0  0  0  0  0  0  0  0  0  0
   -1.8030    0.1250   -0.0500 C   0  0  0  0  0  0  0  0  0  0  0  0
   -2.5700    0.8430   -0.9710 C   0  0  0  0  0  0  0  0  0  0  0  0
   -3.9360    0.6440   -1.0370 C   0  0  0  0  0  0  0  0  0  0  0  0
   -0.3670    0.3670    0.0110 C   0  0  0  0  0  0  0  0  0  0  0  0
    0.2210    1.5770    0.1100 C   0  0  0  0  0  0  0  0  0  0  0  0
    1.6890    1.7420    0.1500 C   0  0  0  0  0  0  0  0  0  0  0  0
    2.2260    2.8240    0.2630 O   0  0  0  0  0  0  0  0  0  0  0  0
    2.3970    0.4690    0.0530 C   0  0  0  0  0  0  0  0  0  0  0  0
    3.8040    0.3990    0.0300 C   0  0  0  0  0  0  0  0  0  0  0  0
    4.4800   -0.8170   -0.0520 C   0  0  0  0  0  0  0  0  0  0  0  0
    3.7180   -1.9890   -0.1150 C   0  0  0  0  0  0  0  0  0  0  0  0
    2.3240   -1.9790   -0.1000 C   0  0  0  0  0  0  0  0  0  0  0  0
    1.6950   -0.7350   -0.0170 C   0  0  0  0  0  0  0  0  0  0  0  0
    0.3360   -0.8080    0.0020 O   0  0  0  0  0  0  0  0  0  0  0  0
    4.4350   -3.1300   -0.1930 O   0  0  0  0  0  0  0  0  0  0  0  0
    4.4470    1.5770    0.0930 O   0  0  0  0  0  0  0  0  0  0  0  0
   -0.4530    2.7500    0.1010 O   0  0  0  0  0  0  0  0  0  0  0  0
   -6.4990   -1.0690    1.5520 H   0  0  0  0  0  0  0  0  0  0  0  0
   -6.2570   -2.3510    0.3150 H   0  0  0  0  0  0  0  0  0  0  0  0
   -7.6150   -1.1950    0.1580 H   0  0  0  0  0  0  0  0  0  0  0  0
   -4.2150   -1.7610    1.4080 H   0  0  0  0  0  0  0  0  0  0  0  0
   -1.7910   -1.3800    1.4970 H   0  0  0  0  0  0  0  0  0  0  0  0
   -2.0900    1.5560   -1.6520 H   0  0  0  0  0  0  0  0  0  0  0  0
   -4.5470    1.2020   -1.7520 H   0  0  0  0  0  0  0  0  0  0  0  0
    5.5710   -0.8750   -0.0700 H   0  0  0  0  0  0  0  0  0  0  0  0
    1.7330   -2.8960   -0.1530 H   0  0  0  0  0  0  0  0  0  0  0  0
    3.8330   -3.8840   -0.2390 H   0  0  0  0  0  0  0  0  0  0  0  0
    5.4010    1.4240    0.0710 H   0  0  0  0  0  0  0  0  0  0  0  0
   -1.2900    2.6140    0.5660 H   0  0  0  0  0  0  0  0  0  0  0  0
  1  2  1  0
  1 25  1  0
  1 24  1  0
  1 23  1  0
  2  3  1  0
  3  8  2  0
  3  4  1  0
  4  5  2  0
  4 26  1  0
  5  6  1  0
  5 27  1  0
  6  7  2  0
  6  9  1  0
  7 28  1  0
  7  8  1  0
  8 29  1  0
  9 19  1  0
  9 10  2  0
 10 22  1  0
 10 11  1  0
 11 13  1  0
 11 12  2  0
 13 18  2  0
 13 14  1  0
 14 15  2  0
 14 21  1  0
 15 16  1  0
 15 30  1  0
 16 20  1  0
 16 17  2  0
 17 31  1  0
 17 18  1  0
 18 19  1  0
 20 32  1  0
 21 33  1  0
 22 34  1  0
M  END
>  <id>  (774) 
885

>  <scaffolds>  (774) 
['c1ccccc1', 'O=c1cc(-c2ccccc2)oc2ccccc12', 'O=c1ccoc2ccccc12']

>  <name>  (774) 
Kaempferide

>  <formula>  (774) 
C16H12O6

>  <SMILES>  (774) 
COC1=CC=C(C=C1)C2=C(C(=O)C3=C(C=C(C=C3O2)O)O)O

>  <ChEMBL_id>  (774) 
SCHEMBL426774

>  <ZINC_id>  (774) 
ZINC6411540

>  <PubChem_id>  (774) 
5281666

>  <DrugBank_id>  (774) 


>  <CAS_no>  (774) 
491-54-3

>  <references>  (774) 
[{'journal': {'name': 'Molecules', 'id': 25}, 'title': 'Inhibition of Oxidative Stress and Skin Aging-Related Enzymes by Prenylated Chalcones and Other Flavonoids from Helichrysum teretifolium', 'year': 2015, 'start_page': None, 'volume': None, 'issue': None, 'doi': '10.3390/molecules20047143', 'isbn': '', 'despositor': {'code': 'BND', 'first_name': "Bakary N'tji", 'last_name': 'Diallo', 'id': 26}, 'refauthors_set': [{'author': {'first_name': 'Olugbenga K. ', 'initials': 'OKP', 'last_name': 'Popoola', 'id': 961}, 'first_author': True, 'id': 1548}], 'id': 437}]

>  <classifications>  (774) 
[{'classification': 'Kaempferols', 'id': 903}, {'classification': 'Flavonoids (Classyfire)', 'id': 941}]

>  <molecular_mass>  (774) 
300.06

$$$$
SANC00886_minRM1.pdb
     RDKit          3D

138143  0  0  1  0  0  0  0  0999 V2000
   11.0290   -0.3920   -2.9050 C   0  0  0  0  0  0  0  0  0  0  0  0
   11.1580   -0.2250   -1.3970 C   0  0  0  0  0  0  0  0  0  0  0  0
    9.9850    0.4850   -0.8520 C   0  0  0  0  0  0  0  0  0  0  0  0
    9.6810    1.8040   -0.9650 C   0  0  0  0  0  0  0  0  0  0  0  0
    8.4160    2.0040   -0.2250 C   0  0  0  0  0  0  0  0  0  0  0  0
    7.9400    0.8780    0.2790 N   0  0  0  0  0  0  0  0  0  0  0  0
    8.8800   -0.1530   -0.1020 C   0  0  0  0  0  0  0  0  0  0  0  0
    8.7130   -1.4580    0.1760 C   0  0  0  0  0  0  0  0  0  0  0  0
    7.4800   -2.0180    0.6670 C   0  0  0  0  0  0  0  0  0  0  0  0
    7.2500   -3.2860    1.1660 C   0  0  0  0  0  0  0  0  0  0  0  0
    5.8130   -3.4230    1.2560 C   0  0  0  0  0  0  0  0  0  0  0  0
    4.7580   -4.2400    1.4160 C   0  0  0  0  0  0  0  0  0  0  0  0
    3.4510   -3.5320    1.0400 C   0  0  1  0  0  0  0  0  0  0  0  0
    3.8660   -2.1170    0.7410 C   0  0  0  0  0  0  0  0  0  0  0  0
    3.1350   -1.0640    0.3190 C   0  0  0  0  0  0  0  0  0  0  0  0
    1.6940   -1.0310   -0.1360 C   0  0  2  0  0  0  0  0  0  0  0  0
    1.5990    0.2940   -0.9480 C   0  0  1  0  0  0  0  0  0  0  0  0
    2.8530    1.0480   -0.5750 C   0  0  0  0  0  0  0  0  0  0  0  0
    3.1150    2.3370   -0.8350 C   0  0  0  0  0  0  0  0  0  0  0  0
    4.3410    2.9630   -0.3780 C   0  0  0  0  0  0  0  0  0  0  0  0
    5.5610    2.5540   -0.6860 N   0  0  0  0  0  0  0  0  0  0  0  0
    6.4620    3.4510    0.0130 C   0  0  0  0  0  0  0  0  0  0  0  0
    7.7850    3.2690    0.1070 C   0  0  0  0  0  0  0  0  0  0  0  0
    5.6500    4.4680    0.7180 C   0  0  0  0  0  0  0  0  0  0  0  0
    4.3480    4.1350    0.5280 C   0  0  0  0  0  0  0  0  0  0  0  0
    3.1560    4.7120    1.1570 C   0  0  0  0  0  0  0  0  0  0  0  0
    6.1700    5.4970    1.5840 C   0  0  0  0  0  0  0  0  0  0  0  0
    7.1570    6.3160    1.2370 C   0  0  0  0  0  0  0  0  0  0  0  0
    3.7040    0.1900    0.1390 N   0  0  0  0  0  0  0  0  0  0  0  0
    1.5940    0.0250   -2.4440 C   0  0  0  0  0  0  0  0  0  0  0  0
    0.7010   -1.0220    1.0270 C   0  0  0  0  0  0  0  0  0  0  0  0
   -0.7150   -1.2630    0.4930 C   0  0  0  0  0  0  0  0  0  0  0  0
   -1.7460   -0.4560    1.2330 C   0  0  0  0  0  0  0  0  0  0  0  0
   -2.6600   -0.8840    1.9120 O   0  0  0  0  0  0  0  0  0  0  0  0
   -1.5650    0.8760    1.0560 O   0  0  0  0  0  0  0  0  0  0  0  0
   -2.5060    1.7770    1.6090 C   0  0  0  0  0  0  0  0  0  0  0  0
   -3.5890    2.0420    0.6160 C   0  0  0  0  0  0  0  0  0  0  0  0
   -4.8940    1.9220    0.8670 C   0  0  0  0  0  0  0  0  0  0  0  0
   -5.4290    1.3860    2.1460 C   0  0  0  0  0  0  0  0  0  0  0  0
   -5.8960    2.3350   -0.1680 C   0  0  0  0  0  0  0  0  0  0  0  0
   -5.9440    1.3080   -1.3040 C   0  0  0  0  0  0  0  0  0  0  0  0
   -7.3520    1.1690   -1.8840 C   0  0  0  0  0  0  0  0  0  0  0  0
   -8.2420    0.2890   -0.9940 C   0  0  2  0  0  0  0  0  0  0  0  0
   -7.9310   -1.1830   -1.2400 C   0  0  0  0  0  0  0  0  0  0  0  0
   -9.7250    0.5730   -1.2660 C   0  0  0  0  0  0  0  0  0  0  0  0
  -10.6460   -0.0760   -0.2280 C   0  0  0  0  0  0  0  0  0  0  0  0
  -11.2590   -1.4020   -0.6780 C   0  0  0  0  0  0  0  0  0  0  0  0
  -12.7170   -1.3010   -1.1470 C   0  0  2  0  0  0  0  0  0  0  0  0
  -12.8170   -0.4210   -2.3860 C   0  0  0  0  0  0  0  0  0  0  0  0
  -13.6340   -0.7840   -0.0310 C   0  0  0  0  0  0  0  0  0  0  0  0
  -15.0690   -1.2810   -0.2100 C   0  0  0  0  0  0  0  0  0  0  0  0
  -15.9970   -0.7470    0.8800 C   0  0  0  0  0  0  0  0  0  0  0  0
  -16.3860    0.7210    0.6770 C   0  0  2  0  0  0  0  0  0  0  0  0
  -17.0630    1.2490    1.9390 C   0  0  0  0  0  0  0  0  0  0  0  0
  -17.3360    0.8760   -0.5050 C   0  0  0  0  0  0  0  0  0  0  0  0
    5.3020   -2.0980    0.8210 C   0  0  0  0  0  0  0  0  0  0  0  0
    6.2590   -1.2620    0.4790 N   0  0  0  0  0  0  0  0  0  0  0  0
    2.9200   -4.1570   -0.2300 C   0  0  0  0  0  0  0  0  0  0  0  0
    1.8130   -4.6360   -0.3980 O   0  0  0  0  0  0  0  0  0  0  0  0
    3.8330   -4.1310   -1.2260 O   0  0  0  0  0  0  0  0  0  0  0  0
    3.4300   -4.5720   -2.5020 C   0  0  0  0  0  0  0  0  0  0  0  0
    4.8250   -5.5160    1.8110 O   0  0  0  0  0  0  0  0  0  0  0  0
    8.2300   -4.3260    1.4930 C   0  0  0  0  0  0  0  0  0  0  0  0
   10.4010    2.8620   -1.6820 C   0  0  0  0  0  0  0  0  0  0  0  0
   10.1240   -0.9500   -3.1850 H   0  0  0  0  0  0  0  0  0  0  0  0
   10.9780    0.5760   -3.4240 H   0  0  0  0  0  0  0  0  0  0  0  0
   11.8850   -0.9380   -3.3290 H   0  0  0  0  0  0  0  0  0  0  0  0
   11.2960   -1.2130   -0.9100 H   0  0  0  0  0  0  0  0  0  0  0  0
   12.0880    0.3320   -1.1460 H   0  0  0  0  0  0  0  0  0  0  0  0
    9.5120   -2.1800   -0.0350 H   0  0  0  0  0  0  0  0  0  0  0  0
    2.6940   -3.5930    1.8580 H   0  0  0  0  0  0  0  0  0  0  0  0
    1.5040   -1.9240   -0.7820 H   0  0  0  0  0  0  0  0  0  0  0  0
    0.6960    0.8900   -0.6680 H   0  0  0  0  0  0  0  0  0  0  0  0
    2.4150    2.9650   -1.3890 H   0  0  0  0  0  0  0  0  0  0  0  0
    8.4410    4.0300    0.5460 H   0  0  0  0  0  0  0  0  0  0  0  0
    3.0810    4.3880    2.2090 H   0  0  0  0  0  0  0  0  0  0  0  0
    3.1760    5.8120    1.1620 H   0  0  0  0  0  0  0  0  0  0  0  0
    2.2210    4.4050    0.6660 H   0  0  0  0  0  0  0  0  0  0  0  0
    5.6860    5.5600    2.5670 H   0  0  0  0  0  0  0  0  0  0  0  0
    7.6450    6.3070    0.2680 H   0  0  0  0  0  0  0  0  0  0  0  0
    7.5490    7.0790    1.9020 H   0  0  0  0  0  0  0  0  0  0  0  0
    4.6870    0.4120    0.3210 H   0  0  0  0  0  0  0  0  0  0  0  0
    2.4750   -0.5470   -2.7710 H   0  0  0  0  0  0  0  0  0  0  0  0
    1.5930    0.9600   -3.0240 H   0  0  0  0  0  0  0  0  0  0  0  0
    0.7060   -0.5450   -2.7530 H   0  0  0  0  0  0  0  0  0  0  0  0
    0.7800   -0.0710    1.5960 H   0  0  0  0  0  0  0  0  0  0  0  0
    0.9660   -1.8010    1.7720 H   0  0  0  0  0  0  0  0  0  0  0  0
   -0.9780   -2.3410    0.5580 H   0  0  0  0  0  0  0  0  0  0  0  0
   -0.8070   -1.0240   -0.5890 H   0  0  0  0  0  0  0  0  0  0  0  0
   -2.8640    1.4670    2.6160 H   0  0  0  0  0  0  0  0  0  0  0  0
   -1.8990    2.6970    1.7710 H   0  0  0  0  0  0  0  0  0  0  0  0
   -3.2370    2.3940   -0.3600 H   0  0  0  0  0  0  0  0  0  0  0  0
   -4.9780    0.4140    2.4030 H   0  0  0  0  0  0  0  0  0  0  0  0
   -5.2380    2.0710    2.9870 H   0  0  0  0  0  0  0  0  0  0  0  0
   -6.5160    1.2140    2.1300 H   0  0  0  0  0  0  0  0  0  0  0  0
   -6.8970    2.4930    0.2880 H   0  0  0  0  0  0  0  0  0  0  0  0
   -5.6460    3.3420   -0.5670 H   0  0  0  0  0  0  0  0  0  0  0  0
   -5.5630    0.3230   -0.9630 H   0  0  0  0  0  0  0  0  0  0  0  0
   -5.2310    1.6060   -2.1020 H   0  0  0  0  0  0  0  0  0  0  0  0
   -7.7960    2.1770   -2.0300 H   0  0  0  0  0  0  0  0  0  0  0  0
   -7.3060    0.7500   -2.9110 H   0  0  0  0  0  0  0  0  0  0  0  0
   -8.0230    0.5250    0.0800 H   0  0  0  0  0  0  0  0  0  0  0  0
   -6.8590   -1.4090   -1.1410 H   0  0  0  0  0  0  0  0  0  0  0  0
   -8.4470   -1.8390   -0.5250 H   0  0  0  0  0  0  0  0  0  0  0  0
   -8.2230   -1.5130   -2.2480 H   0  0  0  0  0  0  0  0  0  0  0  0
   -9.8990    1.6720   -1.2600 H   0  0  0  0  0  0  0  0  0  0  0  0
   -9.9950    0.2700   -2.2990 H   0  0  0  0  0  0  0  0  0  0  0  0
  -10.0990   -0.2300    0.7280 H   0  0  0  0  0  0  0  0  0  0  0  0
  -11.4370    0.6490    0.0580 H   0  0  0  0  0  0  0  0  0  0  0  0
  -10.6520   -1.8700   -1.4820 H   0  0  0  0  0  0  0  0  0  0  0  0
  -11.1990   -2.1380    0.1540 H   0  0  0  0  0  0  0  0  0  0  0  0
  -13.0400   -2.3390   -1.4290 H   0  0  0  0  0  0  0  0  0  0  0  0
  -12.1810   -0.7910   -3.2040 H   0  0  0  0  0  0  0  0  0  0  0  0
  -13.8400   -0.3790   -2.7850 H   0  0  0  0  0  0  0  0  0  0  0  0
  -12.5130    0.6190   -2.1980 H   0  0  0  0  0  0  0  0  0  0  0  0
  -13.2520   -1.1040    0.9620 H   0  0  0  0  0  0  0  0  0  0  0  0
  -13.6160    0.3250    0.0110 H   0  0  0  0  0  0  0  0  0  0  0  0
  -15.4530   -1.0220   -1.2170 H   0  0  0  0  0  0  0  0  0  0  0  0
  -15.0870   -2.3930   -0.1890 H   0  0  0  0  0  0  0  0  0  0  0  0
  -16.9140   -1.3730    0.9310 H   0  0  0  0  0  0  0  0  0  0  0  0
  -15.5230   -0.8830    1.8760 H   0  0  0  0  0  0  0  0  0  0  0  0
  -15.4660    1.3300    0.4850 H   0  0  0  0  0  0  0  0  0  0  0  0
  -17.9670    0.6800    2.1980 H   0  0  0  0  0  0  0  0  0  0  0  0
  -17.3710    2.2990    1.8330 H   0  0  0  0  0  0  0  0  0  0  0  0
  -16.4010    1.2080    2.8160 H   0  0  0  0  0  0  0  0  0  0  0  0
  -17.6560    1.9200   -0.6400 H   0  0  0  0  0  0  0  0  0  0  0  0
  -18.2530    0.2800   -0.3890 H   0  0  0  0  0  0  0  0  0  0  0  0
  -16.8780    0.5720   -1.4570 H   0  0  0  0  0  0  0  0  0  0  0  0
    2.5610   -4.0170   -2.8920 H   0  0  0  0  0  0  0  0  0  0  0  0
    4.3090   -4.3680   -3.1320 H   0  0  0  0  0  0  0  0  0  0  0  0
    3.2000   -5.6490   -2.5190 H   0  0  0  0  0  0  0  0  0  0  0  0
    3.9330   -5.8870    1.7940 H   0  0  0  0  0  0  0  0  0  0  0  0
    7.8670   -5.0030    2.2800 H   0  0  0  0  0  0  0  0  0  0  0  0
    9.1850   -3.9060    1.8440 H   0  0  0  0  0  0  0  0  0  0  0  0
    8.4550   -4.9490    0.6130 H   0  0  0  0  0  0  0  0  0  0  0  0
   11.4730    2.6410   -1.7960 H   0  0  0  0  0  0  0  0  0  0  0  0
    9.9950    2.9960   -2.6980 H   0  0  0  0  0  0  0  0  0  0  0  0
   10.3250    3.8360   -1.1770 H   0  0  0  0  0  0  0  0  0  0  0  0
  1 66  1  0
  1 67  1  0
  1 65  1  0
  1  2  1  0
  2 69  1  0
  2 68  1  0
  2  3  1  0
  3  4  2  0
  3  7  1  0
  4 64  1  0
  4  5  1  0
  5 23  2  0
  5  6  1  0
  6  7  1  0
  7  8  2  0
  8 70  1  0
  8  9  1  0
  9 57  2  0
  9 10  1  0
 10 11  2  0
 10 63  1  0
 11 56  1  0
 11 12  1  0
 12 13  1  0
 12 62  1  0
 13 58  1  0
 13 14  1  0
 13 71  1  1
 14 15  1  0
 14 56  2  0
 15 16  2  0
 15 29  1  0
 16 17  1  0
 16 72  1  6
 16 31  1  0
 17 30  1  0
 17 73  1  1
 17 18  2  0
 18 19  1  0
 18 29  1  0
 19 74  1  0
 19 20  2  0
 20 21  1  0
 20 25  1  0
 21 22  2  0
 22 23  1  0
 22 24  1  0
 23 75  1  0
 24 25  2  0
 24 27  1  0
 25 26  1  0
 26 78  1  0
 26 77  1  0
 26 76  1  0
 27 28  2  0
 27 79  1  0
 28 80  1  0
 28 81  1  0
 29 82  1  0
 30 84  1  0
 30 83  1  0
 30 85  1  0
 31 32  1  0
 31 86  1  0
 31 87  1  0
 32 89  1  0
 32 88  1  0
 32 33  1  0
 33 35  1  0
 33 34  2  0
 35 36  1  0
 36 37  1  0
 36 91  1  0
 36 90  1  0
 37 92  1  0
 37 38  2  0
 38 40  1  0
 38 39  1  0
 39 95  1  0
 39 93  1  0
 39 94  1  0
 40 41  1  0
 40 97  1  0
 40 96  1  0
 41 99  1  0
 41 42  1  0
 41 98  1  0
 42101  1  0
 42100  1  0
 42 43  1  0
 43 45  1  0
 43 44  1  0
 43102  1  1
 44105  1  0
 44103  1  0
 44104  1  0
 45107  1  0
 45106  1  0
 45 46  1  0
 46 47  1  0
 46109  1  0
 46108  1  0
 47110  1  0
 47 48  1  0
 47111  1  0
 48 49  1  0
 48112  1  6
 48 50  1  0
 49113  1  0
 49114  1  0
 49115  1  0
 50 51  1  0
 50117  1  0
 50116  1  0
 51118  1  0
 51119  1  0
 51 52  1  0
 52 53  1  0
 52120  1  0
 52121  1  0
 53 55  1  0
 53122  1  6
 53 54  1  0
 54124  1  0
 54123  1  0
 54125  1  0
 55128  1  0
 55126  1  0
 55127  1  0
 56 57  1  0
 58 60  1  0
 58 59  2  0
 60 61  1  0
 61130  1  0
 61129  1  0
 61131  1  0
 62132  1  0
 63135  1  0
 63134  1  0
 63133  1  0
 64137  1  0
 64136  1  0
 64138  1  0
M  END
>  <id>  (775) 
886

>  <scaffolds>  (775) 
['C1CCNC1']

>  <name>  (775) 
Pheophytin a

>  <formula>  (775) 
C55H74N4O5

>  <SMILES>  (775) 
CCC1=C(C2=NC1=CC3=C(C4=C([C@@H](C(=C5[C@H]([C@@H](C(=CC6=NC(=C2)C(=C6C)C=C)N5)C)CCC(=O)OC/C=C(C)/CCC[C@H](C)CCC[C@H](C)CCCC(C)C)C4=N3)C(=O)OC)O)C)C

>  <ChEMBL_id>  (775) 
CHEMBL3349047

>  <ZINC_id>  (775) 


>  <PubChem_id>  (775) 
135398712

>  <DrugBank_id>  (775) 


>  <CAS_no>  (775) 
603-17-8

>  <references>  (775) 
[{'journal': {'name': 'Molecules', 'id': 25}, 'title': 'Anti-HIV Activity of Ocimum labiatum Extract and Isolated Pheophytin-a', 'year': 2017, 'start_page': None, 'volume': None, 'issue': None, 'doi': '10.3390/molecules22111763', 'isbn': '', 'despositor': {'code': 'BND', 'first_name': "Bakary N'tji", 'last_name': 'Diallo', 'id': 26}, 'refauthors_set': [{'author': {'first_name': 'Petrina ', 'initials': 'PK', 'last_name': 'Kapewangolo', 'id': 968}, 'first_author': True, 'id': 1554}], 'id': 443}]

>  <classifications>  (775) 
[{'classification': 'Pheophytins', 'id': 904}, {'classification': 'Tetrapyrroles and derivatives (Classyfire)', 'id': 1007}]

>  <molecular_mass>  (775) 
870.57

$$$$
SANC00887_minRM1.pdb
     RDKit          3D

 42 42  0  0  1  0  0  0  0  0999 V2000
    3.6200   -3.3310    0.7860 C   0  0  0  0  0  0  0  0  0  0  0  0
    2.5750   -2.3570    0.2650 C   0  0  0  0  0  0  0  0  0  0  0  0
    3.1850   -0.9780   -0.0080 C   0  0  2  0  0  0  0  0  0  0  0  0
    3.3960   -0.1940    1.2790 C   0  0  0  0  0  0  0  0  0  0  0  0
    2.2720   -0.2200   -0.9540 C   0  0  0  0  0  0  0  0  0  0  0  0
    2.4380   -0.2680   -2.1580 O   0  0  0  0  0  0  0  0  0  0  0  0
    1.1960    0.6160   -0.3800 C   0  0  0  0  0  0  0  0  0  0  0  0
    1.3760    1.9880   -0.1870 C   0  0  0  0  0  0  0  0  0  0  0  0
    0.3810    2.7890    0.3740 C   0  0  0  0  0  0  0  0  0  0  0  0
   -0.8280    2.1840    0.7190 C   0  0  0  0  0  0  0  0  0  0  0  0
   -1.0750    0.8210    0.5100 C   0  0  0  0  0  0  0  0  0  0  0  0
   -0.0480    0.0620   -0.0620 C   0  0  0  0  0  0  0  0  0  0  0  0
   -0.1570   -1.2600   -0.3220 O   0  0  0  0  0  0  0  0  0  0  0  0
   -2.3750    0.1890    0.8770 C   0  0  0  0  0  0  0  0  0  0  0  0
   -3.1340   -0.2180   -0.3410 C   0  0  0  0  0  0  0  0  0  0  0  0
   -4.1770   -1.0510   -0.2960 C   0  0  0  0  0  0  0  0  0  0  0  0
   -4.6610   -1.6600    0.9710 C   0  0  0  0  0  0  0  0  0  0  0  0
   -4.9270   -1.4280   -1.5240 C   0  0  0  0  0  0  0  0  0  0  0  0
   -1.7330    3.0280    1.2610 O   0  0  0  0  0  0  0  0  0  0  0  0
    2.5180    2.6390   -0.4980 O   0  0  0  0  0  0  0  0  0  0  0  0
    3.1870   -4.3260    0.9660 H   0  0  0  0  0  0  0  0  0  0  0  0
    4.0640   -3.0090    1.7390 H   0  0  0  0  0  0  0  0  0  0  0  0
    4.4500   -3.4760    0.0800 H   0  0  0  0  0  0  0  0  0  0  0  0
    2.1150   -2.7630   -0.6620 H   0  0  0  0  0  0  0  0  0  0  0  0
    1.7360   -2.2780    0.9870 H   0  0  0  0  0  0  0  0  0  0  0  0
    4.1770   -1.1090   -0.5170 H   0  0  0  0  0  0  0  0  0  0  0  0
    4.1240   -0.6820    1.9420 H   0  0  0  0  0  0  0  0  0  0  0  0
    2.4700   -0.0750    1.8610 H   0  0  0  0  0  0  0  0  0  0  0  0
    3.7800    0.8180    1.0860 H   0  0  0  0  0  0  0  0  0  0  0  0
    0.5430    3.8590    0.5330 H   0  0  0  0  0  0  0  0  0  0  0  0
   -1.0850   -1.5240   -0.3380 H   0  0  0  0  0  0  0  0  0  0  0  0
   -3.0110    0.8780    1.4850 H   0  0  0  0  0  0  0  0  0  0  0  0
   -2.1960   -0.6650    1.5690 H   0  0  0  0  0  0  0  0  0  0  0  0
   -2.8070    0.2340   -1.2840 H   0  0  0  0  0  0  0  0  0  0  0  0
   -4.8310   -0.9050    1.7550 H   0  0  0  0  0  0  0  0  0  0  0  0
   -5.6110   -2.2030    0.8550 H   0  0  0  0  0  0  0  0  0  0  0  0
   -3.9370   -2.3850    1.3740 H   0  0  0  0  0  0  0  0  0  0  0  0
   -4.9430   -2.5200   -1.6650 H   0  0  0  0  0  0  0  0  0  0  0  0
   -4.5130   -0.9980   -2.4470 H   0  0  0  0  0  0  0  0  0  0  0  0
   -5.9760   -1.0970   -1.4660 H   0  0  0  0  0  0  0  0  0  0  0  0
   -2.5520    2.5450    1.4480 H   0  0  0  0  0  0  0  0  0  0  0  0
    3.0550    2.0950   -1.0870 H   0  0  0  0  0  0  0  0  0  0  0  0
  1 23  1  0
  1  2  1  0
  1 21  1  0
  1 22  1  0
  2 24  1  0
  2  3  1  0
  2 25  1  0
  3  5  1  0
  3 26  1  6
  3  4  1  0
  4 29  1  0
  4 28  1  0
  4 27  1  0
  5  6  2  0
  5  7  1  0
  7  8  2  0
  7 12  1  0
  8 20  1  0
  8  9  1  0
  9 30  1  0
  9 10  2  0
 10 11  1  0
 10 19  1  0
 11 12  2  0
 11 14  1  0
 12 13  1  0
 13 31  1  0
 14 15  1  0
 14 32  1  0
 14 33  1  0
 15 34  1  0
 15 16  2  0
 16 18  1  0
 16 17  1  0
 17 36  1  0
 17 37  1  0
 17 35  1  0
 18 39  1  0
 18 38  1  0
 18 40  1  0
 19 41  1  0
 20 42  1  0
M  END
>  <id>  (776) 
887

>  <scaffolds>  (776) 
['c1ccccc1']

>  <name>  (776) 
2-methyl-1-[2,4,6-trihydroxy-3-(3-methylbut-2-en-1-yl)phenyl]butan-1-one

>  <formula>  (776) 
C16H22O4

>  <SMILES>  (776) 
CCC(C)C(=O)C1=C(C=C(C(=C1O)CC=C(C)C)O)O

>  <ChEMBL_id>  (776) 


>  <ZINC_id>  (776) 


>  <PubChem_id>  (776) 
14282623

>  <DrugBank_id>  (776) 


>  <CAS_no>  (776) 
71539-60-1

>  <references>  (776) 
[{'journal': {'name': 'Molecules', 'id': 25}, 'title': 'Acylphloroglucinol Derivatives from the South African Helichrysum niveum and Their Biological Activities', 'year': 2015, 'start_page': None, 'volume': None, 'issue': None, 'doi': '10.3390/molecules200917309', 'isbn': '', 'despositor': {'code': 'BND', 'first_name': "Bakary N'tji", 'last_name': 'Diallo', 'id': 26}, 'refauthors_set': [{'author': {'first_name': 'Olugbenga K. ', 'initials': 'OKP', 'last_name': 'Popoola', 'id': 961}, 'first_author': True, 'id': 1564}], 'id': 455}]

>  <classifications>  (776) 
[{'classification': 'polyol', 'id': 905}, {'classification': 'Organooxygen compounds (Classyfire)', 'id': 954}]

>  <molecular_mass>  (776) 
278.15

$$$$
SANC00888_minRM1.pdb
     RDKit          3D

 39 39  0  0  0  0  0  0  0  0999 V2000
    6.1660    1.3130   -0.8280 C   0  0  0  0  0  0  0  0  0  0  0  0
    4.8170    1.7500   -0.2810 C   0  0  0  0  0  0  0  0  0  0  0  0
    3.7650    0.6720   -0.5410 C   0  0  0  0  0  0  0  0  0  0  0  0
    2.4100    1.0550   -0.0220 C   0  0  0  0  0  0  0  0  0  0  0  0
    2.2670    2.1390    0.5620 O   0  0  0  0  0  0  0  0  0  0  0  0
    1.2370    0.2010   -0.1800 C   0  0  0  0  0  0  0  0  0  0  0  0
    1.2290   -1.0640   -0.7910 C   0  0  0  0  0  0  0  0  0  0  0  0
    0.0750   -1.8250   -0.9220 C   0  0  0  0  0  0  0  0  0  0  0  0
   -1.1290   -1.3080   -0.4220 C   0  0  0  0  0  0  0  0  0  0  0  0
   -1.1970   -0.0630    0.2030 C   0  0  0  0  0  0  0  0  0  0  0  0
   -0.0060    0.6750    0.3180 C   0  0  0  0  0  0  0  0  0  0  0  0
   -0.1220    1.8520    0.9310 O   0  0  0  0  0  0  0  0  0  0  0  0
   -2.4980    0.4480    0.7290 C   0  0  0  0  0  0  0  0  0  0  0  0
   -3.4880    0.6090   -0.3760 C   0  0  0  0  0  0  0  0  0  0  0  0
   -4.8030    0.7120   -0.1620 C   0  0  0  0  0  0  0  0  0  0  0  0
   -5.7650    0.9010   -1.2810 C   0  0  0  0  0  0  0  0  0  0  0  0
   -5.3980    0.6500    1.1990 C   0  0  0  0  0  0  0  0  0  0  0  0
   -2.1790   -2.1330   -0.5960 O   0  0  0  0  0  0  0  0  0  0  0  0
    2.4040   -1.5360   -1.2600 O   0  0  0  0  0  0  0  0  0  0  0  0
    6.5260    0.3850   -0.3610 H   0  0  0  0  0  0  0  0  0  0  0  0
    6.9400    2.0740   -0.6540 H   0  0  0  0  0  0  0  0  0  0  0  0
    6.1400    1.1330   -1.9130 H   0  0  0  0  0  0  0  0  0  0  0  0
    4.8910    1.9670    0.8050 H   0  0  0  0  0  0  0  0  0  0  0  0
    4.5070    2.7130   -0.7380 H   0  0  0  0  0  0  0  0  0  0  0  0
    3.6970    0.4670   -1.6310 H   0  0  0  0  0  0  0  0  0  0  0  0
    4.0810   -0.2830   -0.0690 H   0  0  0  0  0  0  0  0  0  0  0  0
    0.0800   -2.8080   -1.3990 H   0  0  0  0  0  0  0  0  0  0  0  0
    0.7490    2.3380    0.9860 H   0  0  0  0  0  0  0  0  0  0  0  0
   -2.3990    1.4250    1.2530 H   0  0  0  0  0  0  0  0  0  0  0  0
   -2.8620   -0.2340    1.5310 H   0  0  0  0  0  0  0  0  0  0  0  0
   -3.0710    0.6890   -1.3860 H   0  0  0  0  0  0  0  0  0  0  0  0
   -6.5430    0.1220   -1.2800 H   0  0  0  0  0  0  0  0  0  0  0  0
   -5.2970    0.8760   -2.2760 H   0  0  0  0  0  0  0  0  0  0  0  0
   -6.2800    1.8700   -1.2010 H   0  0  0  0  0  0  0  0  0  0  0  0
   -6.4690    0.9020    1.2140 H   0  0  0  0  0  0  0  0  0  0  0  0
   -4.9080    1.3480    1.8960 H   0  0  0  0  0  0  0  0  0  0  0  0
   -5.3100   -0.3570    1.6350 H   0  0  0  0  0  0  0  0  0  0  0  0
   -2.9950   -1.7270   -0.2770 H   0  0  0  0  0  0  0  0  0  0  0  0
    2.2690   -2.4080   -1.6520 H   0  0  0  0  0  0  0  0  0  0  0  0
  1 22  1  0
  1 21  1  0
  1 20  1  0
  1  2  1  0
  2 24  1  0
  2  3  1  0
  2 23  1  0
  3 25  1  0
  3 26  1  0
  3  4  1  0
  4  6  1  0
  4  5  2  0
  6  7  2  0
  6 11  1  0
  7 19  1  0
  7  8  1  0
  8 27  1  0
  8  9  2  0
  9 18  1  0
  9 10  1  0
 10 11  2  0
 10 13  1  0
 11 12  1  0
 12 28  1  0
 13 14  1  0
 13 29  1  0
 13 30  1  0
 14 31  1  0
 14 15  2  0
 15 16  1  0
 15 17  1  0
 16 33  1  0
 16 32  1  0
 16 34  1  0
 17 35  1  0
 17 37  1  0
 17 36  1  0
 18 38  1  0
 19 39  1  0
M  END
>  <id>  (777) 
888

>  <scaffolds>  (777) 
['c1ccccc1']

>  <name>  (777) 
1-[2,4,6-Trihydroxy-3-(3-methylbut-2-en-1-yl)phenyl]butan-1-one

>  <formula>  (777) 
C15H20O4

>  <SMILES>  (777) 
CCCC(=O)C1=C(C=C(C(=C1O)CC=C(C)C)O)O

>  <ChEMBL_id>  (777) 
CHEMBL3945645

>  <ZINC_id>  (777) 


>  <PubChem_id>  (777) 
13411737

>  <DrugBank_id>  (777) 


>  <CAS_no>  (777) 
69916-08-1

>  <references>  (777) 
[{'journal': {'name': 'Molecules', 'id': 25}, 'title': 'Acylphloroglucinol Derivatives from the South African Helichrysum niveum and Their Biological Activities', 'year': 2015, 'start_page': None, 'volume': None, 'issue': None, 'doi': '10.3390/molecules200917309', 'isbn': '', 'despositor': {'code': 'BND', 'first_name': "Bakary N'tji", 'last_name': 'Diallo', 'id': 26}, 'refauthors_set': [{'author': {'first_name': 'Olugbenga K. ', 'initials': 'OKP', 'last_name': 'Popoola', 'id': 961}, 'first_author': True, 'id': 1564}], 'id': 455}]

>  <classifications>  (777) 
[{'classification': 'Ketone', 'id': 906}, {'classification': 'Organooxygen compounds (Classyfire)', 'id': 954}]

>  <molecular_mass>  (777) 
264.14

$$$$
SANC00889_minRM1.pdb
     RDKit          3D

 39 39  0  0  0  0  0  0  0  0999 V2000
   -4.7740    0.7580    0.3470 C   0  0  0  0  0  0  0  0  0  0  0  0
   -3.4900    0.7760   -0.4720 C   0  0  0  0  0  0  0  0  0  0  0  0
   -3.4040    2.0460   -1.3110 C   0  0  0  0  0  0  0  0  0  0  0  0
   -2.2990    0.7500    0.4620 C   0  0  0  0  0  0  0  0  0  0  0  0
   -2.1650    1.5540    1.3630 O   0  0  0  0  0  0  0  0  0  0  0  0
   -1.2840   -0.2960    0.2170 C   0  0  0  0  0  0  0  0  0  0  0  0
   -1.5880   -1.6500    0.3580 C   0  0  0  0  0  0  0  0  0  0  0  0
   -0.6230   -2.6430    0.1820 C   0  0  0  0  0  0  0  0  0  0  0  0
    0.6750   -2.2450   -0.1520 C   0  0  0  0  0  0  0  0  0  0  0  0
    1.0300   -0.9040   -0.3240 C   0  0  0  0  0  0  0  0  0  0  0  0
    0.0270    0.0550   -0.1270 C   0  0  0  0  0  0  0  0  0  0  0  0
    0.2150    1.3770   -0.3170 O   0  0  0  0  0  0  0  0  0  0  0  0
    2.4120   -0.4840   -0.7020 C   0  0  0  0  0  0  0  0  0  0  0  0
    3.0500    0.2820    0.4070 C   0  0  0  0  0  0  0  0  0  0  0  0
    4.1350    1.0410    0.2310 C   0  0  0  0  0  0  0  0  0  0  0  0
    4.7890    1.2030   -1.0940 C   0  0  0  0  0  0  0  0  0  0  0  0
    4.7650    1.7780    1.3590 C   0  0  0  0  0  0  0  0  0  0  0  0
    1.6580   -3.1550   -0.3350 O   0  0  0  0  0  0  0  0  0  0  0  0
   -2.8680   -1.9360    0.6860 O   0  0  0  0  0  0  0  0  0  0  0  0
   -4.8520   -0.1500    0.9640 H   0  0  0  0  0  0  0  0  0  0  0  0
   -5.6650    0.7850   -0.2960 H   0  0  0  0  0  0  0  0  0  0  0  0
   -4.8460    1.6160    1.0300 H   0  0  0  0  0  0  0  0  0  0  0  0
   -3.4700   -0.1160   -1.1480 H   0  0  0  0  0  0  0  0  0  0  0  0
   -3.4240    2.9550   -0.6920 H   0  0  0  0  0  0  0  0  0  0  0  0
   -4.2410    2.1220   -2.0190 H   0  0  0  0  0  0  0  0  0  0  0  0
   -2.4790    2.0840   -1.9040 H   0  0  0  0  0  0  0  0  0  0  0  0
   -0.8750   -3.6980    0.3050 H   0  0  0  0  0  0  0  0  0  0  0  0
    1.1530    1.5970   -0.2530 H   0  0  0  0  0  0  0  0  0  0  0  0
    2.3710    0.1000   -1.6500 H   0  0  0  0  0  0  0  0  0  0  0  0
    3.0650   -1.3460   -0.9630 H   0  0  0  0  0  0  0  0  0  0  0  0
    2.6020    0.1560    1.3990 H   0  0  0  0  0  0  0  0  0  0  0  0
    4.1590    1.7790   -1.7890 H   0  0  0  0  0  0  0  0  0  0  0  0
    5.7530    1.7320   -1.0380 H   0  0  0  0  0  0  0  0  0  0  0  0
    4.9970    0.2350   -1.5740 H   0  0  0  0  0  0  0  0  0  0  0  0
    4.2120    1.6960    2.3060 H   0  0  0  0  0  0  0  0  0  0  0  0
    5.7830    1.4080    1.5560 H   0  0  0  0  0  0  0  0  0  0  0  0
    4.8520    2.8540    1.1390 H   0  0  0  0  0  0  0  0  0  0  0  0
    1.3050   -4.0410   -0.1870 H   0  0  0  0  0  0  0  0  0  0  0  0
   -2.9610   -2.8880    0.8070 H   0  0  0  0  0  0  0  0  0  0  0  0
  1  2  1  0
  1 21  1  0
  1 20  1  0
  1 22  1  0
  2  3  1  0
  2 23  1  0
  2  4  1  0
  3 25  1  0
  3 26  1  0
  3 24  1  0
  4  6  1  0
  4  5  2  0
  6 11  2  0
  6  7  1  0
  7  8  2  0
  7 19  1  0
  8  9  1  0
  8 27  1  0
  9 18  1  0
  9 10  2  0
 10 13  1  0
 10 11  1  0
 11 12  1  0
 12 28  1  0
 13 29  1  0
 13 30  1  0
 13 14  1  0
 14 15  2  0
 14 31  1  0
 15 16  1  0
 15 17  1  0
 16 32  1  0
 16 34  1  0
 16 33  1  0
 17 37  1  0
 17 36  1  0
 17 35  1  0
 18 38  1  0
 19 39  1  0
M  END
>  <id>  (778) 
889

>  <scaffolds>  (778) 
['c1ccccc1']

>  <name>  (778) 
2-(2-methylpropanoyl)-4-prenylphloroglucinol

>  <formula>  (778) 
C15H20O4

>  <SMILES>  (778) 
CC(C)C(=O)C1=C(C=C(C(=C1O)CC=C(C)C)O)O

>  <ChEMBL_id>  (778) 
CHEMBL3970720

>  <ZINC_id>  (778) 


>  <PubChem_id>  (778) 
13411738

>  <DrugBank_id>  (778) 


>  <CAS_no>  (778) 
35932-36-6

>  <references>  (778) 
[{'journal': {'name': 'Molecules', 'id': 25}, 'title': 'Acylphloroglucinol Derivatives from the South African Helichrysum niveum and Their Biological Activities', 'year': 2015, 'start_page': None, 'volume': None, 'issue': None, 'doi': '10.3390/molecules200917309', 'isbn': '', 'despositor': {'code': 'BND', 'first_name': "Bakary N'tji", 'last_name': 'Diallo', 'id': 26}, 'refauthors_set': [{'author': {'first_name': 'Olugbenga K. ', 'initials': 'OKP', 'last_name': 'Popoola', 'id': 961}, 'first_author': True, 'id': 1564}], 'id': 455}]

>  <classifications>  (778) 
[{'classification': 'Phenols', 'id': 895}, {'classification': 'Organooxygen compounds (Classyfire)', 'id': 954}]

>  <molecular_mass>  (778) 
264.14

$$$$
SANC00891_minRM1.pdb
     RDKit          3D

 70 72  0  0  1  0  0  0  0  0999 V2000
   -1.2300    2.4700   -3.6280 C   0  0  0  0  0  0  0  0  0  0  0  0
   -1.0060    1.2730   -2.7850 C   0  0  0  0  0  0  0  0  0  0  0  0
   -0.9090    1.2780   -1.4520 C   0  0  0  0  0  0  0  0  0  0  0  0
   -1.0110    2.5140   -0.6230 C   0  0  1  0  0  0  0  0  0  0  0  0
   -1.2010    2.2030    0.8200 C   0  0  0  0  0  0  0  0  0  0  0  0
   -0.9350    0.9870    1.3340 C   0  0  0  0  0  0  0  0  0  0  0  0
   -0.4940   -0.0540    0.6040 O   0  0  0  0  0  0  0  0  0  0  0  0
   -0.7020   -0.0540   -0.7850 C   0  0  1  0  0  0  0  0  0  0  0  0
   -1.7800   -0.9130   -1.0150 O   0  0  0  0  0  0  0  0  0  0  0  0
   -3.0370   -0.5170   -0.5340 C   0  0  1  0  0  0  0  0  0  0  0  0
   -4.0720   -1.1370   -1.5120 C   0  0  1  0  0  0  0  0  0  0  0  0
   -4.0820   -2.6910   -1.4500 C   0  0  2  0  0  0  0  0  0  0  0  0
   -3.2870   -3.2010   -0.2180 C   0  0  1  0  0  0  0  0  0  0  0  0
   -3.6210   -2.2810    0.9760 C   0  0  2  0  0  0  0  0  0  0  0  0
   -3.1140   -0.9800    0.7750 O   0  0  0  0  0  0  0  0  0  0  0  0
   -2.9450   -2.7710    2.2840 C   0  0  0  0  0  0  0  0  0  0  0  0
   -3.8000   -3.6010    3.0000 O   0  0  0  0  0  0  0  0  0  0  0  0
   -3.7490   -4.4720    0.1280 O   0  0  0  0  0  0  0  0  0  0  0  0
   -3.4170   -3.2330   -2.5510 O   0  0  0  0  0  0  0  0  0  0  0  0
   -5.3580   -0.7610   -1.1180 O   0  0  0  0  0  0  0  0  0  0  0  0
   -1.6540    3.2440    1.7370 C   0  0  0  0  0  0  0  0  0  0  0  0
   -1.7700    3.1490    2.9490 O   0  0  0  0  0  0  0  0  0  0  0  0
   -1.9750    4.4180    1.1260 O   0  0  0  0  0  0  0  0  0  0  0  0
   -2.4390    5.4640    1.9480 C   0  0  0  0  0  0  0  0  0  0  0  0
    0.2380    3.3900   -0.8030 C   0  0  0  0  0  0  0  0  0  0  0  0
    1.5090    2.5890   -0.7570 C   0  0  0  0  0  0  0  0  0  0  0  0
    2.2870    2.4170   -1.6780 O   0  0  0  0  0  0  0  0  0  0  0  0
    1.7610    2.0730    0.4700 O   0  0  0  0  0  0  0  0  0  0  0  0
    2.9880    1.3990    0.6700 C   0  0  0  0  0  0  0  0  0  0  0  0
    2.9240   -0.0150    0.0850 C   0  0  0  0  0  0  0  0  0  0  0  0
    4.2440   -0.6810    0.2860 C   0  0  0  0  0  0  0  0  0  0  0  0
    5.3070   -0.3260   -0.5400 C   0  0  0  0  0  0  0  0  0  0  0  0
    6.5370   -0.9520   -0.3690 C   0  0  0  0  0  0  0  0  0  0  0  0
    6.7080   -1.9320    0.6220 C   0  0  0  0  0  0  0  0  0  0  0  0
    5.6370   -2.2750    1.4470 C   0  0  0  0  0  0  0  0  0  0  0  0
    4.4110   -1.6450    1.2740 C   0  0  0  0  0  0  0  0  0  0  0  0
    7.8650   -2.5960    0.8590 O   0  0  0  0  0  0  0  0  0  0  0  0
    7.6320   -0.6800   -1.1300 O   0  0  0  0  0  0  0  0  0  0  0  0
   -1.7510    2.2180   -4.5650 H   0  0  0  0  0  0  0  0  0  0  0  0
   -0.2710    2.9260   -3.9200 H   0  0  0  0  0  0  0  0  0  0  0  0
   -1.8310    3.2550   -3.1470 H   0  0  0  0  0  0  0  0  0  0  0  0
   -0.9100    0.3280   -3.3390 H   0  0  0  0  0  0  0  0  0  0  0  0
   -1.9070    3.0960   -0.9760 H   0  0  0  0  0  0  0  0  0  0  0  0
   -0.9930    0.6980    2.3930 H   0  0  0  0  0  0  0  0  0  0  0  0
    0.1800   -0.6200   -1.1930 H   0  0  0  0  0  0  0  0  0  0  0  0
   -3.1630    0.5970   -0.4330 H   0  0  0  0  0  0  0  0  0  0  0  0
   -3.8370   -0.7760   -2.5510 H   0  0  0  0  0  0  0  0  0  0  0  0
   -5.1450   -3.0650   -1.3940 H   0  0  0  0  0  0  0  0  0  0  0  0
   -2.1800   -3.2170   -0.4160 H   0  0  0  0  0  0  0  0  0  0  0  0
   -4.7340   -2.2060    1.1130 H   0  0  0  0  0  0  0  0  0  0  0  0
   -1.9560   -3.2390    2.0730 H   0  0  0  0  0  0  0  0  0  0  0  0
   -2.7490   -1.9280    2.9850 H   0  0  0  0  0  0  0  0  0  0  0  0
   -3.9360   -4.4130    2.5000 H   0  0  0  0  0  0  0  0  0  0  0  0
   -3.4780   -5.0720   -0.5740 H   0  0  0  0  0  0  0  0  0  0  0  0
   -3.9670   -3.0890   -3.3270 H   0  0  0  0  0  0  0  0  0  0  0  0
   -5.4270    0.1970   -1.1830 H   0  0  0  0  0  0  0  0  0  0  0  0
   -2.6320    6.2870    1.2440 H   0  0  0  0  0  0  0  0  0  0  0  0
   -1.6910    5.7840    2.6920 H   0  0  0  0  0  0  0  0  0  0  0  0
   -3.3700    5.2070    2.4780 H   0  0  0  0  0  0  0  0  0  0  0  0
    0.1980    3.9370   -1.7690 H   0  0  0  0  0  0  0  0  0  0  0  0
    0.2790    4.1890   -0.0310 H   0  0  0  0  0  0  0  0  0  0  0  0
    3.0820    1.3870    1.7770 H   0  0  0  0  0  0  0  0  0  0  0  0
    3.8550    1.9740    0.2750 H   0  0  0  0  0  0  0  0  0  0  0  0
    2.6660    0.0040   -0.9950 H   0  0  0  0  0  0  0  0  0  0  0  0
    2.0960   -0.5890    0.5540 H   0  0  0  0  0  0  0  0  0  0  0  0
    5.1670    0.4310   -1.3170 H   0  0  0  0  0  0  0  0  0  0  0  0
    5.7680   -3.0370    2.2220 H   0  0  0  0  0  0  0  0  0  0  0  0
    3.5760   -1.9190    1.9260 H   0  0  0  0  0  0  0  0  0  0  0  0
    8.5370   -2.3170    0.2270 H   0  0  0  0  0  0  0  0  0  0  0  0
    7.4110    0.0300   -1.7400 H   0  0  0  0  0  0  0  0  0  0  0  0
  1 39  1  0
  1 40  1  0
  1 41  1  0
  1  2  1  0
  2 42  1  0
  2  3  2  0
  3  8  1  0
  3  4  1  0
  4 43  1  6
  4 25  1  0
  4  5  1  0
  5  6  2  0
  5 21  1  0
  6  7  1  0
  6 44  1  0
  7  8  1  0
  8 45  1  6
  8  9  1  0
  9 10  1  0
 10 11  1  0
 10 46  1  1
 10 15  1  0
 11 47  1  6
 11 12  1  0
 11 20  1  0
 12 19  1  0
 12 48  1  1
 12 13  1  0
 13 49  1  6
 13 18  1  0
 13 14  1  0
 14 15  1  0
 14 50  1  1
 14 16  1  0
 16 51  1  0
 16 52  1  0
 16 17  1  0
 17 53  1  0
 18 54  1  0
 19 55  1  0
 20 56  1  0
 21 23  1  0
 21 22  2  0
 23 24  1  0
 24 57  1  0
 24 59  1  0
 24 58  1  0
 25 60  1  0
 25 26  1  0
 25 61  1  0
 26 27  2  0
 26 28  1  0
 28 29  1  0
 29 30  1  0
 29 63  1  0
 29 62  1  0
 30 64  1  0
 30 31  1  0
 30 65  1  0
 31 32  2  0
 31 36  1  0
 32 66  1  0
 32 33  1  0
 33 38  1  0
 33 34  2  0
 34 37  1  0
 34 35  1  0
 35 36  2  0
 35 67  1  0
 36 68  1  0
 37 69  1  0
 38 70  1  0
M  END
>  <id>  (779) 
891

>  <scaffolds>  (779) 
['c1ccccc1', 'C1CCOCC1']

>  <name>  (779) 
Oleuropein

>  <formula>  (779) 
C25H32O13

>  <SMILES>  (779) 
C/C=C/1\[C@@H](C(=CO[C@H]1O[C@H]2[C@@H]([C@H]([C@@H]([C@H](O2)CO)O)O)O)C(=O)OC)CC(=O)OCCC3=CC(=C(C=C3)O)O

>  <ChEMBL_id>  (779) 
CHEMBL1911053

>  <ZINC_id>  (779) 
ZINC4098348

>  <PubChem_id>  (779) 
32619-42-4

>  <DrugBank_id>  (779) 
nan

>  <CAS_no>  (779) 
32619-42-4

>  <references>  (779) 
[{'journal': {'name': 'Phytochemistry', 'id': 10}, 'title': 'Phenolic glucosides from Olea europaea subs. africana', 'year': 1984, 'start_page': None, 'volume': None, 'issue': None, 'doi': '10.1016/0031-9422(84)83025-3', 'isbn': '', 'despositor': {'code': 'BND', 'first_name': "Bakary N'tji", 'last_name': 'Diallo', 'id': 26}, 'refauthors_set': [{'author': {'first_name': 'Tsukamoto', 'initials': 'TH', 'last_name': 'Hiroki', 'id': 995}, 'first_author': True, 'id': 1577}], 'id': 475}]

>  <classifications>  (779) 
[{'classification': 'Iridoid', 'id': 788}, {'classification': 'Iridoids', 'id': 907}, {'classification': 'Phenol lipids (Classyfire)', 'id': 951}]

>  <molecular_mass>  (779) 
540.5

$$$$
SANC00892_minRM1.pdb
     RDKit          3D

 40 42  0  0  1  0  0  0  0  0999 V2000
    4.3100    1.1540    0.9660 C   0  0  0  0  0  0  0  0  0  0  0  0
    5.4390    0.7530    0.3630 C   0  0  0  0  0  0  0  0  0  0  0  0
    5.4070   -0.2950   -0.6490 C   0  0  0  0  0  0  0  0  0  0  0  0
    6.3430   -0.7530   -1.2730 O   0  0  0  0  0  0  0  0  0  0  0  0
    4.2010   -0.8820   -0.9920 O   0  0  0  0  0  0  0  0  0  0  0  0
    3.0720   -0.4840   -0.3520 C   0  0  0  0  0  0  0  0  0  0  0  0
    1.9080   -1.1630   -0.7280 C   0  0  0  0  0  0  0  0  0  0  0  0
    0.7220   -0.8320   -0.0820 C   0  0  0  0  0  0  0  0  0  0  0  0
    0.6910    0.1860    0.8960 C   0  0  0  0  0  0  0  0  0  0  0  0
    1.8540    0.8700    1.2260 C   0  0  0  0  0  0  0  0  0  0  0  0
    3.0630    0.5240    0.6140 C   0  0  0  0  0  0  0  0  0  0  0  0
   -0.3700    0.4690    1.7090 O   0  0  0  0  0  0  0  0  0  0  0  0
   -1.6390    0.6800    1.1750 C   0  0  1  0  0  0  0  0  0  0  0  0
   -1.7170    1.3800   -0.2060 C   0  0  1  0  0  0  0  0  0  0  0  0
   -3.2120    1.4300   -0.6210 C   0  0  2  0  0  0  0  0  0  0  0  0
   -3.7990   -0.0040   -0.5820 C   0  0  1  0  0  0  0  0  0  0  0  0
   -3.5580   -0.6090    0.8180 C   0  0  2  0  0  0  0  0  0  0  0  0
   -2.1820   -0.6160    1.0930 O   0  0  0  0  0  0  0  0  0  0  0  0
   -3.9860   -2.0950    0.8680 C   0  0  0  0  0  0  0  0  0  0  0  0
   -3.2730   -2.8640   -0.0420 O   0  0  0  0  0  0  0  0  0  0  0  0
   -5.1490    0.0190   -0.9120 O   0  0  0  0  0  0  0  0  0  0  0  0
   -3.2040    1.9390   -1.9190 O   0  0  0  0  0  0  0  0  0  0  0  0
   -1.2380    2.6690    0.0200 O   0  0  0  0  0  0  0  0  0  0  0  0
   -0.4470   -1.4470   -0.3560 O   0  0  0  0  0  0  0  0  0  0  0  0
    4.3080    1.9410    1.7270 H   0  0  0  0  0  0  0  0  0  0  0  0
    6.4230    1.1730    0.5870 H   0  0  0  0  0  0  0  0  0  0  0  0
    1.9540   -1.9400   -1.4970 H   0  0  0  0  0  0  0  0  0  0  0  0
    1.8290    1.6640    1.9800 H   0  0  0  0  0  0  0  0  0  0  0  0
   -2.1210    1.2990    1.9860 H   0  0  0  0  0  0  0  0  0  0  0  0
   -1.1210    0.8420   -0.9890 H   0  0  0  0  0  0  0  0  0  0  0  0
   -3.7840    2.1120    0.0670 H   0  0  0  0  0  0  0  0  0  0  0  0
   -3.3420   -0.6450   -1.3820 H   0  0  0  0  0  0  0  0  0  0  0  0
   -4.1300   -0.0370    1.6000 H   0  0  0  0  0  0  0  0  0  0  0  0
   -5.0500   -2.1990    0.5610 H   0  0  0  0  0  0  0  0  0  0  0  0
   -3.9090   -2.4780    1.9130 H   0  0  0  0  0  0  0  0  0  0  0  0
   -2.3700   -2.9480    0.2830 H   0  0  0  0  0  0  0  0  0  0  0  0
   -5.6360    0.4640   -0.2090 H   0  0  0  0  0  0  0  0  0  0  0  0
   -4.0910    1.8470   -2.2830 H   0  0  0  0  0  0  0  0  0  0  0  0
   -1.2400    3.1310   -0.8250 H   0  0  0  0  0  0  0  0  0  0  0  0
   -0.3090   -2.0780   -1.0750 H   0  0  0  0  0  0  0  0  0  0  0  0
  1  2  2  0
  1 11  1  0
  1 25  1  0
  2  3  1  0
  2 26  1  0
  3  4  2  0
  3  5  1  0
  5  6  1  0
  6  7  2  0
  6 11  1  0
  7 27  1  0
  7  8  1  0
  8 24  1  0
  8  9  2  0
  9 10  1  0
  9 12  1  0
 10 11  2  0
 10 28  1  0
 12 13  1  0
 13 14  1  0
 13 18  1  0
 13 29  1  1
 14 30  1  6
 14 15  1  0
 14 23  1  0
 15 22  1  0
 15 16  1  0
 15 31  1  1
 16 32  1  6
 16 21  1  0
 16 17  1  0
 17 19  1  0
 17 18  1  0
 17 33  1  1
 19 20  1  0
 19 34  1  0
 19 35  1  0
 20 36  1  0
 21 37  1  0
 22 38  1  0
 23 39  1  0
 24 40  1  0
M  END
>  <id>  (780) 
892

>  <scaffolds>  (780) 
['c1ccccc1', 'O=c1ccc2ccccc2o1', 'C1CCOCC1', 'c1ccc(OC2CCCCO2)cc1', 'O=c1ccc2cc(OC3CCCCO3)ccc2o1']

>  <name>  (780) 
Esculin

>  <formula>  (780) 
C15H16O9

>  <SMILES>  (780) 
C1=CC(=O)OC2=CC(=C(C=C21)O[C@H]3[C@@H]([C@H]([C@@H]([C@H](O3)CO)O)O)O)O

>  <ChEMBL_id>  (780) 
CHEMBL482581

>  <ZINC_id>  (780) 
ZINC3860441

>  <PubChem_id>  (780) 
531-75-9

>  <DrugBank_id>  (780) 
DB13155

>  <CAS_no>  (780) 
531-75-9

>  <references>  (780) 
[{'journal': {'name': 'Phytochemistry', 'id': 10}, 'title': 'Phenolic glucosides from Olea europaea subs. africana', 'year': 1984, 'start_page': None, 'volume': None, 'issue': None, 'doi': '10.1016/0031-9422(84)83025-3', 'isbn': '', 'despositor': {'code': 'BND', 'first_name': "Bakary N'tji", 'last_name': 'Diallo', 'id': 26}, 'refauthors_set': [{'author': {'first_name': 'Tsukamoto', 'initials': 'TH', 'last_name': 'Hiroki', 'id': 995}, 'first_author': True, 'id': 1577}], 'id': 475}]

>  <classifications>  (780) 
[{'classification': 'Glucosides', 'id': 884}, {'classification': 'Coumarins and derivatives (Classyfire)', 'id': 965}]

>  <molecular_mass>  (780) 
340.28

$$$$
SANC00893_minRM1.pdb
     RDKit          3D

 70 73  0  0  1  0  0  0  0  0999 V2000
   -1.0680   -3.8860   -3.0820 C   0  0  0  0  0  0  0  0  0  0  0  0
   -1.2950   -2.7220   -2.1880 C   0  0  0  0  0  0  0  0  0  0  0  0
   -2.1600   -1.7220   -2.6140 C   0  0  0  0  0  0  0  0  0  0  0  0
   -2.4080   -0.6140   -1.8000 C   0  0  0  0  0  0  0  0  0  0  0  0
   -1.8190   -0.4830   -0.5360 C   0  0  0  0  0  0  0  0  0  0  0  0
   -0.9310   -1.4940   -0.1550 C   0  0  0  0  0  0  0  0  0  0  0  0
   -0.6550   -2.6160   -0.9450 C   0  0  0  0  0  0  0  0  0  0  0  0
    0.2790   -3.6250   -0.4390 C   0  0  0  0  0  0  0  0  0  0  0  0
    0.6360   -4.6120   -1.0640 O   0  0  0  0  0  0  0  0  0  0  0  0
    0.7800   -3.3820    0.9150 C   0  0  0  0  0  0  0  0  0  0  0  0
    0.4570   -2.2630    1.5740 C   0  0  0  0  0  0  0  0  0  0  0  0
   -0.3440   -1.2870    1.0620 O   0  0  0  0  0  0  0  0  0  0  0  0
    0.8890   -1.9030    2.9550 C   0  0  0  0  0  0  0  0  0  0  0  0
    2.3340   -2.3030    3.1560 C   0  0  0  0  0  0  0  0  0  0  0  0
    3.2220   -1.8060    2.4920 O   0  0  0  0  0  0  0  0  0  0  0  0
    2.5980   -3.3240    4.2190 C   0  0  0  0  0  0  0  0  0  0  0  0
   -2.1500    0.6680    0.3690 C   0  0  1  0  0  0  0  0  0  0  0  0
   -1.4590    1.9620   -0.1230 C   0  0  1  0  0  0  0  0  0  0  0  0
   -1.9120    3.1460    0.7570 C   0  0  2  0  0  0  0  0  0  0  0  0
   -3.4590    3.2230    0.6630 C   0  0  1  0  0  0  0  0  0  0  0  0
   -4.0500    1.8560    1.0910 C   0  0  2  0  0  0  0  0  0  0  0  0
   -3.5460    0.8440    0.2590 O   0  0  0  0  0  0  0  0  0  0  0  0
   -5.5770    1.8410    0.8480 C   0  0  0  0  0  0  0  0  0  0  0  0
   -6.1420    0.6170    1.1910 O   0  0  0  0  0  0  0  0  0  0  0  0
   -3.9510    4.1450    1.5860 O   0  0  0  0  0  0  0  0  0  0  0  0
   -1.4600    4.3550    0.2260 O   0  0  0  0  0  0  0  0  0  0  0  0
   -0.0640    1.8530   -0.2070 O   0  0  0  0  0  0  0  0  0  0  0  0
    0.7050    1.5480    0.8720 C   0  0  0  0  0  0  0  0  0  0  0  0
    0.2210    1.4860    1.9900 O   0  0  0  0  0  0  0  0  0  0  0  0
    2.1220    1.3610    0.5410 C   0  0  0  0  0  0  0  0  0  0  0  0
    2.5920    1.2980   -0.7090 C   0  0  0  0  0  0  0  0  0  0  0  0
    4.0080    1.0940   -0.9850 C   0  0  0  0  0  0  0  0  0  0  0  0
    4.7590    0.1960   -0.2300 C   0  0  0  0  0  0  0  0  0  0  0  0
    6.1070    0.0090   -0.5040 C   0  0  0  0  0  0  0  0  0  0  0  0
    6.6920    0.7350   -1.5420 C   0  0  0  0  0  0  0  0  0  0  0  0
    5.9490    1.6370   -2.3150 C   0  0  0  0  0  0  0  0  0  0  0  0
    4.6050    1.8020   -2.0310 C   0  0  0  0  0  0  0  0  0  0  0  0
    7.9990    0.6270   -1.8800 O   0  0  0  0  0  0  0  0  0  0  0  0
   -3.1800    0.4330   -2.1900 O   0  0  0  0  0  0  0  0  0  0  0  0
   -4.2000    0.1660   -3.1230 C   0  0  0  0  0  0  0  0  0  0  0  0
   -0.0130   -3.9630   -3.3890 H   0  0  0  0  0  0  0  0  0  0  0  0
   -1.6570   -3.8510   -4.0110 H   0  0  0  0  0  0  0  0  0  0  0  0
   -1.3300   -4.8360   -2.5890 H   0  0  0  0  0  0  0  0  0  0  0  0
   -2.6330   -1.8100   -3.5950 H   0  0  0  0  0  0  0  0  0  0  0  0
    1.4290   -4.1430    1.3560 H   0  0  0  0  0  0  0  0  0  0  0  0
    0.2100   -2.3940    3.6850 H   0  0  0  0  0  0  0  0  0  0  0  0
    0.7790   -0.8120    3.1650 H   0  0  0  0  0  0  0  0  0  0  0  0
    2.0760   -4.2680    4.0030 H   0  0  0  0  0  0  0  0  0  0  0  0
    2.2480   -2.9750    5.2020 H   0  0  0  0  0  0  0  0  0  0  0  0
    3.6670   -3.5630    4.3240 H   0  0  0  0  0  0  0  0  0  0  0  0
   -1.8870    0.4470    1.4380 H   0  0  0  0  0  0  0  0  0  0  0  0
   -1.7010    2.1670   -1.2010 H   0  0  0  0  0  0  0  0  0  0  0  0
   -1.6020    3.0290    1.8300 H   0  0  0  0  0  0  0  0  0  0  0  0
   -3.7730    3.4750   -0.3870 H   0  0  0  0  0  0  0  0  0  0  0  0
   -3.8220    1.6570    2.1740 H   0  0  0  0  0  0  0  0  0  0  0  0
   -5.8240    1.9590   -0.2300 H   0  0  0  0  0  0  0  0  0  0  0  0
   -6.0520    2.6940    1.3870 H   0  0  0  0  0  0  0  0  0  0  0  0
   -5.9580    0.4520    2.1220 H   0  0  0  0  0  0  0  0  0  0  0  0
   -3.6160    5.0130    1.3390 H   0  0  0  0  0  0  0  0  0  0  0  0
   -0.4980    4.3510    0.2660 H   0  0  0  0  0  0  0  0  0  0  0  0
    2.7700    1.2690    1.4210 H   0  0  0  0  0  0  0  0  0  0  0  0
    1.9460    1.4010   -1.5910 H   0  0  0  0  0  0  0  0  0  0  0  0
    4.2910   -0.3830    0.5750 H   0  0  0  0  0  0  0  0  0  0  0  0
    6.6880   -0.7020    0.0900 H   0  0  0  0  0  0  0  0  0  0  0  0
    6.4280    2.1930   -3.1250 H   0  0  0  0  0  0  0  0  0  0  0  0
    4.0100    2.5000   -2.6290 H   0  0  0  0  0  0  0  0  0  0  0  0
    8.4180   -0.0220   -1.3030 H   0  0  0  0  0  0  0  0  0  0  0  0
   -4.8520    1.0500   -3.0510 H   0  0  0  0  0  0  0  0  0  0  0  0
   -3.8150    0.0940   -4.1540 H   0  0  0  0  0  0  0  0  0  0  0  0
   -4.7960   -0.7320   -2.8920 H   0  0  0  0  0  0  0  0  0  0  0  0
  1 42  1  0
  1 41  1  0
  1 43  1  0
  1  2  1  0
  2  3  2  0
  2  7  1  0
  3 44  1  0
  3  4  1  0
  4 39  1  0
  4  5  2  0
  5  6  1  0
  5 17  1  0
  6  7  2  0
  6 12  1  0
  7  8  1  0
  8  9  2  0
  8 10  1  0
 10 45  1  0
 10 11  2  0
 11 12  1  0
 11 13  1  0
 13 14  1  0
 13 47  1  0
 13 46  1  0
 14 15  2  0
 14 16  1  0
 16 48  1  0
 16 50  1  0
 16 49  1  0
 17 18  1  0
 17 22  1  0
 17 51  1  1
 18 52  1  6
 18 27  1  0
 18 19  1  0
 19 26  1  0
 19 20  1  0
 19 53  1  1
 20 54  1  6
 20 21  1  0
 20 25  1  0
 21 22  1  0
 21 23  1  0
 21 55  1  1
 23 56  1  0
 23 24  1  0
 23 57  1  0
 24 58  1  0
 25 59  1  0
 26 60  1  0
 27 28  1  0
 28 30  1  0
 28 29  2  0
 30 31  2  0
 30 61  1  0
 31 62  1  0
 31 32  1  0
 32 37  2  0
 32 33  1  0
 33 34  2  0
 33 63  1  0
 34 35  1  0
 34 64  1  0
 35 36  2  0
 35 38  1  0
 36 65  1  0
 36 37  1  0
 37 66  1  0
 38 67  1  0
 39 40  1  0
 40 69  1  0
 40 68  1  0
 40 70  1  0
M  END
>  <id>  (781) 
893

>  <scaffolds>  (781) 
['c1ccccc1', 'C1CCOCC1', 'O=C(C=Cc1ccccc1)OC1CCCOC1c1cccc2c(=O)ccoc12', 'O=c1ccoc2ccccc12', 'O=C(C=Cc1ccccc1)OCCc1ccccc1', 'O=c1ccoc2c(C3CCCCO3)cccc12']

>  <name>  (781) 
7-O-Methylaloeresin A

>  <formula>  (781) 
C29H30O11

>  <SMILES>  (781) 
CC1=CC(=C(C2=C1C(=O)C=C(O2)CC(=O)C)[C@H]3[C@@H]([C@H]([C@@H]([C@H](O3)CO)O)O)OC(=O)/C=C/C4=CC=C(C=C4)O)OC

>  <ChEMBL_id>  (781) 


>  <ZINC_id>  (781) 
ZINC85530008

>  <PubChem_id>  (781) 
329361-25-3

>  <DrugBank_id>  (781) 


>  <CAS_no>  (781) 
329361-25-3

>  <references>  (781) 
[{'journal': {'name': 'Phytochemistry', 'id': 10}, 'title': 'Chromones and anthrones from Aloe marlothii and Aloe rupestris', 'year': 2000, 'start_page': None, 'volume': None, 'issue': None, 'doi': '10.1016/S0031-9422(00)00328-9', 'isbn': '', 'despositor': {'code': 'BND', 'first_name': "Bakary N'tji", 'last_name': 'Diallo', 'id': 26}, 'refauthors_set': [{'author': {'first_name': 'Bisrat', 'initials': 'BD', 'last_name': 'Daniel', 'id': 996}, 'first_author': True, 'id': 1578}], 'id': 476}]

>  <classifications>  (781) 
[{'classification': 'Organooxygen compounds (Classyfire)', 'id': 954}]

>  <molecular_mass>  (781) 
554.5

$$$$
SANC00894_minRM1.pdb
     RDKit          3D

 31 35  0  0  0  0  0  0  0  0999 V2000
   -4.1890    0.7880   -0.0000 C   0  0  0  0  0  0  0  0  0  0  0  0
   -3.1400    1.9440    0.0000 C   0  0  0  0  0  0  0  0  0  0  0  0
   -1.8250    1.2590   -0.0030 N   0  0  0  0  0  0  0  0  0  0  0  0
   -2.0080   -0.1190   -0.0020 C   0  0  0  0  0  0  0  0  0  0  0  0
   -3.3730   -0.4630   -0.0020 C   0  0  0  0  0  0  0  0  0  0  0  0
   -3.7200   -1.7870   -0.0020 C   0  0  0  0  0  0  0  0  0  0  0  0
   -2.6910   -2.7500    0.0020 C   0  0  0  0  0  0  0  0  0  0  0  0
   -1.3560   -2.3950    0.0030 C   0  0  0  0  0  0  0  0  0  0  0  0
   -0.9750   -1.0420   -0.0010 C   0  0  0  0  0  0  0  0  0  0  0  0
    0.3730   -0.5200   -0.0020 C   0  0  0  0  0  0  0  0  0  0  0  0
    1.4640   -1.4170   -0.0040 C   0  0  0  0  0  0  0  0  0  0  0  0
    2.7080   -0.8520   -0.0020 C   0  0  0  0  0  0  0  0  0  0  0  0
    2.9070    0.5460   -0.0000 C   0  0  0  0  0  0  0  0  0  0  0  0
    1.8680    1.4340   -0.0000 C   0  0  0  0  0  0  0  0  0  0  0  0
    0.5740    0.8690   -0.0010 C   0  0  0  0  0  0  0  0  0  0  0  0
   -0.5470    1.8300   -0.0000 C   0  0  0  0  0  0  0  0  0  0  0  0
   -0.4370    3.0510    0.0030 O   0  0  0  0  0  0  0  0  0  0  0  0
    4.2520    0.8130    0.0010 O   0  0  0  0  0  0  0  0  0  0  0  0
    4.9110   -0.4510    0.0010 C   0  0  0  0  0  0  0  0  0  0  0  0
    3.9210   -1.4800   -0.0010 O   0  0  0  0  0  0  0  0  0  0  0  0
   -4.8580    0.8430   -0.8810 H   0  0  0  0  0  0  0  0  0  0  0  0
   -4.8560    0.8400    0.8820 H   0  0  0  0  0  0  0  0  0  0  0  0
   -3.2370    2.6090   -0.8850 H   0  0  0  0  0  0  0  0  0  0  0  0
   -3.2350    2.6050    0.8890 H   0  0  0  0  0  0  0  0  0  0  0  0
   -4.7680   -2.0990   -0.0040 H   0  0  0  0  0  0  0  0  0  0  0  0
   -2.9670   -3.8090    0.0060 H   0  0  0  0  0  0  0  0  0  0  0  0
   -0.5860   -3.1730    0.0080 H   0  0  0  0  0  0  0  0  0  0  0  0
    1.3240   -2.5000   -0.0070 H   0  0  0  0  0  0  0  0  0  0  0  0
    2.0290    2.5170    0.0000 H   0  0  0  0  0  0  0  0  0  0  0  0
    5.5410   -0.5430   -0.9110 H   0  0  0  0  0  0  0  0  0  0  0  0
    5.5390   -0.5450    0.9140 H   0  0  0  0  0  0  0  0  0  0  0  0
  1 21  1  0
  1  5  1  0
  1  2  1  0
  1 22  1  0
  2 23  1  0
  2  3  1  0
  2 24  1  0
  3  4  1  0
  3 16  1  0
  4  5  2  0
  4  9  1  0
  5  6  1  0
  6 25  1  0
  6  7  2  0
  7  8  1  0
  7 26  1  0
  8  9  2  0
  8 27  1  0
  9 10  1  0
 10 11  2  0
 10 15  1  0
 11 28  1  0
 11 12  1  0
 12 20  1  0
 12 13  2  0
 13 14  1  0
 13 18  1  0
 14 15  2  0
 14 29  1  0
 15 16  1  0
 16 17  2  0
 18 19  1  0
 19 30  1  0
 19 20  1  0
 19 31  1  0
M  END
>  <id>  (782) 
894

>  <scaffolds>  (782) 
['c1ccccc1', 'c1ccc2c(c1)ncc1cc3c(cc12)OCO3', 'O=c1c2cc3c(cc2c2cccc4c2n1CC4)OCO3', 'c1ccc2c(c1)OCO2']

>  <name>  (782) 
Anhydrolycorinone

>  <formula>  (782) 
C16H11NO3

>  <SMILES>  (782) 
C1CN2C3=C1C=CC=C3C4=CC5=C(C=C4C2=O)OCO5

>  <ChEMBL_id>  (782) 
CHEMBL481446

>  <ZINC_id>  (782) 
ZINC900985

>  <PubChem_id>  (782) 
40360-71-2

>  <DrugBank_id>  (782) 


>  <CAS_no>  (782) 
40360-71-2

>  <references>  (782) 
[{'journal': {'name': 'Phytochemistry', 'id': 10}, 'title': 'Bioactive alkaloids from Brunsvigia radulosa', 'year': 2000, 'start_page': None, 'volume': None, 'issue': None, 'doi': '10.1016/S0031-9422(99)00575-0', 'isbn': '', 'despositor': {'code': 'BND', 'first_name': "Bakary N'tji", 'last_name': 'Diallo', 'id': 26}, 'refauthors_set': [{'author': {'first_name': 'Campbell', 'initials': 'CW', 'last_name': 'William', 'id': 997}, 'first_author': True, 'id': 1579}], 'id': 478}]

>  <classifications>  (782) 
[{'classification': ' Amaryllidaceae Alkaloid', 'id': 908}, {'classification': 'Quinolines and derivatives (Classyfire)', 'id': 948}]

>  <molecular_mass>  (782) 
265.26

$$$$
SANC00895_minRM1.pdb
     RDKit          3D

 29 28  0  0  0  0  0  0  0  0999 V2000
   -3.6830   -2.1340    0.0510 C   0  0  0  0  0  0  0  0  0  0  0  0
   -3.4350   -0.7370   -0.4960 C   0  0  0  0  0  0  0  0  0  0  0  0
   -2.2370   -0.0900    0.1970 C   0  0  0  0  0  0  0  0  0  0  0  0
   -1.9550    1.2900   -0.3900 C   0  0  0  0  0  0  0  0  0  0  0  0
   -0.9400    2.0750    0.4350 C   0  0  0  0  0  0  0  0  0  0  0  0
    0.4110    1.3830    0.5850 C   0  0  0  0  0  0  0  0  0  0  0  0
    1.0580    1.0920   -0.7660 C   0  0  0  0  0  0  0  0  0  0  0  0
    2.5290    0.7140   -0.6010 C   0  0  0  0  0  0  0  0  0  0  0  0
    2.6480   -0.5150    0.2500 C   0  0  0  0  0  0  0  0  0  0  0  0
    3.0980   -0.6070    1.3800 O   0  0  0  0  0  0  0  0  0  0  0  0
    2.1880   -1.6240   -0.3680 O   0  0  0  0  0  0  0  0  0  0  0  0
   -3.8860   -2.1280    1.1320 H   0  0  0  0  0  0  0  0  0  0  0  0
   -2.8260   -2.8030   -0.1070 H   0  0  0  0  0  0  0  0  0  0  0  0
   -4.5490   -2.6130   -0.4290 H   0  0  0  0  0  0  0  0  0  0  0  0
   -3.2730   -0.7790   -1.5940 H   0  0  0  0  0  0  0  0  0  0  0  0
   -4.3440   -0.1120   -0.3700 H   0  0  0  0  0  0  0  0  0  0  0  0
   -1.3470   -0.7470    0.0980 H   0  0  0  0  0  0  0  0  0  0  0  0
   -2.4180   -0.0190    1.2900 H   0  0  0  0  0  0  0  0  0  0  0  0
   -2.8970    1.8780   -0.4520 H   0  0  0  0  0  0  0  0  0  0  0  0
   -1.6260    1.2030   -1.4470 H   0  0  0  0  0  0  0  0  0  0  0  0
   -1.3580    2.2830    1.4450 H   0  0  0  0  0  0  0  0  0  0  0  0
   -0.7990    3.0820   -0.0150 H   0  0  0  0  0  0  0  0  0  0  0  0
    1.0800    2.0240    1.2000 H   0  0  0  0  0  0  0  0  0  0  0  0
    0.3140    0.4520    1.1810 H   0  0  0  0  0  0  0  0  0  0  0  0
    0.5180    0.2810   -1.3000 H   0  0  0  0  0  0  0  0  0  0  0  0
    0.9810    1.9740   -1.4360 H   0  0  0  0  0  0  0  0  0  0  0  0
    3.0040    0.5350   -1.5900 H   0  0  0  0  0  0  0  0  0  0  0  0
    3.1140    1.5400   -0.1440 H   0  0  0  0  0  0  0  0  0  0  0  0
    2.2630   -2.4020    0.2010 H   0  0  0  0  0  0  0  0  0  0  0  0
  1  2  1  0
  1 14  1  0
  1 13  1  0
  1 12  1  0
  2 15  1  0
  2 16  1  0
  2  3  1  0
  3  4  1  0
  3 17  1  0
  3 18  1  0
  4 20  1  0
  4 19  1  0
  4  5  1  0
  5 22  1  0
  5  6  1  0
  5 21  1  0
  6  7  1  0
  6 24  1  0
  6 23  1  0
  7 26  1  0
  7 25  1  0
  7  8  1  0
  8 27  1  0
  8 28  1  0
  8  9  1  0
  9 11  1  0
  9 10  2  0
 11 29  1  0
M  END
>  <id>  (783) 
895

>  <scaffolds>  (783) 
[]

>  <name>  (783) 
Nonanoic acid

>  <formula>  (783) 
C9H18O2

>  <SMILES>  (783) 
CCCCCCCCC(=O)O

>  <ChEMBL_id>  (783) 
CHEMBL108436

>  <ZINC_id>  (783) 
ZINC1529234

>  <PubChem_id>  (783) 


>  <DrugBank_id>  (783) 


>  <CAS_no>  (783) 
112-05-0

>  <references>  (783) 
[{'journal': {'name': 'South African Journal of Botany', 'id': 1}, 'title': 'Antibacterial activity and isolation of active compounds from fruit of the traditional African medicinal tree Kigelia africana', 'year': 2002, 'start_page': None, 'volume': None, 'issue': None, 'doi': '10.1016/S0254-6299(15)30424-5', 'isbn': '', 'despositor': {'code': 'BND', 'first_name': "Bakary N'tji", 'last_name': 'Diallo', 'id': 26}, 'refauthors_set': [{'author': {'first_name': 'Grace', 'initials': 'GO', 'last_name': 'O.', 'id': 998}, 'first_author': True, 'id': 1580}], 'id': 479}]

>  <classifications>  (783) 
[{'classification': 'Fatty Acyls (Classyfire)', 'id': 957}]

>  <molecular_mass>  (783) 
158.24

$$$$
SANC00896_minRM1.pdb
     RDKit          3D

 50 49  0  0  0  0  0  0  0  0999 V2000
   -8.1540    1.8640   -0.3700 C   0  0  0  0  0  0  0  0  0  0  0  0
   -6.6720    2.1920   -0.4370 C   0  0  0  0  0  0  0  0  0  0  0  0
   -5.8170    1.1770    0.3180 C   0  0  0  0  0  0  0  0  0  0  0  0
   -5.8260   -0.1910   -0.3560 C   0  0  0  0  0  0  0  0  0  0  0  0
   -4.9160   -1.1870    0.3620 C   0  0  0  0  0  0  0  0  0  0  0  0
   -3.4360   -0.8820    0.1410 C   0  0  0  0  0  0  0  0  0  0  0  0
   -2.5660   -1.9830    0.7420 C   0  0  0  0  0  0  0  0  0  0  0  0
   -1.0870   -1.6030    0.7570 C   0  0  0  0  0  0  0  0  0  0  0  0
   -0.5430   -1.3590   -0.6460 C   0  0  0  0  0  0  0  0  0  0  0  0
    0.9850   -1.4060   -0.6840 C   0  0  0  0  0  0  0  0  0  0  0  0
    1.6070   -0.3550    0.2300 C   0  0  0  0  0  0  0  0  0  0  0  0
    3.0830   -0.1120   -0.0840 C   0  0  0  0  0  0  0  0  0  0  0  0
    3.9500   -1.3030    0.3070 C   0  0  0  0  0  0  0  0  0  0  0  0
    5.3910   -1.1500   -0.1720 C   0  0  0  0  0  0  0  0  0  0  0  0
    6.0840    0.0670    0.4360 C   0  0  0  0  0  0  0  0  0  0  0  0
    5.7680    1.3200   -0.3390 C   0  0  0  0  0  0  0  0  0  0  0  0
    5.7050    1.4090   -1.5510 O   0  0  0  0  0  0  0  0  0  0  0  0
    5.5710    2.4890    0.3240 O   0  0  0  0  0  0  0  0  0  0  0  0
   -8.7690    2.6780   -0.7810 H   0  0  0  0  0  0  0  0  0  0  0  0
   -8.4170    0.9630   -0.9420 H   0  0  0  0  0  0  0  0  0  0  0  0
   -8.5000    1.6990    0.6610 H   0  0  0  0  0  0  0  0  0  0  0  0
   -6.4950    3.2070   -0.0200 H   0  0  0  0  0  0  0  0  0  0  0  0
   -6.3430    2.2690   -1.4950 H   0  0  0  0  0  0  0  0  0  0  0  0
   -6.1600    1.0920    1.3710 H   0  0  0  0  0  0  0  0  0  0  0  0
   -4.7780    1.5640    0.3960 H   0  0  0  0  0  0  0  0  0  0  0  0
   -6.8590   -0.5980   -0.3810 H   0  0  0  0  0  0  0  0  0  0  0  0
   -5.5380   -0.1020   -1.4240 H   0  0  0  0  0  0  0  0  0  0  0  0
   -5.1510   -1.2100    1.4470 H   0  0  0  0  0  0  0  0  0  0  0  0
   -5.1440   -2.2160    0.0080 H   0  0  0  0  0  0  0  0  0  0  0  0
   -3.1680    0.1010    0.5810 H   0  0  0  0  0  0  0  0  0  0  0  0
   -3.2290   -0.7730   -0.9440 H   0  0  0  0  0  0  0  0  0  0  0  0
   -2.8960   -2.2100    1.7790 H   0  0  0  0  0  0  0  0  0  0  0  0
   -2.7160   -2.9360    0.1920 H   0  0  0  0  0  0  0  0  0  0  0  0
   -0.9320   -0.7070    1.3950 H   0  0  0  0  0  0  0  0  0  0  0  0
   -0.5080   -2.4060    1.2620 H   0  0  0  0  0  0  0  0  0  0  0  0
   -0.9020   -0.3840   -1.0390 H   0  0  0  0  0  0  0  0  0  0  0  0
   -0.9500   -2.1110   -1.3560 H   0  0  0  0  0  0  0  0  0  0  0  0
    1.3390   -2.4230   -0.4130 H   0  0  0  0  0  0  0  0  0  0  0  0
    1.3290   -1.2630   -1.7310 H   0  0  0  0  0  0  0  0  0  0  0  0
    1.0530    0.6050    0.1390 H   0  0  0  0  0  0  0  0  0  0  0  0
    1.4890   -0.6440    1.2960 H   0  0  0  0  0  0  0  0  0  0  0  0
    3.4170    0.7990    0.4590 H   0  0  0  0  0  0  0  0  0  0  0  0
    3.2190    0.1380   -1.1580 H   0  0  0  0  0  0  0  0  0  0  0  0
    3.5360   -2.2440   -0.1150 H   0  0  0  0  0  0  0  0  0  0  0  0
    3.9180   -1.4590    1.4060 H   0  0  0  0  0  0  0  0  0  0  0  0
    5.9650   -2.0640    0.0950 H   0  0  0  0  0  0  0  0  0  0  0  0
    5.4360   -1.1170   -1.2820 H   0  0  0  0  0  0  0  0  0  0  0  0
    7.1890   -0.0630    0.4140 H   0  0  0  0  0  0  0  0  0  0  0  0
    5.8330    0.1580    1.5140 H   0  0  0  0  0  0  0  0  0  0  0  0
    5.6190    2.3540    1.2750 H   0  0  0  0  0  0  0  0  0  0  0  0
  1 20  1  0
  1 19  1  0
  1  2  1  0
  1 21  1  0
  2 23  1  0
  2 22  1  0
  2  3  1  0
  3  4  1  0
  3 25  1  0
  3 24  1  0
  4 27  1  0
  4 26  1  0
  4  5  1  0
  5 29  1  0
  5  6  1  0
  5 28  1  0
  6 31  1  0
  6 30  1  0
  6  7  1  0
  7 33  1  0
  7  8  1  0
  7 32  1  0
  8  9  1  0
  8 35  1  0
  8 34  1  0
  9 37  1  0
  9 36  1  0
  9 10  1  0
 10 39  1  0
 10 38  1  0
 10 11  1  0
 11 12  1  0
 11 40  1  0
 11 41  1  0
 12 43  1  0
 12 13  1  0
 12 42  1  0
 13 14  1  0
 13 44  1  0
 13 45  1  0
 14 47  1  0
 14 46  1  0
 14 15  1  0
 15 16  1  0
 15 48  1  0
 15 49  1  0
 16 17  2  0
 16 18  1  0
 18 50  1  0
M  END
>  <id>  (784) 
896

>  <scaffolds>  (784) 
[]

>  <name>  (784) 
palmitic acid

>  <formula>  (784) 
C16H32O2

>  <SMILES>  (784) 
CCCCCCCCCCCCCCCC(=O)O

>  <ChEMBL_id>  (784) 
SCHEMBL6177

>  <ZINC_id>  (784) 
ZINC6072466

>  <PubChem_id>  (784) 


>  <DrugBank_id>  (784) 


>  <CAS_no>  (784) 
57-10-3

>  <references>  (784) 
[{'journal': {'name': 'South African Journal of Botany', 'id': 1}, 'title': 'Antibacterial activity and isolation of active compounds from fruit of the traditional African medicinal tree Kigelia africana', 'year': 2002, 'start_page': None, 'volume': None, 'issue': None, 'doi': '10.1016/S0254-6299(15)30424-5', 'isbn': '', 'despositor': {'code': 'BND', 'first_name': "Bakary N'tji", 'last_name': 'Diallo', 'id': 26}, 'refauthors_set': [{'author': {'first_name': 'Grace', 'initials': 'GO', 'last_name': 'O.', 'id': 998}, 'first_author': True, 'id': 1580}], 'id': 479}]

>  <classifications>  (784) 
[{'classification': 'Fatty Acyls (Classyfire)', 'id': 957}]

>  <molecular_mass>  (784) 
256.42

$$$$
SANC00897_minRM1.pdb
     RDKit          3D

 51 50  0  0  0  0  0  0  0  0999 V2000
   -6.3390   -3.2700    0.6300 C   0  0  0  0  0  0  0  0  0  0  0  0
   -7.0950   -2.2780   -0.2370 C   0  0  0  0  0  0  0  0  0  0  0  0
   -6.2030   -1.1310   -0.7080 C   0  0  0  0  0  0  0  0  0  0  0  0
   -5.6470   -0.3260    0.4620 C   0  0  0  0  0  0  0  0  0  0  0  0
   -5.1190    1.0370    0.0220 C   0  0  0  0  0  0  0  0  0  0  0  0
   -4.0170    0.9670   -1.0290 C   0  0  0  0  0  0  0  0  0  0  0  0
   -2.8070    0.1380   -0.6140 C   0  0  0  0  0  0  0  0  0  0  0  0
   -2.1400    0.6420    0.6640 C   0  0  0  0  0  0  0  0  0  0  0  0
   -1.7280    2.0660    0.5190 C   0  0  0  0  0  0  0  0  0  0  0  0
   -0.5360    2.4800    0.0980 C   0  0  0  0  0  0  0  0  0  0  0  0
    0.5920    1.5910   -0.3020 C   0  0  0  0  0  0  0  0  0  0  0  0
    1.5130    1.3740    0.8990 C   0  0  0  0  0  0  0  0  0  0  0  0
    2.7170    0.5000    0.5480 C   0  0  0  0  0  0  0  0  0  0  0  0
    3.8090    1.3020   -0.1540 C   0  0  0  0  0  0  0  0  0  0  0  0
    4.8870    0.4070   -0.7590 C   0  0  0  0  0  0  0  0  0  0  0  0
    5.6110   -0.4050    0.3100 C   0  0  0  0  0  0  0  0  0  0  0  0
    6.8010   -1.1050   -0.2770 C   0  0  0  0  0  0  0  0  0  0  0  0
    7.1920   -1.1140   -1.4320 O   0  0  0  0  0  0  0  0  0  0  0  0
    7.4890   -1.8060    0.6520 O   0  0  0  0  0  0  0  0  0  0  0  0
   -6.0740   -2.8560    1.6140 H   0  0  0  0  0  0  0  0  0  0  0  0
   -6.9350   -4.1730    0.8290 H   0  0  0  0  0  0  0  0  0  0  0  0
   -5.4030   -3.6060    0.1620 H   0  0  0  0  0  0  0  0  0  0  0  0
   -7.9790   -1.8860    0.3090 H   0  0  0  0  0  0  0  0  0  0  0  0
   -7.5260   -2.7990   -1.1190 H   0  0  0  0  0  0  0  0  0  0  0  0
   -6.7800   -0.4730   -1.3920 H   0  0  0  0  0  0  0  0  0  0  0  0
   -5.3770   -1.5300   -1.3350 H   0  0  0  0  0  0  0  0  0  0  0  0
   -6.4340   -0.1760    1.2330 H   0  0  0  0  0  0  0  0  0  0  0  0
   -4.8560   -0.8970    0.9920 H   0  0  0  0  0  0  0  0  0  0  0  0
   -5.9570    1.6540   -0.3710 H   0  0  0  0  0  0  0  0  0  0  0  0
   -4.7690    1.6060    0.9100 H   0  0  0  0  0  0  0  0  0  0  0  0
   -4.4260    0.5700   -1.9840 H   0  0  0  0  0  0  0  0  0  0  0  0
   -3.6950    1.9990   -1.2910 H   0  0  0  0  0  0  0  0  0  0  0  0
   -2.0660    0.1360   -1.4440 H   0  0  0  0  0  0  0  0  0  0  0  0
   -3.0830   -0.9310   -0.4990 H   0  0  0  0  0  0  0  0  0  0  0  0
   -2.8170    0.5270    1.5380 H   0  0  0  0  0  0  0  0  0  0  0  0
   -1.2780   -0.0100    0.9280 H   0  0  0  0  0  0  0  0  0  0  0  0
   -2.4960    2.8010    0.7870 H   0  0  0  0  0  0  0  0  0  0  0  0
   -0.3180    3.5530    0.0400 H   0  0  0  0  0  0  0  0  0  0  0  0
    0.2370    0.6210   -0.7110 H   0  0  0  0  0  0  0  0  0  0  0  0
    1.1430    2.0470   -1.1520 H   0  0  0  0  0  0  0  0  0  0  0  0
    1.8460    2.3490    1.3120 H   0  0  0  0  0  0  0  0  0  0  0  0
    0.9370    0.9080    1.7260 H   0  0  0  0  0  0  0  0  0  0  0  0
    3.1190    0.0450    1.4790 H   0  0  0  0  0  0  0  0  0  0  0  0
    2.4030   -0.3660   -0.0710 H   0  0  0  0  0  0  0  0  0  0  0  0
    3.3750    1.9320   -0.9590 H   0  0  0  0  0  0  0  0  0  0  0  0
    4.2610    2.0330    0.5500 H   0  0  0  0  0  0  0  0  0  0  0  0
    4.4550   -0.2700   -1.5260 H   0  0  0  0  0  0  0  0  0  0  0  0
    5.6160    1.0310   -1.3220 H   0  0  0  0  0  0  0  0  0  0  0  0
    5.9390    0.2390    1.1550 H   0  0  0  0  0  0  0  0  0  0  0  0
    4.9430   -1.1650    0.7700 H   0  0  0  0  0  0  0  0  0  0  0  0
    8.2530   -2.2540    0.2640 H   0  0  0  0  0  0  0  0  0  0  0  0
  1  2  1  0
  1 22  1  0
  1 21  1  0
  1 20  1  0
  2 24  1  0
  2  3  1  0
  2 23  1  0
  3 25  1  0
  3 26  1  0
  3  4  1  0
  4  5  1  0
  4 28  1  0
  4 27  1  0
  5  6  1  0
  5 29  1  0
  5 30  1  0
  6 31  1  0
  6 32  1  0
  6  7  1  0
  7 33  1  0
  7 34  1  0
  7  8  1  0
  8  9  1  0
  8 36  1  0
  8 35  1  0
  9 10  2  0
  9 37  1  0
 10 11  1  0
 10 38  1  0
 11 40  1  0
 11 39  1  0
 11 12  1  0
 12 13  1  0
 12 41  1  0
 12 42  1  0
 13 14  1  0
 13 44  1  0
 13 43  1  0
 14 45  1  0
 14 15  1  0
 14 46  1  0
 15 47  1  0
 15 48  1  0
 15 16  1  0
 16 17  1  0
 16 50  1  0
 16 49  1  0
 17 18  2  0
 17 19  1  0
 19 51  1  0
M  END
>  <id>  (785) 
897

>  <scaffolds>  (785) 
[]

>  <name>  (785) 
8-Heptadecenoic acid

>  <formula>  (785) 
C17H32O2

>  <SMILES>  (785) 
CCCCCCCCC=CCCCCCCC(=O)O

>  <ChEMBL_id>  (785) 


>  <ZINC_id>  (785) 


>  <PubChem_id>  (785) 


>  <DrugBank_id>  (785) 


>  <CAS_no>  (785) 
7432-41-9

>  <references>  (785) 
[{'journal': {'name': 'South African Journal of Botany', 'id': 1}, 'title': 'Antibacterial activity and isolation of active compounds from fruit of the traditional African medicinal tree Kigelia africana', 'year': 2002, 'start_page': None, 'volume': None, 'issue': None, 'doi': '10.1016/S0254-6299(15)30424-5', 'isbn': '', 'despositor': {'code': 'BND', 'first_name': "Bakary N'tji", 'last_name': 'Diallo', 'id': 26}, 'refauthors_set': [{'author': {'first_name': 'Grace', 'initials': 'GO', 'last_name': 'O.', 'id': 998}, 'first_author': True, 'id': 1580}], 'id': 479}]

>  <classifications>  (785) 
[{'classification': 'Fatty Acyls (Classyfire)', 'id': 957}]

>  <molecular_mass>  (785) 
268.4

$$$$
SANC00898_minRM1.pdb
     RDKit          3D

 52 55  0  0  1  0  0  0  0  0999 V2000
   -0.3520    0.9100   -1.4050 C   0  0  0  0  0  0  0  0  0  0  0  0
   -0.2500    0.8530    0.1120 C   0  0  1  0  0  0  0  0  0  0  0  0
   -0.7190    2.2190    0.6780 C   0  0  0  0  0  0  0  0  0  0  0  0
   -2.1900    2.2510    1.0830 C   0  0  0  0  0  0  0  0  0  0  0  0
   -3.0150    1.3670    0.1650 C   0  0  0  0  0  0  0  0  0  0  0  0
   -2.6420   -0.1110    0.3640 C   0  0  1  0  0  0  0  0  0  0  0  0
   -1.1410   -0.2570    0.7050 C   0  0  1  0  0  0  0  0  0  0  0  0
   -0.6020   -1.6480    0.3860 C   0  0  0  0  0  0  0  0  0  0  0  0
    0.7740   -1.8200    1.0140 C   0  0  0  0  0  0  0  0  0  0  0  0
    1.7450   -0.8060    0.4310 C   0  0  2  0  0  0  0  0  0  0  0  0
    1.2060    0.6230    0.6020 C   0  0  1  0  0  0  0  0  0  0  0  0
    2.2020    1.6460    0.0360 C   0  0  0  0  0  0  0  0  0  0  0  0
    2.8980    1.2330   -1.2600 C   0  0  0  0  0  0  0  0  0  0  0  0
    3.3610   -0.2210   -1.1950 C   0  0  2  0  0  0  0  0  0  0  0  0
    2.1170   -1.1000   -1.0270 C   0  0  0  0  0  0  0  0  0  0  0  0
    4.1030   -0.4400    0.0900 C   0  0  0  0  0  0  0  0  0  0  0  0
    5.4010   -0.2570    0.2770 C   0  0  0  0  0  0  0  0  0  0  0  0
    3.1300   -0.9070    1.1260 C   0  0  0  0  0  0  0  0  0  0  0  0
   -3.4500   -0.6990    1.5300 C   0  0  0  0  0  0  0  0  0  0  0  0
   -3.0870   -0.8080   -0.9150 C   0  0  0  0  0  0  0  0  0  0  0  0
   -2.3980   -1.1950   -1.8390 O   0  0  0  0  0  0  0  0  0  0  0  0
   -4.4190   -0.9780   -1.1350 O   0  0  0  0  0  0  0  0  0  0  0  0
    0.3440    1.6360   -1.8550 H   0  0  0  0  0  0  0  0  0  0  0  0
   -0.1280   -0.0530   -1.8910 H   0  0  0  0  0  0  0  0  0  0  0  0
   -1.3550    1.2090   -1.7510 H   0  0  0  0  0  0  0  0  0  0  0  0
   -0.5310    3.0260   -0.0630 H   0  0  0  0  0  0  0  0  0  0  0  0
   -0.1130    2.5270    1.5570 H   0  0  0  0  0  0  0  0  0  0  0  0
   -2.5720    3.2950    1.0560 H   0  0  0  0  0  0  0  0  0  0  0  0
   -2.3230    1.9530    2.1440 H   0  0  0  0  0  0  0  0  0  0  0  0
   -4.1000    1.5340    0.3320 H   0  0  0  0  0  0  0  0  0  0  0  0
   -2.8460    1.6760   -0.8940 H   0  0  0  0  0  0  0  0  0  0  0  0
   -1.0660   -0.1340    1.8230 H   0  0  0  0  0  0  0  0  0  0  0  0
   -0.5320   -1.8570   -0.6990 H   0  0  0  0  0  0  0  0  0  0  0  0
   -1.2930   -2.4320    0.7650 H   0  0  0  0  0  0  0  0  0  0  0  0
    0.7270   -1.7220    2.1200 H   0  0  0  0  0  0  0  0  0  0  0  0
    1.1390   -2.8570    0.8530 H   0  0  0  0  0  0  0  0  0  0  0  0
    1.1710    0.7970    1.7160 H   0  0  0  0  0  0  0  0  0  0  0  0
    2.9810    1.8470    0.8070 H   0  0  0  0  0  0  0  0  0  0  0  0
    1.7310    2.6410   -0.1060 H   0  0  0  0  0  0  0  0  0  0  0  0
    3.7610    1.9040   -1.4570 H   0  0  0  0  0  0  0  0  0  0  0  0
    2.2250    1.3840   -2.1330 H   0  0  0  0  0  0  0  0  0  0  0  0
    3.9620   -0.4930   -2.0920 H   0  0  0  0  0  0  0  0  0  0  0  0
    2.3500   -2.1730   -1.1840 H   0  0  0  0  0  0  0  0  0  0  0  0
    1.3220   -0.8830   -1.7640 H   0  0  0  0  0  0  0  0  0  0  0  0
    5.8970   -0.4230    1.2260 H   0  0  0  0  0  0  0  0  0  0  0  0
    6.0750    0.0740   -0.5060 H   0  0  0  0  0  0  0  0  0  0  0  0
    3.1970   -0.3280    2.0670 H   0  0  0  0  0  0  0  0  0  0  0  0
    3.3600   -1.9500    1.4250 H   0  0  0  0  0  0  0  0  0  0  0  0
   -4.5410   -0.6380    1.3730 H   0  0  0  0  0  0  0  0  0  0  0  0
   -3.2640   -0.1760    2.4790 H   0  0  0  0  0  0  0  0  0  0  0  0
   -3.2220   -1.7600    1.7050 H   0  0  0  0  0  0  0  0  0  0  0  0
   -4.9390   -0.6850   -0.3770 H   0  0  0  0  0  0  0  0  0  0  0  0
  1 24  1  0
  1 23  1  0
  1 25  1  0
  2  1  1  6
  2 11  1  0
  2  3  1  0
  2  7  1  0
  3 26  1  0
  3  4  1  0
  3 27  1  0
  4  5  1  0
  4 28  1  0
  4 29  1  0
  5 31  1  0
  5 30  1  0
  5  6  1  0
  6 20  1  6
  6  7  1  0
  6 19  1  0
  7  8  1  0
  7 32  1  1
  8 33  1  0
  8 34  1  0
  8  9  1  0
  9 36  1  0
  9 35  1  0
 10  9  1  1
 10 15  1  0
 10 11  1  0
 10 18  1  0
 11 12  1  0
 11 37  1  1
 12 13  1  0
 12 39  1  0
 12 38  1  0
 13 41  1  0
 13 40  1  0
 13 14  1  0
 14 42  1  6
 14 15  1  0
 14 16  1  0
 15 44  1  0
 15 43  1  0
 16 17  2  0
 16 18  1  0
 17 46  1  0
 17 45  1  0
 18 48  1  0
 18 47  1  0
 19 49  1  0
 19 51  1  0
 19 50  1  0
 20 21  2  0
 20 22  1  0
 22 52  1  0
M  END
>  <id>  (786) 
898

>  <scaffolds>  (786) 
['C1CCCCC1', 'C=C1CC23CCC4CCCCC4C2CCC1C3', 'C1CCC2CCCCC2C1']

>  <name>  (786) 
Kaurenoic acid

>  <formula>  (786) 
C20H30O2

>  <SMILES>  (786) 
C[C@@]12CCC[C@@]([C@H]1CC[C@]34[C@H]2CC[C@H](C3)C(=C)C4)(C)C(=O)O

>  <ChEMBL_id>  (786) 
CHEMBL489140

>  <ZINC_id>  (786) 
ZINC4102257

>  <PubChem_id>  (786) 


>  <DrugBank_id>  (786) 


>  <CAS_no>  (786) 
6730-83-2

>  <references>  (786) 
[{'journal': {'name': 'South African Journal of Botany', 'id': 1}, 'title': 'Prenyl-butyrylphloroglucinol and kaurenoic acid: Two antibacterial compounds from Helichrysum kraussii', 'year': 2000, 'start_page': None, 'volume': None, 'issue': None, 'doi': '10.1016/S0254-6299(15)31072-3', 'isbn': '', 'despositor': {'code': 'BND', 'first_name': "Bakary N'tji", 'last_name': 'Diallo', 'id': 26}, 'refauthors_set': [{'author': {'first_name': 'Bremner', 'initials': 'BP', 'last_name': 'P.', 'id': 999}, 'first_author': True, 'id': 1581}], 'id': 480}]

>  <classifications>  (786) 
[{'classification': 'Phenol lipids (Classyfire)', 'id': 951}]

>  <molecular_mass>  (786) 
302.5

$$$$
SANC00899_minRM1.pdb
     RDKit          3D

 35 38  0  0  1  0  0  0  0  0999 V2000
    2.4840    2.4870   -1.2400 C   0  0  0  0  0  0  0  0  0  0  0  0
    1.9210    1.9210    0.0100 N   0  0  0  0  0  0  0  0  0  0  0  0
    2.9320    1.1600    0.7760 C   0  0  0  0  0  0  0  0  0  0  0  0
    3.2840   -0.1870    0.1340 C   0  0  0  0  0  0  0  0  0  0  0  0
    2.0430   -1.0010    0.0230 C   0  0  0  0  0  0  0  0  0  0  0  0
    0.8140   -0.3670   -0.0930 C   0  0  0  0  0  0  0  0  0  0  0  0
    0.6890    1.1200   -0.2530 C   0  0  1  0  0  0  0  0  0  0  0  0
   -0.4040    1.6020    0.7230 C   0  0  0  0  0  0  0  0  0  0  0  0
   -1.6820    0.9170    0.3660 C   0  0  0  0  0  0  0  0  0  0  0  0
   -2.8940    1.5890    0.4520 C   0  0  0  0  0  0  0  0  0  0  0  0
   -4.0710    0.9520    0.0780 C   0  0  0  0  0  0  0  0  0  0  0  0
   -4.0350   -0.3530   -0.3940 C   0  0  0  0  0  0  0  0  0  0  0  0
   -2.8260   -1.0350   -0.4680 C   0  0  0  0  0  0  0  0  0  0  0  0
   -1.6470   -0.4140   -0.0670 C   0  0  0  0  0  0  0  0  0  0  0  0
   -0.3680   -1.1170   -0.0670 C   0  0  0  0  0  0  0  0  0  0  0  0
   -0.3000   -2.5040    0.0130 C   0  0  0  0  0  0  0  0  0  0  0  0
    0.9380   -3.1380    0.0630 C   0  0  0  0  0  0  0  0  0  0  0  0
    2.1060   -2.3920    0.0800 C   0  0  0  0  0  0  0  0  0  0  0  0
    3.3950    3.0700   -1.0230 H   0  0  0  0  0  0  0  0  0  0  0  0
    1.7610    3.1970   -1.6790 H   0  0  0  0  0  0  0  0  0  0  0  0
    2.7480    1.7660   -2.0360 H   0  0  0  0  0  0  0  0  0  0  0  0
    2.5260    1.0060    1.8030 H   0  0  0  0  0  0  0  0  0  0  0  0
    3.8450    1.7810    0.9190 H   0  0  0  0  0  0  0  0  0  0  0  0
    4.0580   -0.7070    0.7380 H   0  0  0  0  0  0  0  0  0  0  0  0
    3.7530   -0.0600   -0.8640 H   0  0  0  0  0  0  0  0  0  0  0  0
    0.3230    1.2980   -1.3050 H   0  0  0  0  0  0  0  0  0  0  0  0
   -0.1320    1.3790    1.7760 H   0  0  0  0  0  0  0  0  0  0  0  0
   -0.5010    2.7070    0.6840 H   0  0  0  0  0  0  0  0  0  0  0  0
   -2.9280    2.6230    0.8100 H   0  0  0  0  0  0  0  0  0  0  0  0
   -5.0250    1.4830    0.1470 H   0  0  0  0  0  0  0  0  0  0  0  0
   -4.9590   -0.8460   -0.7080 H   0  0  0  0  0  0  0  0  0  0  0  0
   -2.8160   -2.0590   -0.8540 H   0  0  0  0  0  0  0  0  0  0  0  0
   -1.2090   -3.1100    0.0520 H   0  0  0  0  0  0  0  0  0  0  0  0
    0.9860   -4.2300    0.1060 H   0  0  0  0  0  0  0  0  0  0  0  0
    3.0740   -2.8970    0.1460 H   0  0  0  0  0  0  0  0  0  0  0  0
  1 21  1  0
  1 20  1  0
  1 19  1  0
  1  2  1  0
  2  7  1  0
  2  3  1  0
  3  4  1  0
  3 23  1  0
  3 22  1  0
  4 25  1  0
  4  5  1  0
  4 24  1  0
  5  6  2  0
  5 18  1  0
  6  7  1  0
  6 15  1  0
  7 26  1  6
  7  8  1  0
  8  9  1  0
  8 28  1  0
  8 27  1  0
  9 14  2  0
  9 10  1  0
 10 11  2  0
 10 29  1  0
 11 12  1  0
 11 30  1  0
 12 31  1  0
 12 13  2  0
 13 32  1  0
 13 14  1  0
 14 15  1  0
 15 16  2  0
 16 33  1  0
 16 17  1  0
 17 18  2  0
 17 34  1  0
 18 35  1  0
M  END
>  <id>  (787) 
899

>  <scaffolds>  (787) 
['c1ccccc1', 'c1ccc(CCc2ccccc2)cc1', 'c1ccc2c(c1)CC1NCCc3cccc-2c31', 'c1ccc(CC2NCCc3ccccc32)cc1']

>  <name>  (787) 
Aporphine

>  <formula>  (787) 
C17H17N

>  <SMILES>  (787) 
CN1CCC2=C3C1CC4=CC=CC=C4C3=CC=C2

>  <ChEMBL_id>  (787) 
SCHEMBL59765

>  <ZINC_id>  (787) 


>  <PubChem_id>  (787) 


>  <DrugBank_id>  (787) 


>  <CAS_no>  (787) 
478-57-9

>  <references>  (787) 
[{'journal': {'name': 'Biochemical Systematics and Ecology', 'id': 24}, 'title': 'Alkaloids of Antizoma angustifolia (Menispermaceae)', 'year': 2004, 'start_page': None, 'volume': None, 'issue': None, 'doi': '10.1016/j.bse.2004.04.003', 'isbn': '', 'despositor': {'code': 'BND', 'first_name': "Bakary N'tji", 'last_name': 'Diallo', 'id': 26}, 'refauthors_set': [{'author': {'first_name': 'Helene ', 'initials': 'HDW', 'last_name': 'De Wet', 'id': 1000}, 'first_author': True, 'id': 1582}], 'id': 481}]

>  <classifications>  (787) 
[{'classification': 'Aporphine', 'id': 743}, {'classification': 'Aporphines (Classyfire)', 'id': 976}]

>  <molecular_mass>  (787) 
235.32

$$$$
SANC00900_minRM1.pdb
     RDKit          3D

 42 43  0  0  1  0  0  0  0  0999 V2000
   -1.6370   -3.2210   -0.2880 C   0  0  0  0  0  0  0  0  0  0  0  0
   -1.6170   -1.7160   -0.5090 C   0  0  1  0  0  0  0  0  0  0  0  0
   -2.9590   -1.0670   -0.1470 C   0  0  0  0  0  0  0  0  0  0  0  0
   -2.6710   -0.1310    1.0210 C   0  0  0  0  0  0  0  0  0  0  0  0
   -1.1960    0.2800    0.8740 C   0  0  1  0  0  0  0  0  0  0  0  0
   -0.5560   -1.0300    0.3800 C   0  0  2  0  0  0  0  0  0  0  0  0
    0.7710   -0.9210   -0.3580 C   0  0  0  0  0  0  0  0  0  0  0  0
    1.7400    0.0630    0.3000 C   0  0  2  0  0  0  0  0  0  0  0  0
    1.5830    1.4610   -0.3030 C   0  0  0  0  0  0  0  0  0  0  0  0
    0.3700    2.2010    0.2340 C   0  0  0  0  0  0  0  0  0  0  0  0
   -0.9940    1.5200   -0.0230 C   0  0  2  0  0  0  0  0  0  0  0  0
   -2.0670    2.5900    0.2780 C   0  0  0  0  0  0  0  0  0  0  0  0
   -1.1340    1.0920   -1.3420 O   0  0  0  0  0  0  0  0  0  0  0  0
    3.1580   -0.3830    0.0650 C   0  0  0  0  0  0  0  0  0  0  0  0
    3.6160   -0.6500   -1.1530 C   0  0  0  0  0  0  0  0  0  0  0  0
    4.0200   -0.4870    1.2730 C   0  0  0  0  0  0  0  0  0  0  0  0
   -1.9130   -3.4980    0.7400 H   0  0  0  0  0  0  0  0  0  0  0  0
   -2.3570   -3.7220   -0.9500 H   0  0  0  0  0  0  0  0  0  0  0  0
   -0.6550   -3.6770   -0.4860 H   0  0  0  0  0  0  0  0  0  0  0  0
   -1.4030   -1.5240   -1.5910 H   0  0  0  0  0  0  0  0  0  0  0  0
   -3.7470   -1.8050    0.0990 H   0  0  0  0  0  0  0  0  0  0  0  0
   -3.3690   -0.5040   -1.0100 H   0  0  0  0  0  0  0  0  0  0  0  0
   -2.8220   -0.6510    1.9910 H   0  0  0  0  0  0  0  0  0  0  0  0
   -3.3800    0.7180    1.0590 H   0  0  0  0  0  0  0  0  0  0  0  0
   -0.7920    0.5500    1.8820 H   0  0  0  0  0  0  0  0  0  0  0  0
   -0.3800   -1.6550    1.2970 H   0  0  0  0  0  0  0  0  0  0  0  0
    1.2260   -1.9370   -0.4010 H   0  0  0  0  0  0  0  0  0  0  0  0
    0.6250   -0.6650   -1.4290 H   0  0  0  0  0  0  0  0  0  0  0  0
    1.5460    0.1060    1.4020 H   0  0  0  0  0  0  0  0  0  0  0  0
    2.4930    2.0650   -0.0860 H   0  0  0  0  0  0  0  0  0  0  0  0
    1.5540    1.4140   -1.4130 H   0  0  0  0  0  0  0  0  0  0  0  0
    0.3680    3.2230   -0.2090 H   0  0  0  0  0  0  0  0  0  0  0  0
    0.4890    2.3890    1.3220 H   0  0  0  0  0  0  0  0  0  0  0  0
   -3.0870    2.2140    0.1060 H   0  0  0  0  0  0  0  0  0  0  0  0
   -2.0220    2.9280    1.3220 H   0  0  0  0  0  0  0  0  0  0  0  0
   -1.9640    3.4850   -0.3520 H   0  0  0  0  0  0  0  0  0  0  0  0
   -0.9400    1.8390   -1.9160 H   0  0  0  0  0  0  0  0  0  0  0  0
    3.0160   -0.5800   -2.0550 H   0  0  0  0  0  0  0  0  0  0  0  0
    4.6330   -0.9670   -1.3590 H   0  0  0  0  0  0  0  0  0  0  0  0
    3.6230   -1.2250    1.9870 H   0  0  0  0  0  0  0  0  0  0  0  0
    4.0840    0.4750    1.8040 H   0  0  0  0  0  0  0  0  0  0  0  0
    5.0520   -0.7930    1.0490 H   0  0  0  0  0  0  0  0  0  0  0  0
  1 18  1  0
  1  2  1  0
  1 19  1  0
  1 17  1  0
  2 20  1  6
  2  3  1  0
  2  6  1  0
  3 22  1  0
  3 21  1  0
  3  4  1  0
  4  5  1  0
  4 24  1  0
  4 23  1  0
  5 11  1  0
  5  6  1  0
  5 25  1  1
  6  7  1  0
  6 26  1  1
  7 28  1  0
  7 27  1  0
  7  8  1  0
  8  9  1  0
  8 14  1  0
  8 29  1  1
  9 31  1  0
  9 30  1  0
  9 10  1  0
 10 32  1  0
 10 11  1  0
 10 33  1  0
 11 13  1  6
 11 12  1  0
 12 36  1  0
 12 34  1  0
 12 35  1  0
 13 37  1  0
 14 15  2  0
 14 16  1  0
 15 38  1  0
 15 39  1  0
 16 42  1  0
 16 41  1  0
 16 40  1  0
M  END
>  <id>  (788) 
900

>  <scaffolds>  (788) 
['C1CCC2CCCC2CC1']

>  <name>  (788) 
Pogostol

>  <formula>  (788) 
C15H26O

>  <SMILES>  (788) 
CC1CCC2C1CC(CCC2(C)O)C(=C)C

>  <ChEMBL_id>  (788) 


>  <ZINC_id>  (788) 


>  <PubChem_id>  (788) 


>  <DrugBank_id>  (788) 


>  <CAS_no>  (788) 
21698-41-9

>  <references>  (788) 
[{'journal': {'name': 'Biochemical Systematics and Ecology', 'id': 24}, 'title': 'Chemotaxonomic evidence suggests that Eriocephalus tenuifolius is the source of Cape chamomile oil and not Eriocephalus punctulatus', 'year': 2011, 'start_page': None, 'volume': None, 'issue': None, 'doi': '10.1016/j.bse.2011.04.003', 'isbn': '', 'despositor': {'code': 'BND', 'first_name': "Bakary N'tji", 'last_name': 'Diallo', 'id': 26}, 'refauthors_set': [{'author': {'first_name': 'Sandasi', 'initials': 'SM', 'last_name': 'Maxleene', 'id': 1001}, 'first_author': True, 'id': 1583}], 'id': 482}]

>  <classifications>  (788) 
[{'classification': 'Phenol lipids (Classyfire)', 'id': 951}]

>  <molecular_mass>  (788) 
222.37

$$$$
SANC00901_minRM1.pdb
     RDKit          3D

 29 28  0  0  0  0  0  0  0  0999 V2000
    1.9020    0.9620   -1.3210 C   0  0  0  0  0  0  0  0  0  0  0  0
    1.6560    0.3760    0.0710 C   0  0  0  0  0  0  0  0  0  0  0  0
    2.4600    1.1570    1.1120 C   0  0  0  0  0  0  0  0  0  0  0  0
    2.0870   -1.0600    0.1300 C   0  0  0  0  0  0  0  0  0  0  0  0
    3.2800   -1.4710   -0.2780 C   0  0  0  0  0  0  0  0  0  0  0  0
    0.1860    0.4910    0.3600 C   0  0  0  0  0  0  0  0  0  0  0  0
   -0.7170   -0.2250   -0.3050 C   0  0  0  0  0  0  0  0  0  0  0  0
   -2.1930   -0.0810   -0.0380 C   0  0  0  0  0  0  0  0  0  0  0  0
   -2.9530   -1.3120   -0.5470 C   0  0  0  0  0  0  0  0  0  0  0  0
   -2.7060    1.1900   -0.7230 C   0  0  0  0  0  0  0  0  0  0  0  0
   -2.4540    0.1040    1.3250 O   0  0  0  0  0  0  0  0  0  0  0  0
    1.4640    0.3390   -2.1130 H   0  0  0  0  0  0  0  0  0  0  0  0
    2.9710    1.0670   -1.5540 H   0  0  0  0  0  0  0  0  0  0  0  0
    1.4630    1.9650   -1.4220 H   0  0  0  0  0  0  0  0  0  0  0  0
    3.5430    1.0860    0.9370 H   0  0  0  0  0  0  0  0  0  0  0  0
    2.2100    2.2280    1.1090 H   0  0  0  0  0  0  0  0  0  0  0  0
    2.2790    0.7880    2.1310 H   0  0  0  0  0  0  0  0  0  0  0  0
    1.3680   -1.7680    0.5570 H   0  0  0  0  0  0  0  0  0  0  0  0
    4.0490   -0.8290   -0.6960 H   0  0  0  0  0  0  0  0  0  0  0  0
    3.5980   -2.5080   -0.2240 H   0  0  0  0  0  0  0  0  0  0  0  0
   -0.1110    1.2070    1.1350 H   0  0  0  0  0  0  0  0  0  0  0  0
   -0.4360   -0.9290   -1.0940 H   0  0  0  0  0  0  0  0  0  0  0  0
   -2.8820   -1.4140   -1.6380 H   0  0  0  0  0  0  0  0  0  0  0  0
   -4.0230   -1.2580   -0.3000 H   0  0  0  0  0  0  0  0  0  0  0  0
   -2.5720   -2.2460   -0.1130 H   0  0  0  0  0  0  0  0  0  0  0  0
   -2.2010    2.0890   -0.3430 H   0  0  0  0  0  0  0  0  0  0  0  0
   -2.5370    1.1530   -1.8070 H   0  0  0  0  0  0  0  0  0  0  0  0
   -3.7830    1.3370   -0.5620 H   0  0  0  0  0  0  0  0  0  0  0  0
   -2.0760   -0.6430    1.7990 H   0  0  0  0  0  0  0  0  0  0  0  0
  1 12  1  0
  1 13  1  0
  1 14  1  0
  1  2  1  0
  2  4  1  0
  2  6  1  0
  2  3  1  0
  3 15  1  0
  3 16  1  0
  3 17  1  0
  4  5  2  0
  4 18  1  0
  5 19  1  0
  5 20  1  0
  6  7  2  0
  6 21  1  0
  7 22  1  0
  7  8  1  0
  8 10  1  0
  8  9  1  0
  8 11  1  0
  9 23  1  0
  9 24  1  0
  9 25  1  0
 10 27  1  0
 10 28  1  0
 10 26  1  0
 11 29  1  0
M  END
>  <id>  (789) 
901

>  <scaffolds>  (789) 
[]

>  <name>  (789) 
Yomogi alcohol

>  <formula>  (789) 
C10H18O

>  <SMILES>  (789) 
CC(C)(C=C)/C=C/C(C)(C)O

>  <ChEMBL_id>  (789) 
SCHEMBL1064900

>  <ZINC_id>  (789) 
ZINC5355869

>  <PubChem_id>  (789) 


>  <DrugBank_id>  (789) 


>  <CAS_no>  (789) 
26127-98-0

>  <references>  (789) 
[{'journal': {'name': 'Biochemical Systematics and Ecology', 'id': 24}, 'title': 'Chemotaxonomic evidence suggests that Eriocephalus tenuifolius is the source of Cape chamomile oil and not Eriocephalus punctulatus', 'year': 2011, 'start_page': None, 'volume': None, 'issue': None, 'doi': '10.1016/j.bse.2011.04.003', 'isbn': '', 'despositor': {'code': 'BND', 'first_name': "Bakary N'tji", 'last_name': 'Diallo', 'id': 26}, 'refauthors_set': [{'author': {'first_name': 'Sandasi', 'initials': 'SM', 'last_name': 'Maxleene', 'id': 1001}, 'first_author': True, 'id': 1583}], 'id': 482}]

>  <classifications>  (789) 
[{'classification': 'Organooxygen compounds (Classyfire)', 'id': 954}]

>  <molecular_mass>  (789) 
154.25

$$$$
SANC00902_minRM1.pdb
     RDKit          3D

 29 30  0  0  1  0  0  0  0  0999 V2000
    1.9740   -0.7360   -1.2500 C   0  0  0  0  0  0  0  0  0  0  0  0
    1.1750   -0.3490   -0.0000 C   0  0  1  0  0  0  0  0  0  0  0  0
    0.8240    1.1540    0.0010 C   0  0  1  0  0  0  0  0  0  0  0  0
   -0.0300    1.4690   -1.2300 C   0  0  0  0  0  0  0  0  0  0  0  0
   -1.2220    0.5110   -1.2560 C   0  0  0  0  0  0  0  0  0  0  0  0
   -1.1820   -0.3760   -0.0000 C   0  0  1  0  0  0  0  0  0  0  0  0
    0.0030   -1.1350   -0.0010 O   0  0  0  0  0  0  0  0  0  0  0  0
   -1.2220    0.5100    1.2560 C   0  0  0  0  0  0  0  0  0  0  0  0
   -0.0300    1.4680    1.2310 C   0  0  0  0  0  0  0  0  0  0  0  0
   -2.3170   -1.3970   -0.0000 C   0  0  0  0  0  0  0  0  0  0  0  0
    1.9740   -0.7370    1.2490 C   0  0  0  0  0  0  0  0  0  0  0  0
    2.3300   -1.7760   -1.2040 H   0  0  0  0  0  0  0  0  0  0  0  0
    2.8580   -0.0980   -1.3770 H   0  0  0  0  0  0  0  0  0  0  0  0
    1.3810   -0.6710   -2.1720 H   0  0  0  0  0  0  0  0  0  0  0  0
    1.7570    1.7640    0.0010 H   0  0  0  0  0  0  0  0  0  0  0  0
   -0.3640    2.5280   -1.2110 H   0  0  0  0  0  0  0  0  0  0  0  0
    0.5650    1.4100   -2.1630 H   0  0  0  0  0  0  0  0  0  0  0  0
   -2.1830    1.0600   -1.3080 H   0  0  0  0  0  0  0  0  0  0  0  0
   -1.2100   -0.1180   -2.1690 H   0  0  0  0  0  0  0  0  0  0  0  0
   -1.2090   -0.1200    2.1690 H   0  0  0  0  0  0  0  0  0  0  0  0
   -2.1830    1.0580    1.3090 H   0  0  0  0  0  0  0  0  0  0  0  0
    0.5660    1.4080    2.1650 H   0  0  0  0  0  0  0  0  0  0  0  0
   -0.3640    2.5270    1.2130 H   0  0  0  0  0  0  0  0  0  0  0  0
   -3.2980   -0.9030   -0.0000 H   0  0  0  0  0  0  0  0  0  0  0  0
   -2.2820   -2.0540   -0.8820 H   0  0  0  0  0  0  0  0  0  0  0  0
   -2.2810   -2.0540    0.8800 H   0  0  0  0  0  0  0  0  0  0  0  0
    2.8580   -0.0990    1.3770 H   0  0  0  0  0  0  0  0  0  0  0  0
    1.3810   -0.6740    2.1720 H   0  0  0  0  0  0  0  0  0  0  0  0
    2.3300   -1.7770    1.2020 H   0  0  0  0  0  0  0  0  0  0  0  0
  1 14  1  0
  1 13  1  0
  1 12  1  0
  2  1  1  6
  2  7  1  0
  2  3  1  0
  2 11  1  0
  3  4  1  0
  3 15  1  1
  3  9  1  0
  4 17  1  0
  4  5  1  0
  4 16  1  0
  5 19  1  0
  5 18  1  0
  5  6  1  0
  6  7  1  0
  6 10  1  6
  6  8  1  0
  8  9  1  0
  8 21  1  0
  8 20  1  0
  9 23  1  0
  9 22  1  0
 10 25  1  0
 10 24  1  0
 10 26  1  0
 11 29  1  0
 11 27  1  0
 11 28  1  0
M  END
>  <id>  (790) 
902

>  <scaffolds>  (790) 
['C1CCOCC1', 'C1CCCCC1', 'C1CC2CCC1CO2']

>  <name>  (790) 
Eucalyptol

>  <formula>  (790) 
C10H18O

>  <SMILES>  (790) 
CC1(C2CCC(O1)(CC2)C)C


>  <ChEMBL_id>  (790) 
SCHEMBL17836873

>  <ZINC_id>  (790) 
ZINC967566

>  <PubChem_id>  (790) 


>  <DrugBank_id>  (790) 
DB-070775

>  <CAS_no>  (790) 
470-82-6

>  <references>  (790) 
[{'journal': {'name': 'Biochemical Systematics and Ecology', 'id': 24}, 'title': 'Chemotaxonomic evidence suggests that Eriocephalus tenuifolius is the source of Cape chamomile oil and not Eriocephalus punctulatus', 'year': 2011, 'start_page': None, 'volume': None, 'issue': None, 'doi': '10.1016/j.bse.2011.04.003', 'isbn': '', 'despositor': {'code': 'BND', 'first_name': "Bakary N'tji", 'last_name': 'Diallo', 'id': 26}, 'refauthors_set': [{'author': {'first_name': 'Sandasi', 'initials': 'SM', 'last_name': 'Maxleene', 'id': 1001}, 'first_author': True, 'id': 1583}], 'id': 482}]

>  <classifications>  (790) 
[{'classification': 'Oxanes', 'id': 909}, {'classification': 'Oxanes (Classyfire)', 'id': 990}]

>  <molecular_mass>  (790) 
154.25

$$$$
SANC00903_minRM1.pdb
     RDKit          3D

 27 27  0  0  1  0  0  0  0  0999 V2000
   -3.6860    0.0910    0.2670 C   0  0  0  0  0  0  0  0  0  0  0  0
   -2.2120    0.0850    0.0710 C   0  0  0  0  0  0  0  0  0  0  0  0
   -1.5290   -1.0440   -0.1280 C   0  0  0  0  0  0  0  0  0  0  0  0
   -0.0730   -1.0290   -0.3530 C   0  0  0  0  0  0  0  0  0  0  0  0
    0.4810   -1.9610   -0.9080 O   0  0  0  0  0  0  0  0  0  0  0  0
    0.6490    0.2140    0.1280 C   0  0  2  0  0  0  0  0  0  0  0  0
   -0.1330    1.3980   -0.4430 C   0  0  0  0  0  0  0  0  0  0  0  0
   -1.5500    1.4180    0.1260 C   0  0  0  0  0  0  0  0  0  0  0  0
    2.1280    0.2110   -0.2870 C   0  0  2  0  0  0  0  0  0  0  0  0
    2.8960   -0.8090    0.5520 C   0  0  0  0  0  0  0  0  0  0  0  0
    2.7770    1.5780   -0.0930 C   0  0  0  0  0  0  0  0  0  0  0  0
   -4.1960    0.5460   -0.5960 H   0  0  0  0  0  0  0  0  0  0  0  0
   -4.1170   -0.9130    0.3950 H   0  0  0  0  0  0  0  0  0  0  0  0
   -3.9770    0.6740    1.1550 H   0  0  0  0  0  0  0  0  0  0  0  0
   -2.0120   -2.0260   -0.1640 H   0  0  0  0  0  0  0  0  0  0  0  0
    0.5850    0.2370    1.2470 H   0  0  0  0  0  0  0  0  0  0  0  0
   -0.1520    1.3490   -1.5520 H   0  0  0  0  0  0  0  0  0  0  0  0
    0.3550    2.3660   -0.2110 H   0  0  0  0  0  0  0  0  0  0  0  0
   -2.1630    2.1780   -0.4060 H   0  0  0  0  0  0  0  0  0  0  0  0
   -1.5390    1.7610    1.1850 H   0  0  0  0  0  0  0  0  0  0  0  0
    2.2020   -0.0710   -1.3690 H   0  0  0  0  0  0  0  0  0  0  0  0
    3.9400   -0.9030    0.2200 H   0  0  0  0  0  0  0  0  0  0  0  0
    2.9290   -0.5340    1.6170 H   0  0  0  0  0  0  0  0  0  0  0  0
    2.4740   -1.8220    0.5020 H   0  0  0  0  0  0  0  0  0  0  0  0
    3.8710    1.5300   -0.2110 H   0  0  0  0  0  0  0  0  0  0  0  0
    2.4360    2.3200   -0.8280 H   0  0  0  0  0  0  0  0  0  0  0  0
    2.5900    1.9950    0.9070 H   0  0  0  0  0  0  0  0  0  0  0  0
  1 12  1  0
  1  2  1  0
  1 13  1  0
  1 14  1  0
  2  3  2  0
  2  8  1  0
  3  4  1  0
  3 15  1  0
  4  5  2  0
  4  6  1  0
  6  7  1  0
  6  9  1  0
  6 16  1  1
  7 17  1  0
  7 18  1  0
  7  8  1  0
  8 19  1  0
  8 20  1  0
  9 21  1  6
  9 11  1  0
  9 10  1  0
 10 22  1  0
 10 24  1  0
 10 23  1  0
 11 26  1  0
 11 25  1  0
 11 27  1  0
M  END
>  <id>  (791) 
903

>  <scaffolds>  (791) 
['C1=CCCCC1', 'O=C1C=CCCC1']

>  <name>  (791) 
Piperitone

>  <formula>  (791) 
C10H16O

>  <SMILES>  (791) 
CC1=CC(=O)C(CC1)C(C)C

>  <ChEMBL_id>  (791) 
CHEMBL2252746

>  <ZINC_id>  (791) 


>  <PubChem_id>  (791) 


>  <DrugBank_id>  (791) 
DB-057169

>  <CAS_no>  (791) 
89-81-6

>  <references>  (791) 
[{'journal': {'name': 'Biochemical Systematics and Ecology', 'id': 24}, 'title': 'Chemotaxonomic evidence suggests that Eriocephalus tenuifolius is the source of Cape chamomile oil and not Eriocephalus punctulatus', 'year': 2011, 'start_page': None, 'volume': None, 'issue': None, 'doi': '10.1016/j.bse.2011.04.003', 'isbn': '', 'despositor': {'code': 'BND', 'first_name': "Bakary N'tji", 'last_name': 'Diallo', 'id': 26}, 'refauthors_set': [{'author': {'first_name': 'Sandasi', 'initials': 'SM', 'last_name': 'Maxleene', 'id': 1001}, 'first_author': True, 'id': 1583}], 'id': 482}]

>  <classifications>  (791) 
[{'classification': 'Phenol lipids', 'id': 899}, {'classification': 'Monoterpenes ', 'id': 910}, {'classification': 'Phenol lipids (Classyfire)', 'id': 951}]

>  <molecular_mass>  (791) 
152.23

$$$$
SANC00904_minRM1.pdb
     RDKit          3D

103109  0  0  1  0  0  0  0  0999 V2000
    3.0180    2.0980    1.8570 C   0  0  0  0  0  0  0  0  0  0  0  0
    2.8560    0.7920    1.0710 C   0  0  2  0  0  0  0  0  0  0  0  0
    2.3160    1.1030   -0.3320 C   0  0  0  0  0  0  0  0  0  0  0  0
    0.8000    0.9700   -0.4370 C   0  0  0  0  0  0  0  0  0  0  0  0
    0.1560    1.4420    0.8650 C   0  0  2  0  0  0  0  0  0  0  0  0
    0.5120    0.4820    2.0100 C   0  0  0  0  0  0  0  0  0  0  0  0
    1.9070   -0.1370    1.8520 C   0  0  1  0  0  0  0  0  0  0  0  0
    1.8210   -1.5230    1.2060 C   0  0  0  0  0  0  0  0  0  0  0  0
    3.1990   -2.1710    1.0730 C   0  0  0  0  0  0  0  0  0  0  0  0
    4.1020   -1.2470    0.2680 C   0  0  1  0  0  0  0  0  0  0  0  0
    4.2310    0.0920    1.0060 C   0  0  1  0  0  0  0  0  0  0  0  0
    5.3260    0.9230    0.3450 C   0  0  0  0  0  0  0  0  0  0  0  0
    6.7170    0.2950    0.5350 C   0  0  0  0  0  0  0  0  0  0  0  0
    6.6580   -1.2170    0.7520 C   0  0  1  0  0  0  0  0  0  0  0  0
    5.4960   -1.7990   -0.0930 C   0  0  1  0  0  0  0  0  0  0  0  0
    5.7350   -3.3140    0.0010 C   0  0  0  0  0  0  0  0  0  0  0  0
    7.2640   -3.4400   -0.0790 C   0  0  0  0  0  0  0  0  0  0  0  0
    7.8760   -2.0690    0.2860 C   0  0  1  0  0  0  0  0  0  0  0  0
    8.6930   -1.4500   -0.7810 C   0  0  0  0  0  0  0  0  0  0  0  0
    9.5750   -0.4500   -0.6150 C   0  0  0  0  0  0  0  0  0  0  0  0
   10.2030   -0.1740   -1.9210 C   0  0  0  0  0  0  0  0  0  0  0  0
   11.0360    0.6250   -2.2820 O   0  0  0  0  0  0  0  0  0  0  0  0
    9.6890   -1.0410   -2.8600 O   0  0  0  0  0  0  0  0  0  0  0  0
    8.7350   -1.8830   -2.2280 C   0  0  0  0  0  0  0  0  0  0  0  0
    5.7910   -1.3930   -1.4080 O   0  0  0  0  0  0  0  0  0  0  0  0
    6.5130   -1.5270    2.2460 C   0  0  0  0  0  0  0  0  0  0  0  0
   -1.2510    1.3850    0.7620 O   0  0  0  0  0  0  0  0  0  0  0  0
   -1.8450    2.4860    0.1310 C   0  0  2  0  0  0  0  0  0  0  0  0
   -2.5050    3.3800    1.2270 C   0  0  2  0  0  0  0  0  0  0  0  0
   -3.9180    3.7750    0.7360 C   0  0  1  0  0  0  0  0  0  0  0  0
   -4.7590    2.4820    0.5770 C   0  0  2  0  0  0  0  0  0  0  0  0
   -3.9230    1.3770   -0.1290 C   0  0  2  0  0  0  0  0  0  0  0  0
   -2.7890    1.9410   -0.7420 O   0  0  0  0  0  0  0  0  0  0  0  0
   -4.6380    0.6640   -1.3030 C   0  0  0  0  0  0  0  0  0  0  0  0
   -6.0010    0.4740   -1.0530 O   0  0  0  0  0  0  0  0  0  0  0  0
   -6.3300   -0.4630   -0.0640 C   0  0  1  0  0  0  0  0  0  0  0  0
   -7.8470   -0.2450    0.2080 C   0  0  1  0  0  0  0  0  0  0  0  0
   -8.4700   -1.6220    0.5490 C   0  0  2  0  0  0  0  0  0  0  0  0
   -8.3050   -2.5840   -0.6580 C   0  0  2  0  0  0  0  0  0  0  0  0
   -7.0080   -2.2480   -1.4480 C   0  0  1  0  0  0  0  0  0  0  0  0
   -6.0350   -1.7270   -0.5780 O   0  0  0  0  0  0  0  0  0  0  0  0
   -6.3540   -3.5270   -2.0260 C   0  0  0  0  0  0  0  0  0  0  0  0
   -7.2930   -4.3860   -2.5860 O   0  0  0  0  0  0  0  0  0  0  0  0
   -9.3830   -2.5710   -1.5310 O   0  0  0  0  0  0  0  0  0  0  0  0
   -9.8420   -1.4860    0.7370 O   0  0  0  0  0  0  0  0  0  0  0  0
   -7.9970    0.5340    1.3520 O   0  0  0  0  0  0  0  0  0  0  0  0
   -5.9700    2.7720   -0.0310 O   0  0  0  0  0  0  0  0  0  0  0  0
   -4.5000    4.6880    1.6050 O   0  0  0  0  0  0  0  0  0  0  0  0
   -1.6630    4.4850    1.3260 O   0  0  0  0  0  0  0  0  0  0  0  0
    3.8290    2.7270    1.4510 H   0  0  0  0  0  0  0  0  0  0  0  0
    3.2650    1.9300    2.9150 H   0  0  0  0  0  0  0  0  0  0  0  0
    2.1110    2.7220    1.8430 H   0  0  0  0  0  0  0  0  0  0  0  0
    2.7790    0.4390   -1.0980 H   0  0  0  0  0  0  0  0  0  0  0  0
    2.6350    2.1200   -0.6480 H   0  0  0  0  0  0  0  0  0  0  0  0
    0.5070   -0.0850   -0.6430 H   0  0  0  0  0  0  0  0  0  0  0  0
    0.4200    1.5320   -1.3140 H   0  0  0  0  0  0  0  0  0  0  0  0
    0.5070    2.4840    1.1160 H   0  0  0  0  0  0  0  0  0  0  0  0
    0.4450    1.0300    2.9740 H   0  0  0  0  0  0  0  0  0  0  0  0
   -0.2540   -0.3170    2.1130 H   0  0  0  0  0  0  0  0  0  0  0  0
    2.3210   -0.2870    2.8860 H   0  0  0  0  0  0  0  0  0  0  0  0
    1.3140   -1.4640    0.2160 H   0  0  0  0  0  0  0  0  0  0  0  0
    1.1610   -2.1850    1.8070 H   0  0  0  0  0  0  0  0  0  0  0  0
    3.6270   -2.3980    2.0710 H   0  0  0  0  0  0  0  0  0  0  0  0
    3.0940   -3.1590    0.5780 H   0  0  0  0  0  0  0  0  0  0  0  0
    3.5560   -1.0490   -0.7030 H   0  0  0  0  0  0  0  0  0  0  0  0
    4.5340   -0.0790    2.0750 H   0  0  0  0  0  0  0  0  0  0  0  0
    5.1130    1.0540   -0.7370 H   0  0  0  0  0  0  0  0  0  0  0  0
    5.3250    1.9610    0.7460 H   0  0  0  0  0  0  0  0  0  0  0  0
    7.2520    0.7850    1.3760 H   0  0  0  0  0  0  0  0  0  0  0  0
    7.3240    0.5550   -0.3570 H   0  0  0  0  0  0  0  0  0  0  0  0
    5.3430   -3.7490    0.9400 H   0  0  0  0  0  0  0  0  0  0  0  0
    5.2210   -3.8870   -0.7950 H   0  0  0  0  0  0  0  0  0  0  0  0
    7.5720   -3.8000   -1.0790 H   0  0  0  0  0  0  0  0  0  0  0  0
    7.6330   -4.2290    0.6080 H   0  0  0  0  0  0  0  0  0  0  0  0
    8.5970   -2.2110    1.1360 H   0  0  0  0  0  0  0  0  0  0  0  0
    9.8360    0.1020    0.2800 H   0  0  0  0  0  0  0  0  0  0  0  0
    7.7700   -1.7640   -2.7610 H   0  0  0  0  0  0  0  0  0  0  0  0
    9.0740   -2.9320   -2.3580 H   0  0  0  0  0  0  0  0  0  0  0  0
    5.1690   -1.8240   -2.0030 H   0  0  0  0  0  0  0  0  0  0  0  0
    6.4840   -2.6020    2.4730 H   0  0  0  0  0  0  0  0  0  0  0  0
    5.6120   -1.1000    2.7100 H   0  0  0  0  0  0  0  0  0  0  0  0
    7.3570   -1.1180    2.8250 H   0  0  0  0  0  0  0  0  0  0  0  0
   -1.1790    3.0740   -0.5610 H   0  0  0  0  0  0  0  0  0  0  0  0
   -2.5710    2.8440    2.2130 H   0  0  0  0  0  0  0  0  0  0  0  0
   -3.8520    4.3500   -0.2260 H   0  0  0  0  0  0  0  0  0  0  0  0
   -5.0880    2.0990    1.5810 H   0  0  0  0  0  0  0  0  0  0  0  0
   -3.6250    0.6160    0.6410 H   0  0  0  0  0  0  0  0  0  0  0  0
   -4.6420    1.2760   -2.2330 H   0  0  0  0  0  0  0  0  0  0  0  0
   -4.1050   -0.2810   -1.5520 H   0  0  0  0  0  0  0  0  0  0  0  0
   -5.7120   -0.4010    0.8710 H   0  0  0  0  0  0  0  0  0  0  0  0
   -8.3690    0.2100   -0.6780 H   0  0  0  0  0  0  0  0  0  0  0  0
   -7.9570   -2.0570    1.4490 H   0  0  0  0  0  0  0  0  0  0  0  0
   -8.2900   -3.6450   -0.2910 H   0  0  0  0  0  0  0  0  0  0  0  0
   -7.2310   -1.5290   -2.2830 H   0  0  0  0  0  0  0  0  0  0  0  0
   -5.5550   -3.2490   -2.7530 H   0  0  0  0  0  0  0  0  0  0  0  0
   -5.8620   -4.1380   -1.2380 H   0  0  0  0  0  0  0  0  0  0  0  0
   -7.8450   -3.8840   -3.1960 H   0  0  0  0  0  0  0  0  0  0  0  0
   -9.6600   -1.6620   -1.6870 H   0  0  0  0  0  0  0  0  0  0  0  0
   -9.9770   -0.9950    1.5550 H   0  0  0  0  0  0  0  0  0  0  0  0
   -7.7850    1.4430    1.1110 H   0  0  0  0  0  0  0  0  0  0  0  0
   -5.8080    3.0560   -0.9370 H   0  0  0  0  0  0  0  0  0  0  0  0
   -4.7680    4.2320    2.4110 H   0  0  0  0  0  0  0  0  0  0  0  0
   -2.1060    5.1600    1.8520 H   0  0  0  0  0  0  0  0  0  0  0  0
  1 50  1  0
  1 52  1  0
  1 51  1  0
  2  1  1  1
  2  3  1  0
  2 11  1  0
  2  7  1  0
  3 53  1  0
  3 54  1  0
  3  4  1  0
  4 56  1  0
  4 55  1  0
  4  5  1  0
  5 27  1  0
  5 57  1  1
  5  6  1  0
  6  7  1  0
  6 59  1  0
  6 58  1  0
  7  8  1  0
  7 60  1  1
  8 61  1  0
  8  9  1  0
  8 62  1  0
  9 10  1  0
  9 64  1  0
  9 63  1  0
 10 65  1  6
 10 15  1  0
 10 11  1  0
 11 12  1  0
 11 66  1  1
 12 67  1  0
 12 13  1  0
 12 68  1  0
 13 70  1  0
 13 14  1  0
 13 69  1  0
 14 15  1  0
 14 18  1  0
 14 26  1  1
 15 25  1  6
 15 16  1  0
 16 72  1  0
 16 17  1  0
 16 71  1  0
 17 73  1  0
 17 18  1  0
 17 74  1  0
 18 19  1  0
 18 75  1  1
 19 24  1  0
 19 20  2  0
 20 21  1  0
 20 76  1  0
 21 23  1  0
 21 22  2  0
 23 24  1  0
 24 77  1  0
 24 78  1  0
 25 79  1  0
 26 80  1  0
 26 81  1  0
 26 82  1  0
 27 28  1  0
 28 33  1  0
 28 83  1  6
 28 29  1  0
 29 30  1  0
 29 49  1  0
 29 84  1  1
 30 85  1  6
 30 31  1  0
 30 48  1  0
 31 32  1  0
 31 47  1  0
 31 86  1  1
 32 34  1  0
 32 33  1  0
 32 87  1  1
 34 88  1  0
 34 89  1  0
 34 35  1  0
 35 36  1  0
 36 41  1  0
 36 37  1  0
 36 90  1  1
 37 91  1  6
 37 38  1  0
 37 46  1  0
 38 39  1  0
 38 45  1  0
 38 92  1  1
 39 44  1  0
 39 40  1  0
 39 93  1  1
 40 94  1  6
 40 42  1  0
 40 41  1  0
 42 95  1  0
 42 43  1  0
 42 96  1  0
 43 97  1  0
 44 98  1  0
 45 99  1  0
 46100  1  0
 47101  1  0
 48102  1  0
 49103  1  0
M  END
>  <id>  (792) 
904

>  <scaffolds>  (792) 
['C1CCOCC1', 'C1CCC(C2CCCC2)CC1', 'C1CCCCC1', 'C1CCC2C(C1)CCC1C3CCCC3CCC21', 'C1CCC2CCCCC2C1']

>  <name>  (792) 
Uzarin

>  <formula>  (792) 
C35H54O14

>  <SMILES>  (792) 
CC12CCC(CC1CCC3C2CCC4(C3(CCC4C5=CC(=O)OC5)O)C)OC6C(C(C(C(O6)COC7C(C(C(C(O7)CO)O)O)O)O)O)O

>  <ChEMBL_id>  (792) 
SCHEMBL702464

>  <ZINC_id>  (792) 


>  <PubChem_id>  (792) 


>  <DrugBank_id>  (792) 


>  <CAS_no>  (792) 
20231-81-6

>  <references>  (792) 
[{'journal': {'name': 'Journal of Ethnopharmacology', 'id': 7}, 'title': 'Xysmalobium undulatum (uzara) - Review of an antidiarrhoeal traditional medicine', 'year': 2014, 'start_page': None, 'volume': None, 'issue': None, 'doi': '10.1016/j.jep.2014.08.016', 'isbn': '', 'despositor': {'code': 'BND', 'first_name': "Bakary N'tji", 'last_name': 'Diallo', 'id': 26}, 'refauthors_set': [{'author': {'first_name': 'Vermaak', 'initials': 'VI', 'last_name': 'Ilze', 'id': 1002}, 'first_author': True, 'id': 1584}], 'id': 483}]

>  <classifications>  (792) 
[{'classification': 'Steroids', 'id': 879}, {'classification': 'Steroids and steroid derivatives (Classyfire)', 'id': 942}]

>  <molecular_mass>  (792) 
698.8

$$$$
SANC00905_minRM1.pdb
     RDKit          3D

101107  0  0  1  0  0  0  0  0999 V2000
    2.4650   -0.6420    2.7500 C   0  0  0  0  0  0  0  0  0  0  0  0
    2.2450    0.0880    1.4230 C   0  0  2  0  0  0  0  0  0  0  0  0
    1.5700    1.4470    1.6800 C   0  0  0  0  0  0  0  0  0  0  0  0
    0.0970    1.3290    2.0370 C   0  0  0  0  0  0  0  0  0  0  0  0
   -0.6010    0.6000    0.8880 C   0  0  1  0  0  0  0  0  0  0  0  0
   -0.0750   -0.8370    0.8250 C   0  0  0  0  0  0  0  0  0  0  0  0
    1.3980   -0.8150    0.5740 C   0  0  0  0  0  0  0  0  0  0  0  0
    1.9230   -1.6480   -0.3250 C   0  0  0  0  0  0  0  0  0  0  0  0
    3.3600   -1.7040   -0.6880 C   0  0  0  0  0  0  0  0  0  0  0  0
    4.2620   -0.9320    0.2760 C   0  0  2  0  0  0  0  0  0  0  0  0
    3.5910    0.3690    0.7050 C   0  0  2  0  0  0  0  0  0  0  0  0
    4.5440    1.1510    1.6060 C   0  0  0  0  0  0  0  0  0  0  0  0
    5.8210    1.4870    0.8550 C   0  0  0  0  0  0  0  0  0  0  0  0
    6.5850    0.2290    0.4250 C   0  0  1  0  0  0  0  0  0  0  0  0
    5.6410   -0.6970   -0.3860 C   0  0  2  0  0  0  0  0  0  0  0  0
    5.5920   -0.0240   -1.7730 C   0  0  0  0  0  0  0  0  0  0  0  0
    6.9510    0.6470   -1.9690 C   0  0  0  0  0  0  0  0  0  0  0  0
    7.6590    0.6740   -0.6040 C   0  0  2  0  0  0  0  0  0  0  0  0
    8.8750   -0.1700   -0.6130 C   0  0  0  0  0  0  0  0  0  0  0  0
    9.1130   -1.3580   -1.1820 C   0  0  0  0  0  0  0  0  0  0  0  0
   10.5260   -1.7080   -0.9160 C   0  0  0  0  0  0  0  0  0  0  0  0
   11.2080   -2.6610   -1.2130 O   0  0  0  0  0  0  0  0  0  0  0  0
   11.1160   -0.7000   -0.1810 O   0  0  0  0  0  0  0  0  0  0  0  0
   10.1490    0.3120    0.0500 C   0  0  0  0  0  0  0  0  0  0  0  0
    6.2470   -1.9330   -0.6320 O   0  0  0  0  0  0  0  0  0  0  0  0
    7.1930   -0.4480    1.6410 C   0  0  0  0  0  0  0  0  0  0  0  0
   -1.9780    0.5620    1.2140 O   0  0  0  0  0  0  0  0  0  0  0  0
   -2.8470    0.8160    0.1480 C   0  0  1  0  0  0  0  0  0  0  0  0
   -4.2810    0.5320    0.6920 C   0  0  1  0  0  0  0  0  0  0  0  0
   -4.8920    1.8100    1.3100 C   0  0  2  0  0  0  0  0  0  0  0  0
   -4.8700    2.9910    0.3000 C   0  0  1  0  0  0  0  0  0  0  0  0
   -3.7230    2.8260   -0.7320 C   0  0  2  0  0  0  0  0  0  0  0  0
   -2.6350    2.1850   -0.1200 O   0  0  0  0  0  0  0  0  0  0  0  0
   -3.1400    4.1940   -1.1630 C   0  0  0  0  0  0  0  0  0  0  0  0
   -4.2130    4.8710   -1.7520 O   0  0  0  0  0  0  0  0  0  0  0  0
   -6.1050    2.9320   -0.3450 O   0  0  0  0  0  0  0  0  0  0  0  0
   -4.2400    2.1480    2.4870 O   0  0  0  0  0  0  0  0  0  0  0  0
   -4.9650    0.1230   -0.4680 O   0  0  0  0  0  0  0  0  0  0  0  0
   -6.3140   -0.2280   -0.3520 C   0  0  1  0  0  0  0  0  0  0  0  0
   -6.6790   -0.7790   -1.7680 C   0  0  1  0  0  0  0  0  0  0  0  0
   -8.0760   -1.4380   -1.6930 C   0  0  2  0  0  0  0  0  0  0  0  0
   -8.0880   -2.4770   -0.5390 C   0  0  1  0  0  0  0  0  0  0  0  0
   -7.6220   -1.8100    0.7730 C   0  0  2  0  0  0  0  0  0  0  0  0
   -6.3400   -1.2680    0.5960 O   0  0  0  0  0  0  0  0  0  0  0  0
   -7.4590   -2.8570    1.9000 C   0  0  0  0  0  0  0  0  0  0  0  0
   -6.5550   -3.8530    1.5530 O   0  0  0  0  0  0  0  0  0  0  0  0
   -9.3560   -3.0310   -0.4050 O   0  0  0  0  0  0  0  0  0  0  0  0
   -8.2330   -2.0850   -2.9170 O   0  0  0  0  0  0  0  0  0  0  0  0
   -6.8210    0.2950   -2.6410 O   0  0  0  0  0  0  0  0  0  0  0  0
    2.9180   -0.0080    3.5250 H   0  0  0  0  0  0  0  0  0  0  0  0
    3.1210   -1.5180    2.6310 H   0  0  0  0  0  0  0  0  0  0  0  0
    1.5270   -1.0150    3.1870 H   0  0  0  0  0  0  0  0  0  0  0  0
    2.1020    1.9950    2.4870 H   0  0  0  0  0  0  0  0  0  0  0  0
    1.6760    2.1080    0.7920 H   0  0  0  0  0  0  0  0  0  0  0  0
   -0.0560    0.8050    3.0020 H   0  0  0  0  0  0  0  0  0  0  0  0
   -0.3510    2.3320    2.1960 H   0  0  0  0  0  0  0  0  0  0  0  0
   -0.3910    1.1200   -0.0850 H   0  0  0  0  0  0  0  0  0  0  0  0
   -0.6260   -1.4070    0.0460 H   0  0  0  0  0  0  0  0  0  0  0  0
   -0.2990   -1.3900    1.7630 H   0  0  0  0  0  0  0  0  0  0  0  0
    1.2890   -2.3400   -0.8930 H   0  0  0  0  0  0  0  0  0  0  0  0
    3.4350   -1.3300   -1.7320 H   0  0  0  0  0  0  0  0  0  0  0  0
    3.6980   -2.7620   -0.7540 H   0  0  0  0  0  0  0  0  0  0  0  0
    4.4060   -1.5590    1.1990 H   0  0  0  0  0  0  0  0  0  0  0  0
    3.3680    0.9750   -0.2120 H   0  0  0  0  0  0  0  0  0  0  0  0
    4.7790    0.5970    2.5390 H   0  0  0  0  0  0  0  0  0  0  0  0
    4.0700    2.0910    1.9640 H   0  0  0  0  0  0  0  0  0  0  0  0
    6.4700    2.1330    1.4870 H   0  0  0  0  0  0  0  0  0  0  0  0
    5.5830    2.1280   -0.0210 H   0  0  0  0  0  0  0  0  0  0  0  0
    5.3820   -0.7460   -2.5890 H   0  0  0  0  0  0  0  0  0  0  0  0
    4.7650    0.7120   -1.8320 H   0  0  0  0  0  0  0  0  0  0  0  0
    6.8370    1.6720   -2.3760 H   0  0  0  0  0  0  0  0  0  0  0  0
    7.5510    0.1240   -2.7420 H   0  0  0  0  0  0  0  0  0  0  0  0
    7.9970    1.7180   -0.3730 H   0  0  0  0  0  0  0  0  0  0  0  0
    8.4560   -2.0110   -1.7490 H   0  0  0  0  0  0  0  0  0  0  0  0
   10.5270    1.2630   -0.3800 H   0  0  0  0  0  0  0  0  0  0  0  0
   10.0430    0.4550    1.1450 H   0  0  0  0  0  0  0  0  0  0  0  0
    6.2590   -2.4450    0.1820 H   0  0  0  0  0  0  0  0  0  0  0  0
    7.8700   -1.2780    1.3870 H   0  0  0  0  0  0  0  0  0  0  0  0
    6.4350   -0.8700    2.3160 H   0  0  0  0  0  0  0  0  0  0  0  0
    7.7920    0.2500    2.2450 H   0  0  0  0  0  0  0  0  0  0  0  0
   -2.6040    0.2070   -0.7700 H   0  0  0  0  0  0  0  0  0  0  0  0
   -4.2490   -0.2850    1.4620 H   0  0  0  0  0  0  0  0  0  0  0  0
   -5.9360    1.6140    1.6750 H   0  0  0  0  0  0  0  0  0  0  0  0
   -4.7540    3.9580    0.8630 H   0  0  0  0  0  0  0  0  0  0  0  0
   -4.0790    2.2620   -1.6370 H   0  0  0  0  0  0  0  0  0  0  0  0
   -2.2910    4.0480   -1.8710 H   0  0  0  0  0  0  0  0  0  0  0  0
   -2.7190    4.7520   -0.2940 H   0  0  0  0  0  0  0  0  0  0  0  0
   -3.8760    5.7060   -2.0890 H   0  0  0  0  0  0  0  0  0  0  0  0
   -6.1790    3.6990   -0.9220 H   0  0  0  0  0  0  0  0  0  0  0  0
   -3.3100    2.3270    2.3060 H   0  0  0  0  0  0  0  0  0  0  0  0
   -6.9760    0.6340   -0.0580 H   0  0  0  0  0  0  0  0  0  0  0  0
   -5.9130   -1.5280   -2.1110 H   0  0  0  0  0  0  0  0  0  0  0  0
   -8.8690   -0.6550   -1.5330 H   0  0  0  0  0  0  0  0  0  0  0  0
   -7.4430   -3.3600   -0.7950 H   0  0  0  0  0  0  0  0  0  0  0  0
   -8.3550   -1.0230    1.1010 H   0  0  0  0  0  0  0  0  0  0  0  0
   -8.4190   -3.3930    2.0680 H   0  0  0  0  0  0  0  0  0  0  0  0
   -7.1960   -2.3500    2.8580 H   0  0  0  0  0  0  0  0  0  0  0  0
   -5.6760   -3.4630    1.5040 H   0  0  0  0  0  0  0  0  0  0  0  0
   -9.9700   -2.3420   -0.1260 H   0  0  0  0  0  0  0  0  0  0  0  0
   -9.0880   -2.5280   -2.9050 H   0  0  0  0  0  0  0  0  0  0  0  0
   -5.9390    0.6310   -2.8290 H   0  0  0  0  0  0  0  0  0  0  0  0
  1 51  1  0
  1 52  1  0
  1 50  1  0
  2  1  1  1
  2  7  1  0
  2 11  1  0
  2  3  1  0
  3 54  1  0
  3  4  1  0
  3 53  1  0
  4  5  1  0
  4 56  1  0
  4 55  1  0
  5 57  1  6
  5  6  1  0
  5 27  1  0
  6 58  1  0
  6  7  1  0
  6 59  1  0
  7  8  2  0
  8 60  1  0
  8  9  1  0
  9 61  1  0
  9 62  1  0
  9 10  1  0
 10 15  1  0
 10 11  1  0
 10 63  1  1
 11 64  1  6
 11 12  1  0
 12 13  1  0
 12 66  1  0
 12 65  1  0
 13 68  1  0
 13 14  1  0
 13 67  1  0
 14 18  1  0
 14 15  1  0
 14 26  1  1
 15 16  1  0
 15 25  1  6
 16 69  1  0
 16 17  1  0
 16 70  1  0
 17 72  1  0
 17 71  1  0
 17 18  1  0
 18 19  1  0
 18 73  1  1
 19 20  2  0
 19 24  1  0
 20 74  1  0
 20 21  1  0
 21 22  2  0
 21 23  1  0
 23 24  1  0
 24 75  1  0
 24 76  1  0
 25 77  1  0
 26 78  1  0
 26 80  1  0
 26 79  1  0
 27 28  1  0
 28 81  1  6
 28 33  1  0
 28 29  1  0
 29 38  1  0
 29 30  1  0
 29 82  1  1
 30 31  1  0
 30 83  1  1
 30 37  1  0
 31 32  1  0
 31 36  1  0
 31 84  1  1
 32 85  1  6
 32 34  1  0
 32 33  1  0
 34 86  1  0
 34 35  1  0
 34 87  1  0
 35 88  1  0
 36 89  1  0
 37 90  1  0
 38 39  1  0
 39 40  1  0
 39 91  1  1
 39 44  1  0
 40 49  1  0
 40 92  1  6
 40 41  1  0
 41 48  1  0
 41 93  1  1
 41 42  1  0
 42 94  1  6
 42 47  1  0
 42 43  1  0
 43 44  1  0
 43 95  1  1
 43 45  1  0
 45 46  1  0
 45 96  1  0
 45 97  1  0
 46 98  1  0
 47 99  1  0
 48100  1  0
 49101  1  0
M  END
>  <id>  (793) 
905

>  <scaffolds>  (793) 
['C1=C2CCCCC2C2CCC3CCCC3C2C1', 'C1=CCCCC1', 'C1=CCC2CCCCC2C1', 'C1CCOCC1', 'C1=C2CC(OC3CCCCO3)CCC2C2CCC3CCCC3C2C1', 'C1CCCCC1', 'C1=C2CCCCC2CCC1', 'C1CCC(OC2CCCOC2)OC1']

>  <name>  (793) 
Xysmalorin

>  <formula>  (793) 
C35H52O14

>  <SMILES>  (793) 
C[C@]12CC[C@@H](CC1=CC[C@@H]3[C@@H]2CC[C@]4([C@@]3(CC[C@@H]4C5=CC(=O)OC5)O)C)O[C@H]6[C@@H]([C@H]([C@@H]([C@H](O6)CO)O)O)O[C@H]7[C@@H]([C@H]([C@@H]([C@H](O7)CO)O)O)O

>  <ChEMBL_id>  (793) 


>  <ZINC_id>  (793) 
ZINC95803389

>  <PubChem_id>  (793) 


>  <DrugBank_id>  (793) 


>  <CAS_no>  (793) 
31387-88-9

>  <references>  (793) 
[{'journal': {'name': 'Journal of Ethnopharmacology', 'id': 7}, 'title': 'Xysmalobium undulatum (uzara) - Review of an antidiarrhoeal traditional medicine', 'year': 2014, 'start_page': None, 'volume': None, 'issue': None, 'doi': '10.1016/j.jep.2014.08.016', 'isbn': '', 'despositor': {'code': 'BND', 'first_name': "Bakary N'tji", 'last_name': 'Diallo', 'id': 26}, 'refauthors_set': [{'author': {'first_name': 'Vermaak', 'initials': 'VI', 'last_name': 'Ilze', 'id': 1002}, 'first_author': True, 'id': 1584}], 'id': 483}]

>  <classifications>  (793) 
[{'classification': 'Steroids', 'id': 879}, {'classification': 'Steroids and steroid derivatives (Classyfire)', 'id': 942}]

>  <molecular_mass>  (793) 
696.8

$$$$
SANC00906_minRM1.pdb
     RDKit          3D

 61 65  0  0  1  0  0  0  0  0999 V2000
   -3.0100   -0.9630   -1.4960 C   0  0  0  0  0  0  0  0  0  0  0  0
   -3.0180   -0.4240   -0.0660 C   0  0  2  0  0  0  0  0  0  0  0  0
   -3.8060   -1.3920    0.8440 C   0  0  0  0  0  0  0  0  0  0  0  0
   -5.1600   -0.8660    1.3060 C   0  0  0  0  0  0  0  0  0  0  0  0
   -5.9330   -0.2020    0.1640 C   0  0  1  0  0  0  0  0  0  0  0  0
   -5.1220    0.9380   -0.4790 C   0  0  0  0  0  0  0  0  0  0  0  0
   -3.6680    0.9670   -0.0060 C   0  0  2  0  0  0  0  0  0  0  0  0
   -2.8840    1.9910   -0.8240 C   0  0  0  0  0  0  0  0  0  0  0  0
   -1.4590    2.0910   -0.2960 C   0  0  0  0  0  0  0  0  0  0  0  0
   -0.7760    0.7250   -0.3790 C   0  0  2  0  0  0  0  0  0  0  0  0
   -1.5590   -0.2980    0.4480 C   0  0  2  0  0  0  0  0  0  0  0  0
   -0.8250   -1.6370    0.3900 C   0  0  0  0  0  0  0  0  0  0  0  0
    0.5570   -1.4930    1.0090 C   0  0  0  0  0  0  0  0  0  0  0  0
    1.4370   -0.5150    0.2220 C   0  0  1  0  0  0  0  0  0  0  0  0
    0.6990    0.8420    0.0620 C   0  0  2  0  0  0  0  0  0  0  0  0
    0.9170    1.5260    1.4250 C   0  0  0  0  0  0  0  0  0  0  0  0
    2.2990    1.0750    1.9000 C   0  0  0  0  0  0  0  0  0  0  0  0
    2.6750   -0.1880    1.1070 C   0  0  2  0  0  0  0  0  0  0  0  0
    3.9390   -0.0700    0.3430 C   0  0  0  0  0  0  0  0  0  0  0  0
    4.7210   -1.0810   -0.0670 C   0  0  0  0  0  0  0  0  0  0  0  0
    5.8700   -0.5020   -0.7950 C   0  0  0  0  0  0  0  0  0  0  0  0
    6.8270   -0.9910   -1.3450 O   0  0  0  0  0  0  0  0  0  0  0  0
    5.7500    0.8720   -0.8050 O   0  0  0  0  0  0  0  0  0  0  0  0
    4.5790    1.2300   -0.0890 C   0  0  0  0  0  0  0  0  0  0  0  0
    1.2760    1.6130   -0.9530 O   0  0  0  0  0  0  0  0  0  0  0  0
    1.8100   -1.1290   -1.1180 C   0  0  0  0  0  0  0  0  0  0  0  0
   -6.2090   -1.2300   -0.7440 O   0  0  0  0  0  0  0  0  0  0  0  0
   -3.9980   -0.9250   -1.9760 H   0  0  0  0  0  0  0  0  0  0  0  0
   -2.3140   -0.4180   -2.1530 H   0  0  0  0  0  0  0  0  0  0  0  0
   -2.7070   -2.0200   -1.5520 H   0  0  0  0  0  0  0  0  0  0  0  0
   -3.2260   -1.6610    1.7540 H   0  0  0  0  0  0  0  0  0  0  0  0
   -3.9600   -2.3670    0.3330 H   0  0  0  0  0  0  0  0  0  0  0  0
   -5.0520   -0.1450    2.1440 H   0  0  0  0  0  0  0  0  0  0  0  0
   -5.7600   -1.6950    1.7410 H   0  0  0  0  0  0  0  0  0  0  0  0
   -6.8990    0.2170    0.5690 H   0  0  0  0  0  0  0  0  0  0  0  0
   -5.1770    0.8970   -1.5870 H   0  0  0  0  0  0  0  0  0  0  0  0
   -5.6000    1.9120   -0.2370 H   0  0  0  0  0  0  0  0  0  0  0  0
   -3.6560    1.3140    1.0630 H   0  0  0  0  0  0  0  0  0  0  0  0
   -2.8900    1.7530   -1.9080 H   0  0  0  0  0  0  0  0  0  0  0  0
   -3.3780    2.9860   -0.7710 H   0  0  0  0  0  0  0  0  0  0  0  0
   -1.4710    2.4820    0.7430 H   0  0  0  0  0  0  0  0  0  0  0  0
   -0.8930    2.8530   -0.8720 H   0  0  0  0  0  0  0  0  0  0  0  0
   -0.7870    0.3920   -1.4550 H   0  0  0  0  0  0  0  0  0  0  0  0
   -1.6010    0.0440    1.5150 H   0  0  0  0  0  0  0  0  0  0  0  0
   -1.3870   -2.4320    0.9240 H   0  0  0  0  0  0  0  0  0  0  0  0
   -0.7470   -2.0210   -0.6480 H   0  0  0  0  0  0  0  0  0  0  0  0
    1.0510   -2.4880    1.0660 H   0  0  0  0  0  0  0  0  0  0  0  0
    0.4630   -1.1800    2.0710 H   0  0  0  0  0  0  0  0  0  0  0  0
    0.1310    1.2430    2.1510 H   0  0  0  0  0  0  0  0  0  0  0  0
    0.8450    2.6300    1.3570 H   0  0  0  0  0  0  0  0  0  0  0  0
    2.2970    0.8670    2.9900 H   0  0  0  0  0  0  0  0  0  0  0  0
    3.0390    1.8920    1.8020 H   0  0  0  0  0  0  0  0  0  0  0  0
    2.8570   -1.0280    1.8290 H   0  0  0  0  0  0  0  0  0  0  0  0
    4.6050   -2.1500    0.0690 H   0  0  0  0  0  0  0  0  0  0  0  0
    3.9250    1.8320   -0.7590 H   0  0  0  0  0  0  0  0  0  0  0  0
    4.8840    1.8750    0.7610 H   0  0  0  0  0  0  0  0  0  0  0  0
    2.1990    1.7780   -0.7320 H   0  0  0  0  0  0  0  0  0  0  0  0
    2.4810   -0.4980   -1.7180 H   0  0  0  0  0  0  0  0  0  0  0  0
    2.3150   -2.0990   -1.0020 H   0  0  0  0  0  0  0  0  0  0  0  0
    0.9290   -1.3060   -1.7520 H   0  0  0  0  0  0  0  0  0  0  0  0
   -6.7590   -0.8640   -1.4430 H   0  0  0  0  0  0  0  0  0  0  0  0
  1 29  1  0
  1 28  1  0
  1 30  1  0
  2  1  1  6
  2  7  1  0
  2 11  1  0
  2  3  1  0
  3 32  1  0
  3  4  1  0
  3 31  1  0
  4  5  1  0
  4 34  1  0
  4 33  1  0
  5 27  1  0
  5  6  1  0
  5 35  1  1
  6 36  1  0
  6 37  1  0
  6  7  1  0
  7  8  1  0
  7 38  1  1
  8 39  1  0
  8 40  1  0
  8  9  1  0
  9 42  1  0
  9 10  1  0
  9 41  1  0
 10 43  1  6
 10 15  1  0
 10 11  1  0
 11 12  1  0
 11 44  1  1
 12 46  1  0
 12 45  1  0
 12 13  1  0
 13 14  1  0
 13 47  1  0
 13 48  1  0
 14 26  1  6
 14 15  1  0
 14 18  1  0
 15 25  1  6
 15 16  1  0
 16 50  1  0
 16 17  1  0
 16 49  1  0
 17 18  1  0
 17 52  1  0
 17 51  1  0
 18 19  1  0
 18 53  1  1
 19 24  1  0
 19 20  2  0
 20 21  1  0
 20 54  1  0
 21 22  2  0
 21 23  1  0
 23 24  1  0
 24 55  1  0
 24 56  1  0
 25 57  1  0
 26 60  1  0
 26 58  1  0
 26 59  1  0
 27 61  1  0
M  END
>  <id>  (794) 
906

>  <scaffolds>  (794) 
['C1CCC(C2CCCC2)CC1', 'C1CCCCC1', 'C1CCC2C(C1)CCC1C3CCCC3CCC21', 'C1CCC2CCCCC2C1']

>  <name>  (794) 
Uzarigenin

>  <formula>  (794) 
C23H34O4

>  <SMILES>  (794) 
C[C@]12CC[C@@H](C[C@@H]1CC[C@@H]3[C@@H]2CC[C@]4([C@@]3(CC[C@@H]4C5=CC(=O)OC5)O)C)O

>  <ChEMBL_id>  (794) 
SCHEMBL1152953

>  <ZINC_id>  (794) 
ZINC4073972

>  <PubChem_id>  (794) 


>  <DrugBank_id>  (794) 


>  <CAS_no>  (794) 
466-09-1

>  <references>  (794) 
[{'journal': {'name': 'Journal of Ethnopharmacology', 'id': 7}, 'title': 'Xysmalobium undulatum (uzara) - Review of an antidiarrhoeal traditional medicine', 'year': 2014, 'start_page': None, 'volume': None, 'issue': None, 'doi': '10.1016/j.jep.2014.08.016', 'isbn': '', 'despositor': {'code': 'BND', 'first_name': "Bakary N'tji", 'last_name': 'Diallo', 'id': 26}, 'refauthors_set': [{'author': {'first_name': 'Vermaak', 'initials': 'VI', 'last_name': 'Ilze', 'id': 1002}, 'first_author': True, 'id': 1584}], 'id': 483}]

>  <classifications>  (794) 
[{'classification': 'Cardenolides', 'id': 911}, {'classification': 'Steroids and steroid derivatives (Classyfire)', 'id': 942}]

>  <molecular_mass>  (794) 
374.5

$$$$
SANC00907_minRM1.pdb
     RDKit          3D

 59 63  0  0  1  0  0  0  0  0999 V2000
   -3.5800   -1.5620    0.9500 C   0  0  0  0  0  0  0  0  0  0  0  0
   -2.8630   -0.2580    0.5700 C   0  0  2  0  0  0  0  0  0  0  0  0
   -3.3090    0.8520    1.5320 C   0  0  0  0  0  0  0  0  0  0  0  0
   -4.7620    1.2470    1.3190 C   0  0  0  0  0  0  0  0  0  0  0  0
   -4.9200    1.7510   -0.1190 C   0  0  1  0  0  0  0  0  0  0  0  0
   -4.5800    0.6240   -1.1030 C   0  0  0  0  0  0  0  0  0  0  0  0
   -3.2200    0.0630   -0.8490 C   0  0  0  0  0  0  0  0  0  0  0  0
   -2.4180   -0.2270   -1.8770 C   0  0  0  0  0  0  0  0  0  0  0  0
   -1.0880   -0.8780   -1.7470 C   0  0  0  0  0  0  0  0  0  0  0  0
   -0.8950   -1.4920   -0.3630 C   0  0  2  0  0  0  0  0  0  0  0  0
   -1.3390   -0.4900    0.7030 C   0  0  1  0  0  0  0  0  0  0  0  0
   -0.5240    0.7990    0.5700 C   0  0  0  0  0  0  0  0  0  0  0  0
    0.9000    0.5520    0.0720 C   0  0  0  0  0  0  0  0  0  0  0  0
    1.4430   -0.8000    0.5290 C   0  0  1  0  0  0  0  0  0  0  0  0
    0.5530   -1.9440   -0.0530 C   0  0  2  0  0  0  0  0  0  0  0  0
    1.2990   -2.4990   -1.2950 C   0  0  0  0  0  0  0  0  0  0  0  0
    2.5190   -1.6050   -1.4990 C   0  0  0  0  0  0  0  0  0  0  0  0
    2.8300   -1.0820   -0.0950 C   0  0  1  0  0  0  0  0  0  0  0  0
    3.7400    0.0790   -0.0670 C   0  0  0  0  0  0  0  0  0  0  0  0
    4.4350    0.5500    0.9790 C   0  0  0  0  0  0  0  0  0  0  0  0
    5.2280    1.7060    0.5120 C   0  0  0  0  0  0  0  0  0  0  0  0
    5.9940    2.4580    1.0670 O   0  0  0  0  0  0  0  0  0  0  0  0
    4.9940    1.9010   -0.8330 O   0  0  0  0  0  0  0  0  0  0  0  0
    4.0710    0.9190   -1.2800 C   0  0  0  0  0  0  0  0  0  0  0  0
    0.5150   -2.9260    0.9430 O   0  0  0  0  0  0  0  0  0  0  0  0
    1.5310   -0.8030    2.0520 C   0  0  0  0  0  0  0  0  0  0  0  0
   -6.1990    2.2510   -0.3520 O   0  0  0  0  0  0  0  0  0  0  0  0
   -3.2330   -2.4120    0.3400 H   0  0  0  0  0  0  0  0  0  0  0  0
   -4.6680   -1.5140    0.8130 H   0  0  0  0  0  0  0  0  0  0  0  0
   -3.4110   -1.8420    2.0000 H   0  0  0  0  0  0  0  0  0  0  0  0
   -2.6890    1.7660    1.4270 H   0  0  0  0  0  0  0  0  0  0  0  0
   -3.1440    0.5320    2.5830 H   0  0  0  0  0  0  0  0  0  0  0  0
   -5.4570    0.4110    1.5360 H   0  0  0  0  0  0  0  0  0  0  0  0
   -5.0610    2.0380    2.0390 H   0  0  0  0  0  0  0  0  0  0  0  0
   -4.2690    2.6450   -0.3050 H   0  0  0  0  0  0  0  0  0  0  0  0
   -4.6870    1.0020   -2.1430 H   0  0  0  0  0  0  0  0  0  0  0  0
   -5.3260   -0.1990   -1.0410 H   0  0  0  0  0  0  0  0  0  0  0  0
   -2.7070    0.0120   -2.9070 H   0  0  0  0  0  0  0  0  0  0  0  0
   -0.9720   -1.6630   -2.5300 H   0  0  0  0  0  0  0  0  0  0  0  0
   -0.2920   -0.1380   -1.9960 H   0  0  0  0  0  0  0  0  0  0  0  0
   -1.5680   -2.3950   -0.3190 H   0  0  0  0  0  0  0  0  0  0  0  0
   -1.1340   -0.9280    1.7190 H   0  0  0  0  0  0  0  0  0  0  0  0
   -0.4860    1.3230    1.5500 H   0  0  0  0  0  0  0  0  0  0  0  0
   -1.0220    1.5180   -0.1150 H   0  0  0  0  0  0  0  0  0  0  0  0
    0.9270    0.6270   -1.0390 H   0  0  0  0  0  0  0  0  0  0  0  0
    1.5630    1.3780    0.4100 H   0  0  0  0  0  0  0  0  0  0  0  0
    0.6630   -2.5500   -2.2010 H   0  0  0  0  0  0  0  0  0  0  0  0
    1.6190   -3.5520   -1.1460 H   0  0  0  0  0  0  0  0  0  0  0  0
    3.3760   -2.1470   -1.9430 H   0  0  0  0  0  0  0  0  0  0  0  0
    2.2990   -0.7960   -2.2240 H   0  0  0  0  0  0  0  0  0  0  0  0
    3.3270   -1.9080    0.4820 H   0  0  0  0  0  0  0  0  0  0  0  0
    4.4740    0.1990    2.0040 H   0  0  0  0  0  0  0  0  0  0  0  0
    4.5510    0.3340   -2.0920 H   0  0  0  0  0  0  0  0  0  0  0  0
    3.1900    1.4430   -1.7060 H   0  0  0  0  0  0  0  0  0  0  0  0
    0.0080   -3.6750    0.6160 H   0  0  0  0  0  0  0  0  0  0  0  0
    2.0730   -1.6720    2.4540 H   0  0  0  0  0  0  0  0  0  0  0  0
    2.0450    0.0900    2.4350 H   0  0  0  0  0  0  0  0  0  0  0  0
    0.5340   -0.8260    2.5210 H   0  0  0  0  0  0  0  0  0  0  0  0
   -6.8390    1.5500   -0.1930 H   0  0  0  0  0  0  0  0  0  0  0  0
  1 28  1  0
  1 29  1  0
  1 30  1  0
  2  1  1  1
  2  7  1  0
  2 11  1  0
  2  3  1  0
  3  4  1  0
  3 31  1  0
  3 32  1  0
  4  5  1  0
  4 33  1  0
  4 34  1  0
  5  6  1  0
  5 27  1  0
  5 35  1  6
  6 36  1  0
  6 37  1  0
  6  7  1  0
  7  8  2  0
  8 38  1  0
  8  9  1  0
  9 39  1  0
  9 40  1  0
  9 10  1  0
 10 41  1  6
 10 15  1  0
 10 11  1  0
 11 12  1  0
 11 42  1  1
 12 44  1  0
 12 13  1  0
 12 43  1  0
 13 45  1  0
 13 46  1  0
 13 14  1  0
 14 18  1  0
 14 15  1  0
 14 26  1  1
 15 16  1  0
 15 25  1  1
 16 47  1  0
 16 17  1  0
 16 48  1  0
 17 50  1  0
 17 49  1  0
 17 18  1  0
 18 19  1  0
 18 51  1  1
 19 24  1  0
 19 20  2  0
 20 21  1  0
 20 52  1  0
 21 23  1  0
 21 22  2  0
 23 24  1  0
 24 53  1  0
 24 54  1  0
 25 55  1  0
 26 57  1  0
 26 56  1  0
 26 58  1  0
 27 59  1  0
M  END
>  <id>  (795) 
907

>  <scaffolds>  (795) 
['C1=C2CCCCC2C2CCC3CCCC3C2C1', 'C1=CCCCC1', 'C1=CCC2CCCCC2C1', 'C1CCCCC1', 'C1=C2CCCCC2CCC1']

>  <name>  (795) 
Xysmalogenin

>  <formula>  (795) 
C23H32O4

>  <SMILES>  (795) 
C[C@]12CC[C@@H](CC1=CCC3C2CC[C@]4([C@@]3(CCC4C5=CC(=O)OC5)O)C)O

>  <ChEMBL_id>  (795) 


>  <ZINC_id>  (795) 


>  <PubChem_id>  (795) 


>  <DrugBank_id>  (795) 


>  <CAS_no>  (795) 
508-92-9

>  <references>  (795) 
[{'journal': {'name': 'Journal of Ethnopharmacology', 'id': 7}, 'title': 'Xysmalobium undulatum (uzara) - Review of an antidiarrhoeal traditional medicine', 'year': 2014, 'start_page': None, 'volume': None, 'issue': None, 'doi': '10.1016/j.jep.2014.08.016', 'isbn': '', 'despositor': {'code': 'BND', 'first_name': "Bakary N'tji", 'last_name': 'Diallo', 'id': 26}, 'refauthors_set': [{'author': {'first_name': 'Vermaak', 'initials': 'VI', 'last_name': 'Ilze', 'id': 1002}, 'first_author': True, 'id': 1584}], 'id': 483}]

>  <classifications>  (795) 
[{'classification': 'Steroids', 'id': 879}, {'classification': 'Steroids and steroid derivatives (Classyfire)', 'id': 942}]

>  <molecular_mass>  (795) 
372.5

$$$$
SANC00908_minRM1.pdb
     RDKit          3D

 43 43  0  0  0  0  0  0  0  0999 V2000
    3.5850    3.4370    0.8100 C   0  0  0  0  0  0  0  0  0  0  0  0
    2.6960    2.9520   -0.1700 O   0  0  0  0  0  0  0  0  0  0  0  0
    2.5380    1.5940   -0.1120 C   0  0  0  0  0  0  0  0  0  0  0  0
    1.3590    1.0820    0.4170 C   0  0  0  0  0  0  0  0  0  0  0  0
    1.1310   -0.2950    0.3720 C   0  0  0  0  0  0  0  0  0  0  0  0
    2.0680   -1.1610   -0.1850 C   0  0  0  0  0  0  0  0  0  0  0  0
    3.2530   -0.6340   -0.6880 C   0  0  0  0  0  0  0  0  0  0  0  0
    3.5040    0.7430   -0.6710 C   0  0  0  0  0  0  0  0  0  0  0  0
    4.6280    1.3240   -1.1350 O   0  0  0  0  0  0  0  0  0  0  0  0
    4.1660   -1.4440   -1.3160 O   0  0  0  0  0  0  0  0  0  0  0  0
    4.8820   -2.2540   -0.4110 C   0  0  0  0  0  0  0  0  0  0  0  0
   -0.1320   -0.7860    0.9440 C   0  0  0  0  0  0  0  0  0  0  0  0
   -0.8420   -0.1850    1.7340 O   0  0  0  0  0  0  0  0  0  0  0  0
   -0.4520   -2.0370    0.5290 O   0  0  0  0  0  0  0  0  0  0  0  0
   -1.6900   -2.6110    0.8960 C   0  0  0  0  0  0  0  0  0  0  0  0
   -2.5270   -2.7800   -0.3730 C   0  0  0  0  0  0  0  0  0  0  0  0
   -2.9070   -1.4570   -1.0280 C   0  0  0  0  0  0  0  0  0  0  0  0
   -3.8380   -0.6230   -0.1340 C   0  0  0  0  0  0  0  0  0  0  0  0
   -4.4000    0.4260   -0.9900 N   0  0  0  0  0  0  0  0  0  0  0  0
   -5.1030    1.3980   -0.4390 C   0  0  0  0  0  0  0  0  0  0  0  0
   -5.5020    2.4480   -1.2840 N   0  0  0  0  0  4  0  0  0  0  0  0
   -5.5150    1.5200    0.8970 N   0  0  0  0  0  0  0  0  0  0  0  0
    3.2500    3.2170    1.8380 H   0  0  0  0  0  0  0  0  0  0  0  0
    4.6160    3.0660    0.6930 H   0  0  0  0  0  0  0  0  0  0  0  0
    3.5800    4.5260    0.6560 H   0  0  0  0  0  0  0  0  0  0  0  0
    0.6160    1.7630    0.8500 H   0  0  0  0  0  0  0  0  0  0  0  0
    1.8900   -2.2400   -0.2360 H   0  0  0  0  0  0  0  0  0  0  0  0
    5.1240    0.6820   -1.6610 H   0  0  0  0  0  0  0  0  0  0  0  0
    4.2410   -2.9560    0.1460 H   0  0  0  0  0  0  0  0  0  0  0  0
    5.5680   -2.8300   -1.0510 H   0  0  0  0  0  0  0  0  0  0  0  0
    5.4700   -1.6690    0.3150 H   0  0  0  0  0  0  0  0  0  0  0  0
   -1.4120   -3.5980    1.3300 H   0  0  0  0  0  0  0  0  0  0  0  0
   -2.2460   -2.0770    1.6970 H   0  0  0  0  0  0  0  0  0  0  0  0
   -3.4330   -3.3740   -0.1270 H   0  0  0  0  0  0  0  0  0  0  0  0
   -1.9720   -3.4080   -1.1040 H   0  0  0  0  0  0  0  0  0  0  0  0
   -1.9990   -0.8730   -1.2880 H   0  0  0  0  0  0  0  0  0  0  0  0
   -3.3900   -1.6640   -2.0090 H   0  0  0  0  0  0  0  0  0  0  0  0
   -4.6320   -1.2720    0.3100 H   0  0  0  0  0  0  0  0  0  0  0  0
   -3.2660   -0.2290    0.7410 H   0  0  0  0  0  0  0  0  0  0  0  0
   -5.2140    2.4160   -2.2470 H   0  0  0  0  0  0  0  0  0  0  0  0
   -6.3220    2.9860   -1.0770 H   0  0  0  0  0  0  0  0  0  0  0  0
   -5.9020    2.3710    1.2580 H   0  0  0  0  0  0  0  0  0  0  0  0
   -5.2250    0.8440    1.5760 H   0  0  0  0  0  0  0  0  0  0  0  0
  1  2  1  0
  1 25  1  0
  1 24  1  0
  1 23  1  0
  2  3  1  0
  3  8  2  0
  3  4  1  0
  4  5  2  0
  4 26  1  0
  5  6  1  0
  5 12  1  0
  6  7  2  0
  6 27  1  0
  7 10  1  0
  7  8  1  0
  8  9  1  0
  9 28  1  0
 10 11  1  0
 11 30  1  0
 11 29  1  0
 11 31  1  0
 12 14  1  0
 12 13  2  0
 14 15  1  0
 15 16  1  0
 15 32  1  0
 15 33  1  0
 16 35  1  0
 16 17  1  0
 16 34  1  0
 17 37  1  0
 17 36  1  0
 17 18  1  0
 18 19  1  0
 18 38  1  0
 18 39  1  0
 19 20  1  0
 20 21  2  0
 20 22  1  0
 21 40  1  0
 21 41  1  0
 22 42  1  0
 22 43  1  0
M  END
>  <id>  (796) 
908

>  <scaffolds>  (796) 
['c1ccccc1']

>  <name>  (796) 
Leonurine

>  <formula>  (796) 
C14H21N3O5

>  <SMILES>  (796) 
COC1=CC(=CC(=C1O)OC)C(=O)OCCCCN=C(N)N

>  <ChEMBL_id>  (796) 
CHEMBL1290284

>  <ZINC_id>  (796) 
ZINC5998954

>  <PubChem_id>  (796) 


>  <DrugBank_id>  (796) 


>  <CAS_no>  (796) 
24697-74-3

>  <references>  (796) 
[{'journal': {'name': 'Journal of Ethnopharmacology', 'id': 7}, 'title': '"Wild cannabis": A review of the traditional use and phytochemistry of Leonotis leonurus', 'year': 2015, 'start_page': None, 'volume': None, 'issue': None, 'doi': '10.1016/j.jep.2015.08.013', 'isbn': '', 'despositor': {'code': 'BND', 'first_name': "Bakary N'tji", 'last_name': 'Diallo', 'id': 26}, 'refauthors_set': [{'author': {'first_name': 'Nsuala', 'initials': 'NB', 'last_name': 'Baudry', 'id': 1003}, 'first_author': True, 'id': 1585}], 'id': 484}]

>  <classifications>  (796) 
[{'classification': 'Hydroxybenzoates', 'id': 912}, {'classification': 'Benzene and substituted derivatives (Classyfire)', 'id': 961}]

>  <molecular_mass>  (796) 
311.33

$$$$
SANC00909_minRM1.pdb
     RDKit          3D

 40 42  0  0  1  0  0  0  0  0999 V2000
   -2.2760   -1.3360   -1.3540 C   0  0  0  0  0  0  0  0  0  0  0  0
   -1.8910   -1.1140    0.0820 C   0  0  1  0  0  0  0  0  0  0  0  0
   -0.8530   -2.0710    0.6220 C   0  0  0  0  0  0  0  0  0  0  0  0
    0.5250   -1.8320    0.0040 C   0  0  0  0  0  0  0  0  0  0  0  0
    1.0810   -0.4510    0.2980 C   0  0  2  0  0  0  0  0  0  0  0  0
    0.7680    0.6670   -0.7400 C   0  0  2  0  0  0  0  0  0  0  0  0
    2.2780    0.9770   -0.8600 C   0  0  0  0  0  0  0  0  0  0  0  0
    2.6070   -0.2430    0.0360 C   0  0  1  0  0  0  0  0  0  0  0  0
    3.3940    0.0950    1.2860 C   0  0  0  0  0  0  0  0  0  0  0  0
    3.3090   -1.3430   -0.7310 C   0  0  0  0  0  0  0  0  0  0  0  0
   -0.0940    1.7730   -0.2440 C   0  0  0  0  0  0  0  0  0  0  0  0
    0.2600    2.5750    0.7560 C   0  0  0  0  0  0  0  0  0  0  0  0
   -1.4380    1.9320   -0.8890 C   0  0  0  0  0  0  0  0  0  0  0  0
   -2.5400    1.4430    0.0540 C   0  0  0  0  0  0  0  0  0  0  0  0
   -2.0700    0.2080    0.7800 C   0  0  1  0  0  0  0  0  0  0  0  0
   -2.9920   -0.8570    0.9440 O   0  0  0  0  0  0  0  0  0  0  0  0
   -3.1290   -0.7210   -1.6720 H   0  0  0  0  0  0  0  0  0  0  0  0
   -2.5720   -2.3820   -1.5270 H   0  0  0  0  0  0  0  0  0  0  0  0
   -1.4490   -1.1170   -2.0430 H   0  0  0  0  0  0  0  0  0  0  0  0
   -1.1800   -3.1170    0.4330 H   0  0  0  0  0  0  0  0  0  0  0  0
   -0.7960   -2.0070    1.7310 H   0  0  0  0  0  0  0  0  0  0  0  0
    0.4970   -2.0380   -1.0860 H   0  0  0  0  0  0  0  0  0  0  0  0
    1.2180   -2.6010    0.4100 H   0  0  0  0  0  0  0  0  0  0  0  0
    0.8060   -0.1530    1.3350 H   0  0  0  0  0  0  0  0  0  0  0  0
    0.3720    0.2600   -1.6970 H   0  0  0  0  0  0  0  0  0  0  0  0
    2.6040    1.9520   -0.4660 H   0  0  0  0  0  0  0  0  0  0  0  0
    2.6780    0.9320   -1.8860 H   0  0  0  0  0  0  0  0  0  0  0  0
    3.4480   -0.7600    1.9750 H   0  0  0  0  0  0  0  0  0  0  0  0
    2.9580    0.9290    1.8550 H   0  0  0  0  0  0  0  0  0  0  0  0
    4.4270    0.3880    1.0520 H   0  0  0  0  0  0  0  0  0  0  0  0
    2.7680   -1.6460   -1.6380 H   0  0  0  0  0  0  0  0  0  0  0  0
    3.4600   -2.2490   -0.1270 H   0  0  0  0  0  0  0  0  0  0  0  0
    4.3080   -1.0210   -1.0640 H   0  0  0  0  0  0  0  0  0  0  0  0
   -0.3690    3.3800    1.1230 H   0  0  0  0  0  0  0  0  0  0  0  0
    1.1970    2.5050    1.2980 H   0  0  0  0  0  0  0  0  0  0  0  0
   -1.4970    1.3940   -1.8580 H   0  0  0  0  0  0  0  0  0  0  0  0
   -1.6120    2.9940   -1.1670 H   0  0  0  0  0  0  0  0  0  0  0  0
   -2.7970    2.2290    0.7960 H   0  0  0  0  0  0  0  0  0  0  0  0
   -3.4890    1.2730   -0.4960 H   0  0  0  0  0  0  0  0  0  0  0  0
   -1.4610    0.4410    1.6790 H   0  0  0  0  0  0  0  0  0  0  0  0
  1 19  1  0
  1 17  1  0
  1 18  1  0
  2  1  1  6
  2  3  1  0
  2 15  1  0
  2 16  1  0
  3  4  1  0
  3 20  1  0
  3 21  1  0
  4 22  1  0
  4  5  1  0
  4 23  1  0
  5  6  1  0
  5  8  1  0
  5 24  1  1
  6 25  1  6
  6  7  1  0
  6 11  1  0
  7 27  1  0
  7 26  1  0
  7  8  1  0
  8 10  1  6
  8  9  1  0
  9 30  1  0
  9 29  1  0
  9 28  1  0
 10 31  1  0
 10 33  1  0
 10 32  1  0
 11 13  1  0
 11 12  2  0
 12 34  1  0
 12 35  1  0
 13 36  1  0
 13 37  1  0
 13 14  1  0
 14 39  1  0
 14 15  1  0
 14 38  1  0
 15 16  1  0
 15 40  1  1
M  END
>  <id>  (797) 
909

>  <scaffolds>  (797) 
['C=C1CCC2OC2CCC2CCC12']

>  <name>  (797) 
Caryophyllene oxide

>  <formula>  (797) 
C15H24O

>  <SMILES>  (797) 
C[C@@]12CC[C@@H]3[C@H](CC3(C)C)C(=C)CC[C@H]1O2


>  <ChEMBL_id>  (797) 
SCHEMBL127077

>  <ZINC_id>  (797) 
ZINC2083320

>  <PubChem_id>  (797) 


>  <DrugBank_id>  (797) 


>  <CAS_no>  (797) 
1139-30-6

>  <references>  (797) 
[{'journal': {'name': 'Phytochemistry', 'id': 10}, 'title': 'A chemometric assessment of essential oil variation of three Salvia species indigenous to South Africa', 'year': 2020, 'start_page': None, 'volume': None, 'issue': None, 'doi': '10.1016/j.phytochem.2019.112249', 'isbn': '', 'despositor': {'code': 'BND', 'first_name': "Bakary N'tji", 'last_name': 'Diallo', 'id': 26}, 'refauthors_set': [{'author': {'first_name': 'M.J.Lim Ah ', 'initials': 'MT', 'last_name': 'Tock', 'id': 1004}, 'first_author': True, 'id': 1586}], 'id': 485}]

>  <classifications>  (797) 
[{'classification': 'Polycyclic Sesquiterpenes', 'id': 913}, {'classification': 'Phenol lipids (Classyfire)', 'id': 951}]

>  <molecular_mass>  (797) 
220.35

$$$$
SANC00910_minRM1.pdb
     RDKit          3D

 26 25  0  0  0  0  0  0  0  0999 V2000
    2.6500    1.4770   -0.5790 C   0  0  0  0  0  0  0  0  0  0  0  0
    2.7150    0.0780   -0.0790 C   0  0  0  0  0  0  0  0  0  0  0  0
    1.6190   -0.6430    0.1710 C   0  0  0  0  0  0  0  0  0  0  0  0
    0.2450   -0.1030   -0.0240 C   0  0  0  0  0  0  0  0  0  0  0  0
   -0.8190   -1.1660    0.2520 C   0  0  0  0  0  0  0  0  0  0  0  0
   -2.1840   -0.5940    0.0380 C   0  0  0  0  0  0  0  0  0  0  0  0
   -3.0310   -1.0820   -0.8650 C   0  0  0  0  0  0  0  0  0  0  0  0
   -2.5420    0.5270    0.9030 C   0  0  0  0  0  0  0  0  0  0  0  0
   -3.2240    1.5790    0.4620 C   0  0  0  0  0  0  0  0  0  0  0  0
    4.0800   -0.4750    0.1240 C   0  0  0  0  0  0  0  0  0  0  0  0
    3.6390    1.9450   -0.6870 H   0  0  0  0  0  0  0  0  0  0  0  0
    2.0710    2.1280    0.0940 H   0  0  0  0  0  0  0  0  0  0  0  0
    2.1710    1.5320   -1.5690 H   0  0  0  0  0  0  0  0  0  0  0  0
    1.6970   -1.6710    0.5390 H   0  0  0  0  0  0  0  0  0  0  0  0
    0.0890    0.7810    0.6340 H   0  0  0  0  0  0  0  0  0  0  0  0
    0.1240    0.2890   -1.0580 H   0  0  0  0  0  0  0  0  0  0  0  0
   -0.6470   -2.0580   -0.3870 H   0  0  0  0  0  0  0  0  0  0  0  0
   -0.7350   -1.5500    1.2920 H   0  0  0  0  0  0  0  0  0  0  0  0
   -2.8020   -1.9170   -1.5190 H   0  0  0  0  0  0  0  0  0  0  0  0
   -4.0330   -0.6950   -1.0210 H   0  0  0  0  0  0  0  0  0  0  0  0
   -2.2130    0.4530    1.9460 H   0  0  0  0  0  0  0  0  0  0  0  0
   -3.5600    1.7030   -0.5630 H   0  0  0  0  0  0  0  0  0  0  0  0
   -3.4990    2.4160    1.0970 H   0  0  0  0  0  0  0  0  0  0  0  0
    4.6460    0.1150    0.8620 H   0  0  0  0  0  0  0  0  0  0  0  0
    4.0880   -1.5140    0.4840 H   0  0  0  0  0  0  0  0  0  0  0  0
    4.6610   -0.4620   -0.8110 H   0  0  0  0  0  0  0  0  0  0  0  0
  1 13  1  0
  1 11  1  0
  1  2  1  0
  1 12  1  0
  2 10  1  0
  2  3  2  0
  3  4  1  0
  3 14  1  0
  4 16  1  0
  4  5  1  0
  4 15  1  0
  5 17  1  0
  5  6  1  0
  5 18  1  0
  6  7  2  0
  6  8  1  0
  7 19  1  0
  7 20  1  0
  8  9  2  0
  8 21  1  0
  9 22  1  0
  9 23  1  0
 10 26  1  0
 10 25  1  0
 10 24  1  0
M  END
>  <id>  (798) 
910

>  <scaffolds>  (798) 
[]

>  <name>  (798) 
Myrcene

>  <formula>  (798) 
C10H16

>  <SMILES>  (798) 
CC(=CCCC(=C)C=C)C

>  <ChEMBL_id>  (798) 
CHEMBL455491

>  <ZINC_id>  (798) 
ZINC1530331

>  <PubChem_id>  (798) 


>  <DrugBank_id>  (798) 


>  <CAS_no>  (798) 
123-35-3

>  <references>  (798) 
[{'journal': {'name': 'Phytochemistry', 'id': 10}, 'title': 'A chemometric assessment of essential oil variation of three Salvia species indigenous to South Africa', 'year': 2020, 'start_page': None, 'volume': None, 'issue': None, 'doi': '10.1016/j.phytochem.2019.112249', 'isbn': '', 'despositor': {'code': 'BND', 'first_name': "Bakary N'tji", 'last_name': 'Diallo', 'id': 26}, 'refauthors_set': [{'author': {'first_name': 'M.J.Lim Ah ', 'initials': 'MT', 'last_name': 'Tock', 'id': 1004}, 'first_author': True, 'id': 1586}], 'id': 485}]

>  <classifications>  (798) 
[{'classification': 'Acyclic Monoterpenes', 'id': 914}, {'classification': 'Phenol lipids (Classyfire)', 'id': 951}]

>  <molecular_mass>  (798) 
136.23

$$$$
SANC00911_minRM1.pdb
     RDKit          3D

 26 27  0  0  1  0  0  0  0  0999 V2000
   -3.0410    0.7340    0.5260 C   0  0  0  0  0  0  0  0  0  0  0  0
   -1.7310    0.1770    0.0830 C   0  0  0  0  0  0  0  0  0  0  0  0
   -1.4700   -1.1260    0.1710 C   0  0  0  0  0  0  0  0  0  0  0  0
   -0.2030   -1.7740   -0.2520 C   0  0  0  0  0  0  0  0  0  0  0  0
    0.8040   -0.8440   -0.8640 C   0  0  1  0  0  0  0  0  0  0  0  0
    0.5110    0.6370   -0.9660 C   0  0  1  0  0  0  0  0  0  0  0  0
   -0.7870    1.1940   -0.4570 C   0  0  0  0  0  0  0  0  0  0  0  0
    1.5700    0.1400    0.0070 C   0  0  2  0  0  0  0  0  0  0  0  0
    3.0110    0.4010   -0.3390 C   0  0  0  0  0  0  0  0  0  0  0  0
    1.3280    0.1920    1.4860 C   0  0  0  0  0  0  0  0  0  0  0  0
   -3.6070    1.1490   -0.3220 H   0  0  0  0  0  0  0  0  0  0  0  0
   -2.9120    1.5500    1.2530 H   0  0  0  0  0  0  0  0  0  0  0  0
   -3.6970   -0.0060    1.0060 H   0  0  0  0  0  0  0  0  0  0  0  0
   -2.2160   -1.8200    0.5770 H   0  0  0  0  0  0  0  0  0  0  0  0
   -0.4490   -2.5880   -0.9710 H   0  0  0  0  0  0  0  0  0  0  0  0
    0.2550   -2.3000    0.6160 H   0  0  0  0  0  0  0  0  0  0  0  0
    1.3550   -1.3160   -1.6980 H   0  0  0  0  0  0  0  0  0  0  0  0
    0.8650    1.1680   -1.8690 H   0  0  0  0  0  0  0  0  0  0  0  0
   -0.5780    1.9640    0.3200 H   0  0  0  0  0  0  0  0  0  0  0  0
   -1.2980    1.7540   -1.2730 H   0  0  0  0  0  0  0  0  0  0  0  0
    3.6780   -0.3390    0.1270 H   0  0  0  0  0  0  0  0  0  0  0  0
    3.2110    0.3660   -1.4200 H   0  0  0  0  0  0  0  0  0  0  0  0
    3.3350    1.3940    0.0070 H   0  0  0  0  0  0  0  0  0  0  0  0
    1.9280   -0.5640    2.0150 H   0  0  0  0  0  0  0  0  0  0  0  0
    0.2830    0.0160    1.7740 H   0  0  0  0  0  0  0  0  0  0  0  0
    1.6040    1.1730    1.9020 H   0  0  0  0  0  0  0  0  0  0  0  0
  1 11  1  0
  1  2  1  0
  1 13  1  0
  1 12  1  0
  2  7  1  0
  2  3  2  0
  3  4  1  0
  3 14  1  0
  4 15  1  0
  4  5  1  0
  4 16  1  0
  5 17  1  6
  5  6  1  0
  5  8  1  0
  6 18  1  6
  6  7  1  0
  6  8  1  0
  7 20  1  0
  7 19  1  0
  8  9  1  1
  8 10  1  0
  9 22  1  0
  9 23  1  0
  9 21  1  0
 10 25  1  0
 10 26  1  0
 10 24  1  0
M  END
>  <id>  (799) 
911

>  <scaffolds>  (799) 
['C1=CCCCC1', 'C1=CCC2CC2C1']

>  <name>  (799) 
[gamma]-3-Carene

>  <formula>  (799) 
C10H16

>  <SMILES>  (799) 
CC1=CCC2C(C1)C2(C)C

>  <ChEMBL_id>  (799) 
CHEMBL506854

>  <ZINC_id>  (799) 


>  <PubChem_id>  (799) 


>  <DrugBank_id>  (799) 
DB-063033

>  <CAS_no>  (799) 
13466-78-9

>  <references>  (799) 
[{'journal': {'name': 'Phytochemistry', 'id': 10}, 'title': 'A chemometric assessment of essential oil variation of three Salvia species indigenous to South Africa', 'year': 2020, 'start_page': None, 'volume': None, 'issue': None, 'doi': '10.1016/j.phytochem.2019.112249', 'isbn': '', 'despositor': {'code': 'BND', 'first_name': "Bakary N'tji", 'last_name': 'Diallo', 'id': 26}, 'refauthors_set': [{'author': {'first_name': 'M.J.Lim Ah ', 'initials': 'MT', 'last_name': 'Tock', 'id': 1004}, 'first_author': True, 'id': 1586}], 'id': 485}]

>  <classifications>  (799) 
[{'classification': 'Phenol lipids', 'id': 899}, {'classification': 'Phenol lipids (Classyfire)', 'id': 951}]

>  <molecular_mass>  (799) 
136.23

$$$$
SANC00912_minRM1.pdb
     RDKit          3D

 26 26  0  0  1  0  0  0  0  0999 V2000
    3.5930   -0.0650    0.0460 C   0  0  0  0  0  0  0  0  0  0  0  0
    2.1070    0.0030    0.0270 C   0  0  0  0  0  0  0  0  0  0  0  0
    1.4450    1.0760    0.4580 C   0  0  0  0  0  0  0  0  0  0  0  0
   -0.0390    1.1840    0.4350 C   0  0  0  0  0  0  0  0  0  0  0  0
   -0.7010   -0.1890    0.2950 C   0  0  2  0  0  0  0  0  0  0  0  0
   -0.0320   -0.9480   -0.8500 C   0  0  0  0  0  0  0  0  0  0  0  0
    1.4250   -1.2180   -0.4900 C   0  0  0  0  0  0  0  0  0  0  0  0
   -2.1720   -0.0370    0.0490 C   0  0  0  0  0  0  0  0  0  0  0  0
   -2.6550    0.5400   -1.0470 C   0  0  0  0  0  0  0  0  0  0  0  0
   -3.0670   -0.5710    1.1110 C   0  0  0  0  0  0  0  0  0  0  0  0
    4.0050   -0.0760   -0.9750 H   0  0  0  0  0  0  0  0  0  0  0  0
    3.9520   -0.9790    0.5450 H   0  0  0  0  0  0  0  0  0  0  0  0
    4.0670    0.7800    0.5670 H   0  0  0  0  0  0  0  0  0  0  0  0
    1.9710    1.9580    0.8390 H   0  0  0  0  0  0  0  0  0  0  0  0
   -0.4060    1.6910    1.3530 H   0  0  0  0  0  0  0  0  0  0  0  0
   -0.3330    1.8640   -0.3950 H   0  0  0  0  0  0  0  0  0  0  0  0
   -0.5330   -0.7610    1.2450 H   0  0  0  0  0  0  0  0  0  0  0  0
   -0.5660   -1.8980   -1.0590 H   0  0  0  0  0  0  0  0  0  0  0  0
   -0.0930   -0.3760   -1.7990 H   0  0  0  0  0  0  0  0  0  0  0  0
    1.9670   -1.6250   -1.3710 H   0  0  0  0  0  0  0  0  0  0  0  0
    1.4980   -2.0210    0.2770 H   0  0  0  0  0  0  0  0  0  0  0  0
   -2.0450    0.9460   -1.8470 H   0  0  0  0  0  0  0  0  0  0  0  0
   -3.7160    0.6600   -1.2450 H   0  0  0  0  0  0  0  0  0  0  0  0
   -2.9190   -1.6520    1.2560 H   0  0  0  0  0  0  0  0  0  0  0  0
   -4.1370   -0.4270    0.8970 H   0  0  0  0  0  0  0  0  0  0  0  0
   -2.8740   -0.0860    2.0800 H   0  0  0  0  0  0  0  0  0  0  0  0
  1 11  1  0
  1  2  1  0
  1 12  1  0
  1 13  1  0
  2  7  1  0
  2  3  2  0
  3  4  1  0
  3 14  1  0
  4 16  1  0
  4  5  1  0
  4 15  1  0
  5  6  1  0
  5  8  1  0
  5 17  1  1
  6 19  1  0
  6 18  1  0
  6  7  1  0
  7 20  1  0
  7 21  1  0
  8  9  2  0
  8 10  1  0
  9 22  1  0
  9 23  1  0
 10 25  1  0
 10 24  1  0
 10 26  1  0
M  END
>  <id>  (800) 
912

>  <scaffolds>  (800) 
['C1=CCCCC1']

>  <name>  (800) 
Limonene

>  <formula>  (800) 
C10H16

>  <SMILES>  (800) 
CC1=CCC(CC1)C(=C)C

>  <ChEMBL_id>  (800) 
CHEMBL15799

>  <ZINC_id>  (800) 


>  <PubChem_id>  (800) 


>  <DrugBank_id>  (800) 


>  <CAS_no>  (800) 
138-86-3

>  <references>  (800) 
[{'journal': {'name': 'Phytochemistry', 'id': 10}, 'title': 'A chemometric assessment of essential oil variation of three Salvia species indigenous to South Africa', 'year': 2020, 'start_page': None, 'volume': None, 'issue': None, 'doi': '10.1016/j.phytochem.2019.112249', 'isbn': '', 'despositor': {'code': 'BND', 'first_name': "Bakary N'tji", 'last_name': 'Diallo', 'id': 26}, 'refauthors_set': [{'author': {'first_name': 'M.J.Lim Ah ', 'initials': 'MT', 'last_name': 'Tock', 'id': 1004}, 'first_author': True, 'id': 1586}], 'id': 485}]

>  <classifications>  (800) 
[{'classification': 'Phenol lipids', 'id': 899}, {'classification': 'Phenol lipids (Classyfire)', 'id': 951}]

>  <molecular_mass>  (800) 
136.23

$$$$
SANC00913_minRM1.pdb
     RDKit          3D

 42 41  0  0  1  0  0  0  0  0999 V2000
    4.5860    2.1340   -0.5480 C   0  0  0  0  0  0  0  0  0  0  0  0
    4.3050    0.8030    0.0540 C   0  0  0  0  0  0  0  0  0  0  0  0
    3.0580    0.3520    0.2150 C   0  0  0  0  0  0  0  0  0  0  0  0
    2.7590   -0.9750    0.8190 C   0  0  0  0  0  0  0  0  0  0  0  0
    1.2530   -1.2410    0.8880 C   0  0  0  0  0  0  0  0  0  0  0  0
    0.6210   -1.1680   -0.4610 C   0  0  0  0  0  0  0  0  0  0  0  0
   -0.4030   -0.3690   -0.7760 C   0  0  0  0  0  0  0  0  0  0  0  0
   -1.0490    0.5760    0.1770 C   0  0  0  0  0  0  0  0  0  0  0  0
   -2.2670    1.2840   -0.4120 C   0  0  0  0  0  0  0  0  0  0  0  0
   -3.5750    0.4830   -0.2190 C   0  0  1  0  0  0  0  0  0  0  0  0
   -3.5000   -0.8790   -0.9090 C   0  0  0  0  0  0  0  0  0  0  0  0
   -3.8840    0.3970    1.2540 C   0  0  0  0  0  0  0  0  0  0  0  0
   -3.8170   -0.7090    1.9810 C   0  0  0  0  0  0  0  0  0  0  0  0
   -4.6500    1.2210   -0.7430 O   0  0  0  0  0  0  0  0  0  0  0  0
    1.2120   -2.0730   -1.4870 C   0  0  0  0  0  0  0  0  0  0  0  0
    5.4960    0.0130    0.4640 C   0  0  0  0  0  0  0  0  0  0  0  0
    5.2060    2.0410   -1.4530 H   0  0  0  0  0  0  0  0  0  0  0  0
    5.1330    2.7830    0.1520 H   0  0  0  0  0  0  0  0  0  0  0  0
    3.6810    2.6850   -0.8440 H   0  0  0  0  0  0  0  0  0  0  0  0
    2.1970    0.9540   -0.0950 H   0  0  0  0  0  0  0  0  0  0  0  0
    3.2770   -1.7830    0.2580 H   0  0  0  0  0  0  0  0  0  0  0  0
    3.1920   -1.0340    1.8430 H   0  0  0  0  0  0  0  0  0  0  0  0
    0.7940   -0.5410    1.6170 H   0  0  0  0  0  0  0  0  0  0  0  0
    1.0620   -2.2460    1.3240 H   0  0  0  0  0  0  0  0  0  0  0  0
   -0.8000   -0.3760   -1.7980 H   0  0  0  0  0  0  0  0  0  0  0  0
   -0.2990    1.3380    0.4890 H   0  0  0  0  0  0  0  0  0  0  0  0
   -1.3300    0.0560    1.1190 H   0  0  0  0  0  0  0  0  0  0  0  0
   -2.3870    2.2830    0.0620 H   0  0  0  0  0  0  0  0  0  0  0  0
   -2.1110    1.5190   -1.4860 H   0  0  0  0  0  0  0  0  0  0  0  0
   -4.4440   -1.4350   -0.8060 H   0  0  0  0  0  0  0  0  0  0  0  0
   -2.7050   -1.5170   -0.5010 H   0  0  0  0  0  0  0  0  0  0  0  0
   -3.3020   -0.7890   -1.9870 H   0  0  0  0  0  0  0  0  0  0  0  0
   -4.1820    1.3500    1.7100 H   0  0  0  0  0  0  0  0  0  0  0  0
   -3.5440   -1.6940    1.6170 H   0  0  0  0  0  0  0  0  0  0  0  0
   -4.0400   -0.7210    3.0440 H   0  0  0  0  0  0  0  0  0  0  0  0
   -4.5310    1.2910   -1.6940 H   0  0  0  0  0  0  0  0  0  0  0  0
    0.5250   -2.3030   -2.3150 H   0  0  0  0  0  0  0  0  0  0  0  0
    1.5180   -3.0430   -1.0670 H   0  0  0  0  0  0  0  0  0  0  0  0
    2.1080   -1.6200   -1.9400 H   0  0  0  0  0  0  0  0  0  0  0  0
    6.4470    0.5340    0.2770 H   0  0  0  0  0  0  0  0  0  0  0  0
    5.4800   -0.2250    1.5390 H   0  0  0  0  0  0  0  0  0  0  0  0
    5.5560   -0.9450   -0.0760 H   0  0  0  0  0  0  0  0  0  0  0  0
  1 17  1  0
  1 19  1  0
  1  2  1  0
  1 18  1  0
  2  3  2  0
  2 16  1  0
  3 20  1  0
  3  4  1  0
  4 21  1  0
  4  5  1  0
  4 22  1  0
  5  6  1  0
  5 24  1  0
  5 23  1  0
  6 15  1  0
  6  7  2  0
  7 25  1  0
  7  8  1  0
  8  9  1  0
  8 26  1  0
  8 27  1  0
  9 29  1  0
  9 10  1  0
  9 28  1  0
 10 11  1  0
 10 14  1  6
 10 12  1  0
 11 32  1  0
 11 30  1  0
 11 31  1  0
 12 33  1  0
 12 13  2  0
 13 34  1  0
 13 35  1  0
 14 36  1  0
 15 37  1  0
 15 39  1  0
 15 38  1  0
 16 42  1  0
 16 40  1  0
 16 41  1  0
M  END
>  <id>  (801) 
913

>  <scaffolds>  (801) 
[]

>  <name>  (801) 
Nerolidol 

>  <formula>  (801) 
C15H26O

>  <SMILES>  (801) 
CC(=CCCC(=CCCC(C)(C=C)O)C)C

>  <ChEMBL_id>  (801) 
CHEMBL3182436

>  <ZINC_id>  (801) 


>  <PubChem_id>  (801) 


>  <DrugBank_id>  (801) 
DB070076

>  <CAS_no>  (801) 
142-50-7

>  <references>  (801) 
[{'journal': {'name': 'Phytochemistry', 'id': 10}, 'title': 'A chemometric assessment of essential oil variation of three Salvia species indigenous to South Africa', 'year': 2020, 'start_page': None, 'volume': None, 'issue': None, 'doi': '10.1016/j.phytochem.2019.112249', 'isbn': '', 'despositor': {'code': 'BND', 'first_name': "Bakary N'tji", 'last_name': 'Diallo', 'id': 26}, 'refauthors_set': [{'author': {'first_name': 'M.J.Lim Ah ', 'initials': 'MT', 'last_name': 'Tock', 'id': 1004}, 'first_author': True, 'id': 1586}], 'id': 485}]

>  <classifications>  (801) 
[{'classification': 'Sesquiterpene', 'id': 828}, {'classification': 'Phenol lipids (Classyfire)', 'id': 951}]

>  <molecular_mass>  (801) 
222.37

$$$$
SANC00914_minRM1.pdb
     RDKit          3D

 42 43  0  0  1  0  0  0  0  0999 V2000
    2.1330   -2.5340    0.0000 C   0  0  0  0  0  0  0  0  0  0  0  0
    2.1310   -1.0720   -0.4260 C   0  0  2  0  0  0  0  0  0  0  0  0
    3.4820   -0.4310   -0.1130 C   0  0  0  0  0  0  0  0  0  0  0  0
    3.5450    0.9750   -0.6940 C   0  0  0  0  0  0  0  0  0  0  0  0
    2.2750    1.7280   -0.5220 C   0  0  0  0  0  0  0  0  0  0  0  0
    1.1310    1.1730   -0.1190 C   0  0  0  0  0  0  0  0  0  0  0  0
    1.0200   -0.2670    0.2800 C   0  0  1  0  0  0  0  0  0  0  0  0
   -0.3540   -0.7810   -0.1750 C   0  0  0  0  0  0  0  0  0  0  0  0
   -1.4930   -0.0880    0.5700 C   0  0  1  0  0  0  0  0  0  0  0  0
   -1.1640    1.3820    0.8500 C   0  0  0  0  0  0  0  0  0  0  0  0
   -0.1350    1.9640   -0.1110 C   0  0  0  0  0  0  0  0  0  0  0  0
   -2.8350   -0.2570   -0.1900 C   0  0  1  0  0  0  0  0  0  0  0  0
   -3.1370   -1.7380   -0.4540 C   0  0  0  0  0  0  0  0  0  0  0  0
   -3.9830    0.3490    0.6330 C   0  0  0  0  0  0  0  0  0  0  0  0
   -2.7880    0.3240   -1.4600 O   0  0  0  0  0  0  0  0  0  0  0  0
    1.1670   -0.3850    1.7970 C   0  0  0  0  0  0  0  0  0  0  0  0
    2.7830   -3.1440   -0.6440 H   0  0  0  0  0  0  0  0  0  0  0  0
    2.4930   -2.6840    1.0280 H   0  0  0  0  0  0  0  0  0  0  0  0
    1.1280   -2.9810   -0.0520 H   0  0  0  0  0  0  0  0  0  0  0  0
    1.9570   -1.0250   -1.5330 H   0  0  0  0  0  0  0  0  0  0  0  0
    3.6520   -0.4040    0.9870 H   0  0  0  0  0  0  0  0  0  0  0  0
    4.3140   -1.0510   -0.5070 H   0  0  0  0  0  0  0  0  0  0  0  0
    3.7820    0.9360   -1.7810 H   0  0  0  0  0  0  0  0  0  0  0  0
    4.3900    1.5410   -0.2450 H   0  0  0  0  0  0  0  0  0  0  0  0
    2.3250    2.7890   -0.7930 H   0  0  0  0  0  0  0  0  0  0  0  0
   -0.4560   -0.6420   -1.2730 H   0  0  0  0  0  0  0  0  0  0  0  0
   -0.4100   -1.8830   -0.0260 H   0  0  0  0  0  0  0  0  0  0  0  0
   -1.6290   -0.5980    1.5600 H   0  0  0  0  0  0  0  0  0  0  0  0
   -0.7690    1.4760    1.8890 H   0  0  0  0  0  0  0  0  0  0  0  0
   -2.0820    2.0120    0.8620 H   0  0  0  0  0  0  0  0  0  0  0  0
   -0.5300    1.9970   -1.1500 H   0  0  0  0  0  0  0  0  0  0  0  0
    0.0570    3.0280    0.1470 H   0  0  0  0  0  0  0  0  0  0  0  0
   -3.0380   -2.3410    0.4590 H   0  0  0  0  0  0  0  0  0  0  0  0
   -2.4750   -2.1790   -1.2140 H   0  0  0  0  0  0  0  0  0  0  0  0
   -4.1600   -1.8840   -0.8290 H   0  0  0  0  0  0  0  0  0  0  0  0
   -4.1480   -0.2020    1.5680 H   0  0  0  0  0  0  0  0  0  0  0  0
   -3.7920    1.3980    0.9100 H   0  0  0  0  0  0  0  0  0  0  0  0
   -4.9340    0.3360    0.0810 H   0  0  0  0  0  0  0  0  0  0  0  0
   -2.6980    1.2740   -1.3540 H   0  0  0  0  0  0  0  0  0  0  0  0
    0.6110    0.3940    2.3420 H   0  0  0  0  0  0  0  0  0  0  0  0
    2.2170   -0.2870    2.1190 H   0  0  0  0  0  0  0  0  0  0  0  0
    0.8050   -1.3500    2.1780 H   0  0  0  0  0  0  0  0  0  0  0  0
  1 17  1  0
  1  2  1  0
  1 19  1  0
  1 18  1  0
  2 20  1  6
  2  3  1  0
  2  7  1  0
  3  4  1  0
  3 22  1  0
  3 21  1  0
  4 23  1  0
  4  5  1  0
  4 24  1  0
  5 25  1  0
  5  6  2  0
  6 11  1  0
  6  7  1  0
  7  8  1  0
  7 16  1  1
  8 26  1  0
  8 27  1  0
  8  9  1  0
  9 12  1  0
  9 10  1  0
  9 28  1  1
 10 11  1  0
 10 30  1  0
 10 29  1  0
 11 31  1  0
 11 32  1  0
 12 15  1  6
 12 13  1  0
 12 14  1  0
 13 34  1  0
 13 35  1  0
 13 33  1  0
 14 38  1  0
 14 37  1  0
 14 36  1  0
 15 39  1  0
 16 41  1  0
 16 42  1  0
 16 40  1  0
M  END
>  <id>  (802) 
914

>  <scaffolds>  (802) 
['C1=CCCCC1', 'C1CCCCC1', 'C1=C2CCCCC2CCC1']

>  <name>  (802) 
Valerianol

>  <formula>  (802) 
C15H26O

>  <SMILES>  (802) 
C[C@@H]1CCC=C2[C@]1(C[C@@H](CC2)C(C)(C)O)C

>  <ChEMBL_id>  (802) 
SCHEMBL2844420

>  <ZINC_id>  (802) 


>  <PubChem_id>  (802) 


>  <DrugBank_id>  (802) 


>  <CAS_no>  (802) 
20489-45-6

>  <references>  (802) 
[{'journal': {'name': 'Phytochemistry', 'id': 10}, 'title': 'A chemometric assessment of essential oil variation of three Salvia species indigenous to South Africa', 'year': 2020, 'start_page': None, 'volume': None, 'issue': None, 'doi': '10.1016/j.phytochem.2019.112249', 'isbn': '', 'despositor': {'code': 'BND', 'first_name': "Bakary N'tji", 'last_name': 'Diallo', 'id': 26}, 'refauthors_set': [{'author': {'first_name': 'M.J.Lim Ah ', 'initials': 'MT', 'last_name': 'Tock', 'id': 1004}, 'first_author': True, 'id': 1586}], 'id': 485}]

>  <classifications>  (802) 
[{'classification': 'Phenol lipids', 'id': 899}, {'classification': 'Phenol lipids (Classyfire)', 'id': 951}]

>  <molecular_mass>  (802) 
222.37

$$$$
SANC00915_minRM1.pdb
     RDKit          3D

 39 40  0  0  1  0  0  0  0  0999 V2000
   -3.6550   -1.8270   -0.2430 C   0  0  0  0  0  0  0  0  0  0  0  0
   -2.7390   -0.6920    0.0230 C   0  0  0  0  0  0  0  0  0  0  0  0
   -2.8490    0.4990   -0.5670 C   0  0  0  0  0  0  0  0  0  0  0  0
   -1.8390    1.5430   -0.2320 C   0  0  0  0  0  0  0  0  0  0  0  0
   -0.4560    0.8930   -0.3430 C   0  0  2  0  0  0  0  0  0  0  0  0
   -0.3120   -0.3030    0.6200 C   0  0  1  0  0  0  0  0  0  0  0  0
   -1.6710   -0.8910    1.0430 C   0  0  0  0  0  0  0  0  0  0  0  0
    0.5520   -1.4000   -0.0100 C   0  0  0  0  0  0  0  0  0  0  0  0
    2.0390   -1.0390   -0.1310 C   0  0  1  0  0  0  0  0  0  0  0  0
    2.2690    0.1710   -1.0470 C   0  0  0  0  0  0  0  0  0  0  0  0
    1.9290    1.4640   -0.3930 C   0  0  0  0  0  0  0  0  0  0  0  0
    0.6830    1.8270   -0.0790 C   0  0  0  0  0  0  0  0  0  0  0  0
    0.4150    3.1340    0.5750 C   0  0  0  0  0  0  0  0  0  0  0  0
    2.6320   -0.7730    1.2500 C   0  0  0  0  0  0  0  0  0  0  0  0
    2.7650   -2.2420   -0.7490 C   0  0  0  0  0  0  0  0  0  0  0  0
   -3.1130   -2.6810   -0.6790 H   0  0  0  0  0  0  0  0  0  0  0  0
   -4.4670   -1.5770   -0.9420 H   0  0  0  0  0  0  0  0  0  0  0  0
   -4.1320   -2.1880    0.6810 H   0  0  0  0  0  0  0  0  0  0  0  0
   -3.6280    0.7450   -1.2900 H   0  0  0  0  0  0  0  0  0  0  0  0
   -1.9220    2.4160   -0.9110 H   0  0  0  0  0  0  0  0  0  0  0  0
   -2.0360    1.9440    0.7850 H   0  0  0  0  0  0  0  0  0  0  0  0
   -0.3800    0.5390   -1.4080 H   0  0  0  0  0  0  0  0  0  0  0  0
    0.1960    0.0490    1.5590 H   0  0  0  0  0  0  0  0  0  0  0  0
   -1.5730   -1.9610    1.3240 H   0  0  0  0  0  0  0  0  0  0  0  0
   -2.0120   -0.4030    1.9850 H   0  0  0  0  0  0  0  0  0  0  0  0
    0.4690   -2.3290    0.5970 H   0  0  0  0  0  0  0  0  0  0  0  0
    0.1420   -1.6900   -1.0000 H   0  0  0  0  0  0  0  0  0  0  0  0
    1.7080    0.0520   -2.0000 H   0  0  0  0  0  0  0  0  0  0  0  0
    3.3330    0.1980   -1.3740 H   0  0  0  0  0  0  0  0  0  0  0  0
    2.7790    2.1240   -0.1860 H   0  0  0  0  0  0  0  0  0  0  0  0
   -0.2220    3.7840   -0.0440 H   0  0  0  0  0  0  0  0  0  0  0  0
    1.3270    3.7150    0.7800 H   0  0  0  0  0  0  0  0  0  0  0  0
   -0.0880    3.0070    1.5460 H   0  0  0  0  0  0  0  0  0  0  0  0
    2.0780    0.0070    1.7970 H   0  0  0  0  0  0  0  0  0  0  0  0
    2.6180   -1.6690    1.8870 H   0  0  0  0  0  0  0  0  0  0  0  0
    3.6770   -0.4390    1.1930 H   0  0  0  0  0  0  0  0  0  0  0  0
    2.6100   -3.1670   -0.1750 H   0  0  0  0  0  0  0  0  0  0  0  0
    2.4290   -2.4490   -1.7750 H   0  0  0  0  0  0  0  0  0  0  0  0
    3.8540   -2.0930   -0.7980 H   0  0  0  0  0  0  0  0  0  0  0  0
  1 17  1  0
  1 16  1  0
  1  2  1  0
  1 18  1  0
  2  3  2  0
  2  7  1  0
  3 19  1  0
  3  4  1  0
  4 20  1  0
  4  5  1  0
  4 21  1  0
  5 22  1  6
  5 12  1  0
  5  6  1  0
  6  8  1  0
  6  7  1  0
  6 23  1  1
  7 24  1  0
  7 25  1  0
  8 27  1  0
  8  9  1  0
  8 26  1  0
  9 10  1  0
  9 15  1  6
  9 14  1  0
 10 28  1  0
 10 29  1  0
 10 11  1  0
 11 30  1  0
 11 12  2  0
 12 13  1  0
 13 31  1  0
 13 32  1  0
 13 33  1  0
 14 36  1  0
 14 34  1  0
 14 35  1  0
 15 38  1  0
 15 39  1  0
 15 37  1  0
M  END
>  <id>  (803) 
915

>  <scaffolds>  (803) 
['C1=CCCCC1', 'C1=CC2CC=CCC2CCC1']

>  <name>  (803) 
Bicyclogermacren

>  <formula>  (803) 
C15H24

>  <SMILES>  (803) 
CC1=CCC2C(C1)CC(CC=C2C)(C)C

>  <ChEMBL_id>  (803) 


>  <ZINC_id>  (803) 


>  <PubChem_id>  (803) 


>  <DrugBank_id>  (803) 


>  <CAS_no>  (803) 
24703-35-3

>  <references>  (803) 
[{'journal': {'name': 'Phytochemistry', 'id': 10}, 'title': 'A chemometric assessment of essential oil variation of three Salvia species indigenous to South Africa', 'year': 2020, 'start_page': None, 'volume': None, 'issue': None, 'doi': '10.1016/j.phytochem.2019.112249', 'isbn': '', 'despositor': {'code': 'BND', 'first_name': "Bakary N'tji", 'last_name': 'Diallo', 'id': 26}, 'refauthors_set': [{'author': {'first_name': 'M.J.Lim Ah ', 'initials': 'MT', 'last_name': 'Tock', 'id': 1004}, 'first_author': True, 'id': 1586}], 'id': 485}]

>  <classifications>  (803) 
[{'classification': 'Unsaturated hydrocarbons', 'id': 915}, {'classification': 'Unsaturated hydrocarbons (Classyfire)', 'id': 991}]

>  <molecular_mass>  (803) 
204.35

$$$$
SANC00916_minRM1.pdb
     RDKit          3D

 42 43  0  0  1  0  0  0  0  0999 V2000
    1.3860    0.9880   -1.6090 C   0  0  0  0  0  0  0  0  0  0  0  0
    1.3020    0.9930   -0.0850 C   0  0  2  0  0  0  0  0  0  0  0  0
    2.6620    1.3950    0.5080 C   0  0  0  0  0  0  0  0  0  0  0  0
    3.7400    0.3760    0.1660 C   0  0  0  0  0  0  0  0  0  0  0  0
    3.3350   -1.0170    0.6390 C   0  0  0  0  0  0  0  0  0  0  0  0
    1.9900   -1.3740    0.0890 C   0  0  0  0  0  0  0  0  0  0  0  0
    1.8130   -2.4720   -0.6380 C   0  0  0  0  0  0  0  0  0  0  0  0
    0.9210   -0.3930    0.4620 C   0  0  2  0  0  0  0  0  0  0  0  0
   -0.4760   -0.7930   -0.0030 C   0  0  0  0  0  0  0  0  0  0  0  0
   -1.5090    0.2270    0.4810 C   0  0  1  0  0  0  0  0  0  0  0  0
   -1.1550    1.6010   -0.0800 C   0  0  0  0  0  0  0  0  0  0  0  0
    0.2460    2.0100    0.3640 C   0  0  0  0  0  0  0  0  0  0  0  0
   -2.9380   -0.2330    0.0910 C   0  0  1  0  0  0  0  0  0  0  0  0
   -3.2730   -1.5460    0.8140 C   0  0  0  0  0  0  0  0  0  0  0  0
   -3.9890    0.8210    0.4640 C   0  0  0  0  0  0  0  0  0  0  0  0
   -3.0320   -0.5450   -1.2680 O   0  0  0  0  0  0  0  0  0  0  0  0
    0.3970    1.0200   -2.0920 H   0  0  0  0  0  0  0  0  0  0  0  0
    1.8870    0.0950   -2.0080 H   0  0  0  0  0  0  0  0  0  0  0  0
    1.9350    1.8590   -1.9970 H   0  0  0  0  0  0  0  0  0  0  0  0
    2.9600    2.4040    0.1520 H   0  0  0  0  0  0  0  0  0  0  0  0
    2.5890    1.5060    1.6110 H   0  0  0  0  0  0  0  0  0  0  0  0
    3.9560    0.3700   -0.9220 H   0  0  0  0  0  0  0  0  0  0  0  0
    4.7060    0.6700    0.6300 H   0  0  0  0  0  0  0  0  0  0  0  0
    4.1130   -1.7570    0.3550 H   0  0  0  0  0  0  0  0  0  0  0  0
    3.3090   -1.0640    1.7490 H   0  0  0  0  0  0  0  0  0  0  0  0
    2.6160   -3.1630   -0.8770 H   0  0  0  0  0  0  0  0  0  0  0  0
    0.8730   -2.7980   -1.0680 H   0  0  0  0  0  0  0  0  0  0  0  0
    0.9040   -0.3470    1.5860 H   0  0  0  0  0  0  0  0  0  0  0  0
   -0.7350   -1.8040    0.3880 H   0  0  0  0  0  0  0  0  0  0  0  0
   -0.5190   -0.9040   -1.1060 H   0  0  0  0  0  0  0  0  0  0  0  0
   -1.4790    0.2830    1.6010 H   0  0  0  0  0  0  0  0  0  0  0  0
   -1.8780    2.3740    0.2560 H   0  0  0  0  0  0  0  0  0  0  0  0
   -1.2210    1.6140   -1.1900 H   0  0  0  0  0  0  0  0  0  0  0  0
    0.4920    3.0170   -0.0360 H   0  0  0  0  0  0  0  0  0  0  0  0
    0.2690    2.1390    1.4670 H   0  0  0  0  0  0  0  0  0  0  0  0
   -2.5100   -2.3210    0.6380 H   0  0  0  0  0  0  0  0  0  0  0  0
   -3.3450   -1.4000    1.9000 H   0  0  0  0  0  0  0  0  0  0  0  0
   -4.2310   -1.9690    0.4800 H   0  0  0  0  0  0  0  0  0  0  0  0
   -3.8780    1.1600    1.5020 H   0  0  0  0  0  0  0  0  0  0  0  0
   -5.0100    0.4270    0.3640 H   0  0  0  0  0  0  0  0  0  0  0  0
   -3.9520    1.7160   -0.1740 H   0  0  0  0  0  0  0  0  0  0  0  0
   -2.8300    0.2470   -1.7730 H   0  0  0  0  0  0  0  0  0  0  0  0
  1 17  1  0
  1 18  1  0
  1 19  1  0
  2  1  1  6
  2 12  1  0
  2  8  1  0
  2  3  1  0
  3 20  1  0
  3  4  1  0
  3 21  1  0
  4 22  1  0
  4 23  1  0
  4  5  1  0
  5  6  1  0
  5 24  1  0
  5 25  1  0
  6  7  2  0
  6  8  1  0
  7 27  1  0
  7 26  1  0
  8  9  1  0
  8 28  1  1
  9 30  1  0
  9 29  1  0
  9 10  1  0
 10 11  1  0
 10 13  1  0
 10 31  1  1
 11 33  1  0
 11 32  1  0
 11 12  1  0
 12 34  1  0
 12 35  1  0
 13 16  1  6
 13 15  1  0
 13 14  1  0
 14 38  1  0
 14 36  1  0
 14 37  1  0
 15 41  1  0
 15 40  1  0
 15 39  1  0
 16 42  1  0
M  END
>  <id>  (804) 
916

>  <scaffolds>  (804) 
['C1CCCCC1', 'C=C1CCCC2CCCCC12', 'C1CCC2CCCCC2C1']

>  <name>  (804) 
[beta]-Eudesmol

>  <formula>  (804) 
C15H26O

>  <SMILES>  (804) 
C[C@]12CCCC(=C)[C@@H]1C[C@@H](CC2)C(C)(C)O

>  <ChEMBL_id>  (804) 
SCHEMBL310604

>  <ZINC_id>  (804) 
ZINC4098262

>  <PubChem_id>  (804) 


>  <DrugBank_id>  (804) 


>  <CAS_no>  (804) 
473-15-4

>  <references>  (804) 
[{'journal': {'name': 'Phytochemistry', 'id': 10}, 'title': 'A chemometric assessment of essential oil variation of three Salvia species indigenous to South Africa', 'year': 2020, 'start_page': None, 'volume': None, 'issue': None, 'doi': '10.1016/j.phytochem.2019.112249', 'isbn': '', 'despositor': {'code': 'BND', 'first_name': "Bakary N'tji", 'last_name': 'Diallo', 'id': 26}, 'refauthors_set': [{'author': {'first_name': 'M.J.Lim Ah ', 'initials': 'MT', 'last_name': 'Tock', 'id': 1004}, 'first_author': True, 'id': 1586}], 'id': 485}]

>  <classifications>  (804) 
[{'classification': 'Sesquiterpene', 'id': 828}, {'classification': 'Phenol lipids (Classyfire)', 'id': 951}]

>  <molecular_mass>  (804) 
222.37

$$$$
SANC00917_minRM1.pdb
     RDKit          3D

 42 43  0  0  1  0  0  0  0  0999 V2000
   -1.7640   -2.7770   -0.0410 C   0  0  0  0  0  0  0  0  0  0  0  0
   -2.0820   -1.3280   -0.1520 C   0  0  0  0  0  0  0  0  0  0  0  0
   -3.3400   -0.9030   -0.0060 C   0  0  0  0  0  0  0  0  0  0  0  0
   -3.7560    0.5210   -0.0990 C   0  0  0  0  0  0  0  0  0  0  0  0
   -2.6470    1.4350   -0.6030 C   0  0  0  0  0  0  0  0  0  0  0  0
   -1.2980    1.0280    0.0030 C   0  0  1  0  0  0  0  0  0  0  0  0
   -0.9720   -0.3860   -0.5040 C   0  0  1  0  0  0  0  0  0  0  0  0
    0.4010   -0.8350    0.0040 C   0  0  0  0  0  0  0  0  0  0  0  0
    1.4840    0.1420   -0.4600 C   0  0  1  0  0  0  0  0  0  0  0  0
    1.1570    1.5490    0.0340 C   0  0  0  0  0  0  0  0  0  0  0  0
   -0.2080    1.9910   -0.4770 C   0  0  0  0  0  0  0  0  0  0  0  0
    2.9020   -0.2720    0.0140 C   0  0  2  0  0  0  0  0  0  0  0  0
    3.9500    0.6600   -0.6130 C   0  0  0  0  0  0  0  0  0  0  0  0
    3.2290   -1.7200   -0.3780 C   0  0  0  0  0  0  0  0  0  0  0  0
    3.0600   -0.1030    1.3920 O   0  0  0  0  0  0  0  0  0  0  0  0
   -1.3860    1.0800    1.5260 C   0  0  0  0  0  0  0  0  0  0  0  0
   -1.1430   -2.9920    0.8420 H   0  0  0  0  0  0  0  0  0  0  0  0
   -1.2240   -3.1480   -0.9260 H   0  0  0  0  0  0  0  0  0  0  0  0
   -2.6560   -3.4140    0.0550 H   0  0  0  0  0  0  0  0  0  0  0  0
   -4.1540   -1.6030    0.2130 H   0  0  0  0  0  0  0  0  0  0  0  0
   -4.1180    0.8550    0.9000 H   0  0  0  0  0  0  0  0  0  0  0  0
   -4.6510    0.6090   -0.7550 H   0  0  0  0  0  0  0  0  0  0  0  0
   -2.8840    2.4940   -0.3700 H   0  0  0  0  0  0  0  0  0  0  0  0
   -2.5990    1.4060   -1.7120 H   0  0  0  0  0  0  0  0  0  0  0  0
   -0.9320   -0.3700   -1.6280 H   0  0  0  0  0  0  0  0  0  0  0  0
    0.3910   -0.9500    1.1060 H   0  0  0  0  0  0  0  0  0  0  0  0
    0.6310   -1.8490   -0.3850 H   0  0  0  0  0  0  0  0  0  0  0  0
    1.5010    0.1440   -1.5810 H   0  0  0  0  0  0  0  0  0  0  0  0
    1.1810    1.5950    1.1460 H   0  0  0  0  0  0  0  0  0  0  0  0
    1.9420    2.2690   -0.2890 H   0  0  0  0  0  0  0  0  0  0  0  0
   -0.2030    2.0630   -1.5850 H   0  0  0  0  0  0  0  0  0  0  0  0
   -0.4280    3.0250   -0.1350 H   0  0  0  0  0  0  0  0  0  0  0  0
    3.7280    1.7210   -0.4190 H   0  0  0  0  0  0  0  0  0  0  0  0
    4.9580    0.4740   -0.2160 H   0  0  0  0  0  0  0  0  0  0  0  0
    4.0010    0.5310   -1.7020 H   0  0  0  0  0  0  0  0  0  0  0  0
    4.2910   -1.9540   -0.2100 H   0  0  0  0  0  0  0  0  0  0  0  0
    3.0250   -1.9120   -1.4400 H   0  0  0  0  0  0  0  0  0  0  0  0
    2.6660   -2.4650    0.2010 H   0  0  0  0  0  0  0  0  0  0  0  0
    2.4200   -0.6630    1.8400 H   0  0  0  0  0  0  0  0  0  0  0  0
   -0.3960    1.0970    2.0110 H   0  0  0  0  0  0  0  0  0  0  0  0
   -1.9230    0.2240    1.9580 H   0  0  0  0  0  0  0  0  0  0  0  0
   -1.9040    1.9860    1.8760 H   0  0  0  0  0  0  0  0  0  0  0  0
  1 18  1  0
  1  2  1  0
  1 19  1  0
  1 17  1  0
  2  7  1  0
  2  3  2  0
  3  4  1  0
  3 20  1  0
  4 22  1  0
  4  5  1  0
  4 21  1  0
  5 24  1  0
  5 23  1  0
  5  6  1  0
  6  7  1  0
  6 11  1  0
  6 16  1  1
  7 25  1  6
  7  8  1  0
  8  9  1  0
  8 27  1  0
  8 26  1  0
  9 28  1  6
  9 12  1  0
  9 10  1  0
 10 11  1  0
 10 30  1  0
 10 29  1  0
 11 31  1  0
 11 32  1  0
 12 13  1  0
 12 14  1  0
 12 15  1  1
 13 35  1  0
 13 33  1  0
 13 34  1  0
 14 37  1  0
 14 36  1  0
 14 38  1  0
 15 39  1  0
 16 42  1  0
 16 41  1  0
 16 40  1  0
M  END
>  <id>  (805) 
917

>  <scaffolds>  (805) 
['C1=CC2CCCCC2CC1', 'C1=CCCCC1', 'C1CCCCC1']

>  <name>  (805) 
[alpha]-Eudesmol

>  <formula>  (805) 
C15H26O

>  <SMILES>  (805) 
CC1=CCC[C@]2([C@H]1C[C@@H](CC2)C(C)(C)O)C

>  <ChEMBL_id>  (805) 
CHEMBL3120654

>  <ZINC_id>  (805) 


>  <PubChem_id>  (805) 


>  <DrugBank_id>  (805) 


>  <CAS_no>  (805) 
473-16-5

>  <references>  (805) 
[{'journal': {'name': 'Phytochemistry', 'id': 10}, 'title': 'A chemometric assessment of essential oil variation of three Salvia species indigenous to South Africa', 'year': 2020, 'start_page': None, 'volume': None, 'issue': None, 'doi': '10.1016/j.phytochem.2019.112249', 'isbn': '', 'despositor': {'code': 'BND', 'first_name': "Bakary N'tji", 'last_name': 'Diallo', 'id': 26}, 'refauthors_set': [{'author': {'first_name': 'M.J.Lim Ah ', 'initials': 'MT', 'last_name': 'Tock', 'id': 1004}, 'first_author': True, 'id': 1586}], 'id': 485}]

>  <classifications>  (805) 
[{'classification': 'Sesquiterpene', 'id': 828}, {'classification': 'Phenol lipids (Classyfire)', 'id': 951}]

>  <molecular_mass>  (805) 
222.37

$$$$
SANC00918_minRM1.pdb
     RDKit          3D

 39 40  0  0  1  0  0  0  0  0999 V2000
    3.6350    1.6380   -1.0410 C   0  0  0  0  0  0  0  0  0  0  0  0
    2.4630    1.0860   -0.3200 C   0  0  0  0  0  0  0  0  0  0  0  0
    1.2030    1.2240   -0.7400 C   0  0  0  0  0  0  0  0  0  0  0  0
    0.1210    0.6150    0.0980 C   0  0  1  0  0  0  0  0  0  0  0  0
   -1.2740    0.7410   -0.5300 C   0  0  1  0  0  0  0  0  0  0  0  0
   -1.4550   -0.3840   -1.5420 C   0  0  0  0  0  0  0  0  0  0  0  0
   -1.3820   -1.7450   -0.8610 C   0  0  0  0  0  0  0  0  0  0  0  0
   -0.1540   -1.8630   -0.0250 C   0  0  0  0  0  0  0  0  0  0  0  0
    0.5510   -0.7950    0.3610 C   0  0  0  0  0  0  0  0  0  0  0  0
    1.8790   -0.9270    1.0340 C   0  0  0  0  0  0  0  0  0  0  0  0
    2.7210    0.3540    0.9550 C   0  0  0  0  0  0  0  0  0  0  0  0
    0.2550   -3.2510    0.3190 C   0  0  0  0  0  0  0  0  0  0  0  0
   -2.3550    0.7370    0.5670 C   0  0  2  0  0  0  0  0  0  0  0  0
   -3.7580    0.7090   -0.0290 C   0  0  0  0  0  0  0  0  0  0  0  0
   -2.2190    1.9900    1.4310 C   0  0  0  0  0  0  0  0  0  0  0  0
    4.2980    0.8360   -1.3980 H   0  0  0  0  0  0  0  0  0  0  0  0
    4.2380    2.2900   -0.3920 H   0  0  0  0  0  0  0  0  0  0  0  0
    3.3600    2.2370   -1.9220 H   0  0  0  0  0  0  0  0  0  0  0  0
    0.9330    1.7470   -1.6580 H   0  0  0  0  0  0  0  0  0  0  0  0
    0.1110    1.1620    1.0870 H   0  0  0  0  0  0  0  0  0  0  0  0
   -1.3470    1.7210   -1.0720 H   0  0  0  0  0  0  0  0  0  0  0  0
   -0.6650   -0.3090   -2.3200 H   0  0  0  0  0  0  0  0  0  0  0  0
   -2.4010   -0.2780   -2.1110 H   0  0  0  0  0  0  0  0  0  0  0  0
   -1.3950   -2.5470   -1.6330 H   0  0  0  0  0  0  0  0  0  0  0  0
   -2.2830   -1.9500   -0.2460 H   0  0  0  0  0  0  0  0  0  0  0  0
    1.7390   -1.2300    2.0940 H   0  0  0  0  0  0  0  0  0  0  0  0
    2.4560   -1.7590    0.5740 H   0  0  0  0  0  0  0  0  0  0  0  0
    2.4920    1.0300    1.8080 H   0  0  0  0  0  0  0  0  0  0  0  0
    3.7960    0.1100    1.0820 H   0  0  0  0  0  0  0  0  0  0  0  0
   -0.5640   -3.9790    0.2070 H   0  0  0  0  0  0  0  0  0  0  0  0
    1.0750   -3.6010   -0.3270 H   0  0  0  0  0  0  0  0  0  0  0  0
    0.6000   -3.3470    1.3600 H   0  0  0  0  0  0  0  0  0  0  0  0
   -2.2140   -0.1600    1.2230 H   0  0  0  0  0  0  0  0  0  0  0  0
   -4.5300    0.9070    0.7310 H   0  0  0  0  0  0  0  0  0  0  0  0
   -4.0190   -0.2650   -0.4670 H   0  0  0  0  0  0  0  0  0  0  0  0
   -3.8950    1.4630   -0.8170 H   0  0  0  0  0  0  0  0  0  0  0  0
   -1.2030    2.0930    1.8480 H   0  0  0  0  0  0  0  0  0  0  0  0
   -2.4260    2.9130    0.8710 H   0  0  0  0  0  0  0  0  0  0  0  0
   -2.9070    1.9780    2.2880 H   0  0  0  0  0  0  0  0  0  0  0  0
  1 18  1  0
  1 16  1  0
  1 17  1  0
  1  2  1  0
  2  3  2  0
  2 11  1  0
  3 19  1  0
  3  4  1  0
  4  5  1  0
  4  9  1  0
  4 20  1  1
  5  6  1  0
  5 21  1  6
  5 13  1  0
  6 22  1  0
  6 23  1  0
  6  7  1  0
  7 24  1  0
  7 25  1  0
  7  8  1  0
  8 12  1  0
  8  9  2  0
  9 10  1  0
 10 27  1  0
 10 11  1  0
 10 26  1  0
 11 29  1  0
 11 28  1  0
 12 31  1  0
 12 30  1  0
 12 32  1  0
 13 14  1  0
 13 33  1  1
 13 15  1  0
 14 36  1  0
 14 35  1  0
 14 34  1  0
 15 38  1  0
 15 37  1  0
 15 39  1  0
M  END
>  <id>  (806) 
918

>  <scaffolds>  (806) 
['C1=CCCCC1', 'C1=CC2CCCC=C2CC1']

>  <name>  (806) 
(+)-[delta]-Cadinene

>  <formula>  (806) 
C15H24

>  <SMILES>  (806) 
CC1=C[C@H]2[C@@H](CCC(=C2CC1)C)C(C)C

>  <ChEMBL_id>  (806) 
CHEMBL445759

>  <ZINC_id>  (806) 
ZINC8220462

>  <PubChem_id>  (806) 


>  <DrugBank_id>  (806) 


>  <CAS_no>  (806) 
483-76-1

>  <references>  (806) 
[{'journal': {'name': 'Phytochemistry', 'id': 10}, 'title': 'A chemometric assessment of essential oil variation of three Salvia species indigenous to South Africa', 'year': 2020, 'start_page': None, 'volume': None, 'issue': None, 'doi': '10.1016/j.phytochem.2019.112249', 'isbn': '', 'despositor': {'code': 'BND', 'first_name': "Bakary N'tji", 'last_name': 'Diallo', 'id': 26}, 'refauthors_set': [{'author': {'first_name': 'M.J.Lim Ah ', 'initials': 'MT', 'last_name': 'Tock', 'id': 1004}, 'first_author': True, 'id': 1586}], 'id': 485}]

>  <classifications>  (806) 
[{'classification': 'Sesquiterpene', 'id': 828}, {'classification': 'Phenol lipids (Classyfire)', 'id': 951}]

>  <molecular_mass>  (806) 
204.35

$$$$
SANC00919_minRM1.pdb
     RDKit          3D

 42 42  0  0  1  0  0  0  0  0999 V2000
    5.2360   -1.3740    0.3230 C   0  0  0  0  0  0  0  0  0  0  0  0
    3.8750   -0.7990    0.1500 C   0  0  0  0  0  0  0  0  0  0  0  0
    2.7920   -1.5650    0.0340 C   0  0  0  0  0  0  0  0  0  0  0  0
    1.4180   -1.0190   -0.1550 C   0  0  0  0  0  0  0  0  0  0  0  0
    1.3380    0.4490    0.2510 C   0  0  1  0  0  0  0  0  0  0  0  0
    2.4860    1.1940   -0.4300 C   0  0  0  0  0  0  0  0  0  0  0  0
    3.8130    0.6910    0.1300 C   0  0  0  0  0  0  0  0  0  0  0  0
   -0.0280    1.1100   -0.0730 C   0  0  1  0  0  0  0  0  0  0  0  0
   -0.2520    1.3180   -1.5720 C   0  0  0  0  0  0  0  0  0  0  0  0
   -1.2050    0.3490    0.5880 C   0  0  0  0  0  0  0  0  0  0  0  0
   -1.8100   -0.7930   -0.2340 C   0  0  0  0  0  0  0  0  0  0  0  0
   -3.1700   -0.4240   -0.7250 C   0  0  0  0  0  0  0  0  0  0  0  0
   -4.2800   -0.5670    0.0020 C   0  0  0  0  0  0  0  0  0  0  0  0
   -4.2750   -1.1220    1.3820 C   0  0  0  0  0  0  0  0  0  0  0  0
   -5.6160   -0.1860   -0.5300 C   0  0  0  0  0  0  0  0  0  0  0  0
   -0.0140    2.4210    0.4370 O   0  0  0  0  0  0  0  0  0  0  0  0
    5.8600   -1.1950   -0.5660 H   0  0  0  0  0  0  0  0  0  0  0  0
    5.2360   -2.4610    0.4930 H   0  0  0  0  0  0  0  0  0  0  0  0
    5.7620   -0.9250    1.1790 H   0  0  0  0  0  0  0  0  0  0  0  0
    2.8610   -2.6580    0.0540 H   0  0  0  0  0  0  0  0  0  0  0  0
    1.1330   -1.1680   -1.2190 H   0  0  0  0  0  0  0  0  0  0  0  0
    0.6970   -1.6300    0.4300 H   0  0  0  0  0  0  0  0  0  0  0  0
    1.4920    0.5020    1.3630 H   0  0  0  0  0  0  0  0  0  0  0  0
    2.4010    2.2910   -0.2910 H   0  0  0  0  0  0  0  0  0  0  0  0
    2.4580    1.0440   -1.5300 H   0  0  0  0  0  0  0  0  0  0  0  0
    4.6580    1.1090   -0.4580 H   0  0  0  0  0  0  0  0  0  0  0  0
    3.9770    1.0730    1.1610 H   0  0  0  0  0  0  0  0  0  0  0  0
    0.3480    2.1480   -1.9760 H   0  0  0  0  0  0  0  0  0  0  0  0
    0.0050    0.4330   -2.1690 H   0  0  0  0  0  0  0  0  0  0  0  0
   -1.3000    1.5690   -1.7910 H   0  0  0  0  0  0  0  0  0  0  0  0
   -0.8850   -0.0330    1.5820 H   0  0  0  0  0  0  0  0  0  0  0  0
   -2.0090    1.0780    0.8370 H   0  0  0  0  0  0  0  0  0  0  0  0
   -1.1770   -1.0880   -1.0950 H   0  0  0  0  0  0  0  0  0  0  0  0
   -1.8510   -1.7250    0.3730 H   0  0  0  0  0  0  0  0  0  0  0  0
   -3.2090   -0.0090   -1.7370 H   0  0  0  0  0  0  0  0  0  0  0  0
   -3.5010   -0.6630    2.0160 H   0  0  0  0  0  0  0  0  0  0  0  0
   -4.0850   -2.2070    1.3760 H   0  0  0  0  0  0  0  0  0  0  0  0
   -5.2300   -0.9760    1.9090 H   0  0  0  0  0  0  0  0  0  0  0  0
   -6.3230   -1.0290   -0.4830 H   0  0  0  0  0  0  0  0  0  0  0  0
   -6.0570    0.6370    0.0530 H   0  0  0  0  0  0  0  0  0  0  0  0
   -5.5970    0.1470   -1.5780 H   0  0  0  0  0  0  0  0  0  0  0  0
    0.1040    2.3800    1.3900 H   0  0  0  0  0  0  0  0  0  0  0  0
  1 17  1  0
  1  2  1  0
  1 18  1  0
  1 19  1  0
  2  3  2  0
  2  7  1  0
  3  4  1  0
  3 20  1  0
  4 21  1  0
  4  5  1  0
  4 22  1  0
  5  6  1  0
  5  8  1  0
  5 23  1  1
  6 25  1  0
  6 24  1  0
  6  7  1  0
  7 26  1  0
  7 27  1  0
  8  9  1  0
  8 16  1  1
  8 10  1  0
  9 29  1  0
  9 28  1  0
  9 30  1  0
 10 11  1  0
 10 32  1  0
 10 31  1  0
 11 33  1  0
 11 12  1  0
 11 34  1  0
 12 35  1  0
 12 13  2  0
 13 15  1  0
 13 14  1  0
 14 37  1  0
 14 38  1  0
 14 36  1  0
 15 41  1  0
 15 39  1  0
 15 40  1  0
 16 42  1  0
M  END
>  <id>  (807) 
919

>  <scaffolds>  (807) 
['C1=CCCCC1']

>  <name>  (807) 
Bisabolol

>  <formula>  (807) 
C15H26O

>  <SMILES>  (807) 
CC1=CC[C@@H](CC1)[C@@](C)(CCC=C(C)C)O

>  <ChEMBL_id>  (807) 
CHEMBL1171719

>  <ZINC_id>  (807) 
ZINC1609418

>  <PubChem_id>  (807) 


>  <DrugBank_id>  (807) 


>  <CAS_no>  (807) 
515-69-5

>  <references>  (807) 
[{'journal': {'name': 'Phytochemistry', 'id': 10}, 'title': 'A chemometric assessment of essential oil variation of three Salvia species indigenous to South Africa', 'year': 2020, 'start_page': None, 'volume': None, 'issue': None, 'doi': '10.1016/j.phytochem.2019.112249', 'isbn': '', 'despositor': {'code': 'BND', 'first_name': "Bakary N'tji", 'last_name': 'Diallo', 'id': 26}, 'refauthors_set': [{'author': {'first_name': 'M.J.Lim Ah ', 'initials': 'MT', 'last_name': 'Tock', 'id': 1004}, 'first_author': True, 'id': 1586}], 'id': 485}]

>  <classifications>  (807) 
[{'classification': 'Sesquiterpene', 'id': 828}, {'classification': 'Phenol lipids (Classyfire)', 'id': 951}]

>  <molecular_mass>  (807) 
222.37

$$$$
SANC00920_minRM1.pdb
     RDKit          3D

 42 44  0  0  1  0  0  0  0  0999 V2000
   -1.1420    2.3700    1.4240 C   0  0  0  0  0  0  0  0  0  0  0  0
   -0.9790    2.1970   -0.0780 C   0  0  2  0  0  0  0  0  0  0  0  0
   -2.3470    1.9610   -0.7220 C   0  0  0  0  0  0  0  0  0  0  0  0
   -2.5600    0.4590   -0.5820 C   0  0  0  0  0  0  0  0  0  0  0  0
   -1.1670   -0.1620   -0.7680 C   0  0  1  0  0  0  0  0  0  0  0  0
   -0.1450    0.9580   -0.5090 C   0  0  2  0  0  0  0  0  0  0  0  0
    1.0530    0.7520    0.3740 C   0  0  1  0  0  0  0  0  0  0  0  0
    1.7650   -0.5050    0.8400 C   0  0  2  0  0  0  0  0  0  0  0  0
    2.4170    0.3820   -0.2050 C   0  0  1  0  0  0  0  0  0  0  0  0
    2.5360   -0.1110   -1.6170 C   0  0  0  0  0  0  0  0  0  0  0  0
    3.6040    1.2130    0.1990 C   0  0  0  0  0  0  0  0  0  0  0  0
    1.4330   -1.9400    0.5640 C   0  0  0  0  0  0  0  0  0  0  0  0
    0.2690   -2.1960   -0.3710 C   0  0  0  0  0  0  0  0  0  0  0  0
   -1.0350   -1.4750    0.0260 C   0  0  1  0  0  0  0  0  0  0  0  0
   -1.2000   -1.2920    1.5340 C   0  0  0  0  0  0  0  0  0  0  0  0
   -2.1220   -2.3060   -0.3100 O   0  0  0  0  0  0  0  0  0  0  0  0
   -0.1710    2.4640    1.9380 H   0  0  0  0  0  0  0  0  0  0  0  0
   -1.7130    3.2780    1.6680 H   0  0  0  0  0  0  0  0  0  0  0  0
   -1.6680    1.5310    1.9010 H   0  0  0  0  0  0  0  0  0  0  0  0
   -0.4990    3.1240   -0.4800 H   0  0  0  0  0  0  0  0  0  0  0  0
   -3.1570    2.5540   -0.2570 H   0  0  0  0  0  0  0  0  0  0  0  0
   -2.3500    2.2730   -1.7860 H   0  0  0  0  0  0  0  0  0  0  0  0
   -3.0030    0.2040    0.4030 H   0  0  0  0  0  0  0  0  0  0  0  0
   -3.2920    0.0640   -1.3140 H   0  0  0  0  0  0  0  0  0  0  0  0
   -1.0660   -0.4260   -1.8570 H   0  0  0  0  0  0  0  0  0  0  0  0
    0.2720    1.2260   -1.5200 H   0  0  0  0  0  0  0  0  0  0  0  0
    1.0930    1.5550    1.1470 H   0  0  0  0  0  0  0  0  0  0  0  0
    2.1820   -0.4260    1.8680 H   0  0  0  0  0  0  0  0  0  0  0  0
    1.6740   -0.7150   -1.9460 H   0  0  0  0  0  0  0  0  0  0  0  0
    2.6320    0.7200   -2.3310 H   0  0  0  0  0  0  0  0  0  0  0  0
    3.4240   -0.7480   -1.7420 H   0  0  0  0  0  0  0  0  0  0  0  0
    3.6990    2.1110   -0.4290 H   0  0  0  0  0  0  0  0  0  0  0  0
    3.5570    1.5630    1.2400 H   0  0  0  0  0  0  0  0  0  0  0  0
    4.5440    0.6490    0.1030 H   0  0  0  0  0  0  0  0  0  0  0  0
    1.2580   -2.4690    1.5270 H   0  0  0  0  0  0  0  0  0  0  0  0
    2.3480   -2.4300    0.1570 H   0  0  0  0  0  0  0  0  0  0  0  0
    0.5620   -1.9280   -1.4130 H   0  0  0  0  0  0  0  0  0  0  0  0
    0.0990   -3.2960   -0.4170 H   0  0  0  0  0  0  0  0  0  0  0  0
   -2.2030   -0.9080    1.7860 H   0  0  0  0  0  0  0  0  0  0  0  0
   -0.4790   -0.5840    1.9610 H   0  0  0  0  0  0  0  0  0  0  0  0
   -1.0910   -2.2440    2.0740 H   0  0  0  0  0  0  0  0  0  0  0  0
   -2.1200   -2.4510   -1.2600 H   0  0  0  0  0  0  0  0  0  0  0  0
  1  2  1  0
  1 18  1  0
  1 19  1  0
  1 17  1  0
  2  3  1  0
  2  6  1  0
  2 20  1  6
  3 22  1  0
  3  4  1  0
  3 21  1  0
  4 24  1  0
  4  5  1  0
  4 23  1  0
  5 25  1  6
  5  6  1  0
  5 14  1  0
  6 26  1  6
  6  7  1  0
  7  9  1  0
  7  8  1  0
  7 27  1  1
  8  9  1  0
  8 12  1  0
  8 28  1  1
  9 10  1  6
  9 11  1  0
 10 30  1  0
 10 29  1  0
 10 31  1  0
 11 32  1  0
 11 34  1  0
 11 33  1  0
 12 13  1  0
 12 36  1  0
 12 35  1  0
 13 37  1  0
 13 38  1  0
 13 14  1  0
 14 16  1  6
 14 15  1  0
 15 39  1  0
 15 40  1  0
 15 41  1  0
 16 42  1  0
M  END
>  <id>  (808) 
920

>  <scaffolds>  (808) 
['C1CC2CCCC2C2CC2C1', 'C1CCC2CCCC2CC1']

>  <name>  (808) 
Viridiflorol

>  <formula>  (808) 
C15H26O

>  <SMILES>  (808) 
C[C@@H]1CC[C@H]2[C@@H]1[C@H]3[C@H](C3(C)C)CC[C@]2(C)O

>  <ChEMBL_id>  (808) 
SCHEMBL17627696

>  <ZINC_id>  (808) 
ZINC6031137

>  <PubChem_id>  (808) 


>  <DrugBank_id>  (808) 


>  <CAS_no>  (808) 
552-02-3

>  <references>  (808) 
[{'journal': {'name': 'Phytochemistry', 'id': 10}, 'title': 'A chemometric assessment of essential oil variation of three Salvia species indigenous to South Africa', 'year': 2020, 'start_page': None, 'volume': None, 'issue': None, 'doi': '10.1016/j.phytochem.2019.112249', 'isbn': '', 'despositor': {'code': 'BND', 'first_name': "Bakary N'tji", 'last_name': 'Diallo', 'id': 26}, 'refauthors_set': [{'author': {'first_name': 'M.J.Lim Ah ', 'initials': 'MT', 'last_name': 'Tock', 'id': 1004}, 'first_author': True, 'id': 1586}], 'id': 485}]

>  <classifications>  (808) 
[{'classification': 'Terpenes', 'id': 888}, {'classification': 'Phenol lipids (Classyfire)', 'id': 951}]

>  <molecular_mass>  (808) 
222.37

$$$$
SANC00921_minRM1.pdb
     RDKit          3D

 26 26  0  0  1  0  0  0  0  0999 V2000
    3.0270   -0.5060   -0.3450 C   0  0  0  0  0  0  0  0  0  0  0  0
    1.9630    0.4100    0.2500 C   0  0  2  0  0  0  0  0  0  0  0  0
    1.5570   -0.0840    1.6300 C   0  0  0  0  0  0  0  0  0  0  0  0
    0.7550    0.5210   -0.7000 C   0  0  1  0  0  0  0  0  0  0  0  0
    0.1140   -0.8260   -1.0390 C   0  0  0  0  0  0  0  0  0  0  0  0
   -0.9560   -1.2520   -0.0410 C   0  0  0  0  0  0  0  0  0  0  0  0
   -1.9900   -0.1850    0.0910 C   0  0  0  0  0  0  0  0  0  0  0  0
   -3.2950   -0.4510    0.1240 C   0  0  0  0  0  0  0  0  0  0  0  0
   -1.4770    1.1720    0.2060 C   0  0  0  0  0  0  0  0  0  0  0  0
   -0.2280    1.4900   -0.1350 C   0  0  0  0  0  0  0  0  0  0  0  0
    2.6480   -1.5260   -0.5190 H   0  0  0  0  0  0  0  0  0  0  0  0
    3.3970   -0.1380   -1.3120 H   0  0  0  0  0  0  0  0  0  0  0  0
    3.9040   -0.6000    0.3120 H   0  0  0  0  0  0  0  0  0  0  0  0
    2.4080    1.4350    0.3630 H   0  0  0  0  0  0  0  0  0  0  0  0
    0.8280    0.5850    2.1100 H   0  0  0  0  0  0  0  0  0  0  0  0
    1.0940   -1.0840    1.6020 H   0  0  0  0  0  0  0  0  0  0  0  0
    2.4170   -0.1530    2.3120 H   0  0  0  0  0  0  0  0  0  0  0  0
    1.1330    0.9610   -1.6650 H   0  0  0  0  0  0  0  0  0  0  0  0
   -0.3390   -0.7730   -2.0530 H   0  0  0  0  0  0  0  0  0  0  0  0
    0.8900   -1.6180   -1.1240 H   0  0  0  0  0  0  0  0  0  0  0  0
   -1.4000   -2.2230   -0.3480 H   0  0  0  0  0  0  0  0  0  0  0  0
   -0.5070   -1.4550    0.9590 H   0  0  0  0  0  0  0  0  0  0  0  0
   -4.0600    0.3110    0.2350 H   0  0  0  0  0  0  0  0  0  0  0  0
   -3.7090   -1.4500    0.0400 H   0  0  0  0  0  0  0  0  0  0  0  0
   -2.1670    1.9310    0.5910 H   0  0  0  0  0  0  0  0  0  0  0  0
    0.1370    2.5170   -0.0200 H   0  0  0  0  0  0  0  0  0  0  0  0
  1 12  1  0
  1 11  1  0
  1  2  1  0
  1 13  1  0
  2  4  1  0
  2 14  1  1
  2  3  1  0
  3 16  1  0
  3 15  1  0
  3 17  1  0
  4 18  1  6
  4  5  1  0
  4 10  1  0
  5 19  1  0
  5 20  1  0
  5  6  1  0
  6 21  1  0
  6  7  1  0
  6 22  1  0
  7  8  2  0
  7  9  1  0
  8 24  1  0
  8 23  1  0
  9 10  2  0
  9 25  1  0
 10 26  1  0
M  END
>  <id>  (809) 
921

>  <scaffolds>  (809) 
['C1=CCCCC1', 'C=C1C=CCCC1']

>  <name>  (809) 
[beta]-Phellandrene

>  <formula>  (809) 
C10H16

>  <SMILES>  (809) 
CC(C)C1CCC(=C)C=C1

>  <ChEMBL_id>  (809) 
CHEMBL444254

>  <ZINC_id>  (809) 


>  <PubChem_id>  (809) 


>  <DrugBank_id>  (809) 


>  <CAS_no>  (809) 
555-10-2

>  <references>  (809) 
[{'journal': {'name': 'Phytochemistry', 'id': 10}, 'title': 'A chemometric assessment of essential oil variation of three Salvia species indigenous to South Africa', 'year': 2020, 'start_page': None, 'volume': None, 'issue': None, 'doi': '10.1016/j.phytochem.2019.112249', 'isbn': '', 'despositor': {'code': 'BND', 'first_name': "Bakary N'tji", 'last_name': 'Diallo', 'id': 26}, 'refauthors_set': [{'author': {'first_name': 'M.J.Lim Ah ', 'initials': 'MT', 'last_name': 'Tock', 'id': 1004}, 'first_author': True, 'id': 1586}], 'id': 485}]

>  <classifications>  (809) 
[{'classification': 'Phenol lipids', 'id': 899}, {'classification': 'Phenol lipids (Classyfire)', 'id': 951}]

>  <molecular_mass>  (809) 
136.23

$$$$
SANC00922_minRM1.pdb
     RDKit          3D

 29 29  0  0  1  0  0  0  0  0999 V2000
    3.6640   -0.0840   -0.2120 C   0  0  0  0  0  0  0  0  0  0  0  0
    2.1860    0.0620   -0.1310 C   0  0  0  0  0  0  0  0  0  0  0  0
    1.6140    1.1240    0.4360 C   0  0  0  0  0  0  0  0  0  0  0  0
    0.1440    1.3150    0.5180 C   0  0  0  0  0  0  0  0  0  0  0  0
   -0.6300   -0.0020    0.3050 C   0  0  2  0  0  0  0  0  0  0  0  0
   -0.0580   -0.7060   -0.9320 C   0  0  0  0  0  0  0  0  0  0  0  0
    1.4070   -1.0700   -0.7050 C   0  0  0  0  0  0  0  0  0  0  0  0
   -2.1460    0.3030    0.1840 C   0  0  1  0  0  0  0  0  0  0  0  0
   -2.4510    1.1300   -1.0580 C   0  0  0  0  0  0  0  0  0  0  0  0
   -2.9820   -0.9700    0.1650 C   0  0  0  0  0  0  0  0  0  0  0  0
   -0.4080   -0.8820    1.3680 O   0  0  0  0  0  0  0  0  0  0  0  0
    4.2150    0.6780    0.3590 H   0  0  0  0  0  0  0  0  0  0  0  0
    4.0140   -0.0110   -1.2530 H   0  0  0  0  0  0  0  0  0  0  0  0
    3.9970   -1.0610    0.1710 H   0  0  0  0  0  0  0  0  0  0  0  0
    2.2140    1.9360    0.8610 H   0  0  0  0  0  0  0  0  0  0  0  0
   -0.1670    2.0660   -0.2440 H   0  0  0  0  0  0  0  0  0  0  0  0
   -0.1270    1.7800    1.4910 H   0  0  0  0  0  0  0  0  0  0  0  0
   -0.6390   -1.6170   -1.1810 H   0  0  0  0  0  0  0  0  0  0  0  0
   -0.1490   -0.0460   -1.8180 H   0  0  0  0  0  0  0  0  0  0  0  0
    1.8620   -1.4150   -1.6590 H   0  0  0  0  0  0  0  0  0  0  0  0
    1.4920   -1.9440   -0.0210 H   0  0  0  0  0  0  0  0  0  0  0  0
   -2.4460    0.9010    1.0860 H   0  0  0  0  0  0  0  0  0  0  0  0
   -1.7650    1.9860   -1.1670 H   0  0  0  0  0  0  0  0  0  0  0  0
   -2.3870    0.5490   -1.9890 H   0  0  0  0  0  0  0  0  0  0  0  0
   -3.4690    1.5450   -1.0280 H   0  0  0  0  0  0  0  0  0  0  0  0
   -2.8110   -1.6020    1.0480 H   0  0  0  0  0  0  0  0  0  0  0  0
   -4.0580   -0.7430    0.1470 H   0  0  0  0  0  0  0  0  0  0  0  0
   -2.7850   -1.6000   -0.7140 H   0  0  0  0  0  0  0  0  0  0  0  0
   -0.6810   -0.4460    2.1800 H   0  0  0  0  0  0  0  0  0  0  0  0
  1 13  1  0
  1  2  1  0
  1 14  1  0
  1 12  1  0
  2  7  1  0
  2  3  2  0
  3  4  1  0
  3 15  1  0
  4 16  1  0
  4  5  1  0
  4 17  1  0
  5  6  1  0
  5  8  1  0
  5 11  1  1
  6 19  1  0
  6 18  1  0
  6  7  1  0
  7 20  1  0
  7 21  1  0
  8  9  1  0
  8 10  1  0
  8 22  1  1
  9 24  1  0
  9 23  1  0
  9 25  1  0
 10 28  1  0
 10 27  1  0
 10 26  1  0
 11 29  1  0
M  END
>  <id>  (810) 
922

>  <scaffolds>  (810) 
['C1=CCCCC1']

>  <name>  (810) 
Terpinen-4-ol

>  <formula>  (810) 
C10H18O

>  <SMILES>  (810) 
CC1=CCC(CC1)(C(C)C)O

>  <ChEMBL_id>  (810) 
CHEMBL507795

>  <ZINC_id>  (810) 


>  <PubChem_id>  (810) 


>  <DrugBank_id>  (810) 
DB066063

>  <CAS_no>  (810) 
562-74-3

>  <references>  (810) 
[{'journal': {'name': 'Phytochemistry', 'id': 10}, 'title': 'A chemometric assessment of essential oil variation of three Salvia species indigenous to South Africa', 'year': 2020, 'start_page': None, 'volume': None, 'issue': None, 'doi': '10.1016/j.phytochem.2019.112249', 'isbn': '', 'despositor': {'code': 'BND', 'first_name': "Bakary N'tji", 'last_name': 'Diallo', 'id': 26}, 'refauthors_set': [{'author': {'first_name': 'M.J.Lim Ah ', 'initials': 'MT', 'last_name': 'Tock', 'id': 1004}, 'first_author': True, 'id': 1586}], 'id': 485}]

>  <classifications>  (810) 
[{'classification': 'Terpenes', 'id': 888}, {'classification': 'Phenol lipids (Classyfire)', 'id': 951}]

>  <molecular_mass>  (810) 
154.25

$$$$
SANC00923_minRM1.pdb
     RDKit          3D

 42 43  0  0  1  0  0  0  0  0999 V2000
    3.0800   -2.8510   -0.0640 C   0  0  0  0  0  0  0  0  0  0  0  0
    2.2550   -1.6130   -0.0640 C   0  0  0  0  0  0  0  0  0  0  0  0
    0.9340   -1.6430   -0.2340 C   0  0  0  0  0  0  0  0  0  0  0  0
    0.0710   -0.4240   -0.2600 C   0  0  1  0  0  0  0  0  0  0  0  0
   -1.1860   -0.6740    0.5950 C   0  0  1  0  0  0  0  0  0  0  0  0
   -1.8750    0.6440    0.9630 C   0  0  0  0  0  0  0  0  0  0  0  0
   -1.5350    1.7780    0.0080 C   0  0  0  0  0  0  0  0  0  0  0  0
   -0.0200    2.0830    0.0060 C   0  0  2  0  0  0  0  0  0  0  0  0
    0.8090    0.8050    0.2790 C   0  0  2  0  0  0  0  0  0  0  0  0
    2.2050    0.8580   -0.3380 C   0  0  0  0  0  0  0  0  0  0  0  0
    3.0090   -0.3440    0.1440 C   0  0  0  0  0  0  0  0  0  0  0  0
    0.3010    3.1540    1.0600 C   0  0  0  0  0  0  0  0  0  0  0  0
    0.3570    2.5420   -1.2610 O   0  0  0  0  0  0  0  0  0  0  0  0
   -2.1220   -1.6720   -0.1080 C   0  0  2  0  0  0  0  0  0  0  0  0
   -2.7270   -1.1090   -1.3870 C   0  0  0  0  0  0  0  0  0  0  0  0
   -3.2350   -2.1210    0.8320 C   0  0  0  0  0  0  0  0  0  0  0  0
    2.4860   -3.7750   -0.0110 H   0  0  0  0  0  0  0  0  0  0  0  0
    3.7750   -2.8780    0.7890 H   0  0  0  0  0  0  0  0  0  0  0  0
    3.6900   -2.9190   -0.9770 H   0  0  0  0  0  0  0  0  0  0  0  0
    0.4020   -2.5900   -0.3880 H   0  0  0  0  0  0  0  0  0  0  0  0
   -0.2140   -0.2430   -1.3320 H   0  0  0  0  0  0  0  0  0  0  0  0
   -0.8550   -1.1560    1.5540 H   0  0  0  0  0  0  0  0  0  0  0  0
   -2.9770    0.5190    1.0240 H   0  0  0  0  0  0  0  0  0  0  0  0
   -1.5920    0.9390    1.9980 H   0  0  0  0  0  0  0  0  0  0  0  0
   -1.8860    1.5320   -1.0170 H   0  0  0  0  0  0  0  0  0  0  0  0
   -2.1170    2.6870    0.2730 H   0  0  0  0  0  0  0  0  0  0  0  0
    0.9190    0.6990    1.3900 H   0  0  0  0  0  0  0  0  0  0  0  0
    2.1550    0.8580   -1.4470 H   0  0  0  0  0  0  0  0  0  0  0  0
    2.7230    1.8040   -0.0800 H   0  0  0  0  0  0  0  0  0  0  0  0
    3.2690   -0.2470    1.2210 H   0  0  0  0  0  0  0  0  0  0  0  0
    3.9910   -0.3810   -0.3750 H   0  0  0  0  0  0  0  0  0  0  0  0
   -0.1980    4.1130    0.8560 H   0  0  0  0  0  0  0  0  0  0  0  0
    1.3770    3.3700    1.1130 H   0  0  0  0  0  0  0  0  0  0  0  0
   -0.0150    2.8480    2.0660 H   0  0  0  0  0  0  0  0  0  0  0  0
   -0.1420    3.3420   -1.4480 H   0  0  0  0  0  0  0  0  0  0  0  0
   -1.5090   -2.5760   -0.3800 H   0  0  0  0  0  0  0  0  0  0  0  0
   -1.9580   -0.7150   -2.0690 H   0  0  0  0  0  0  0  0  0  0  0  0
   -3.4440   -0.2970   -1.2040 H   0  0  0  0  0  0  0  0  0  0  0  0
   -3.2760   -1.8800   -1.9490 H   0  0  0  0  0  0  0  0  0  0  0  0
   -3.8790   -1.2900    1.1560 H   0  0  0  0  0  0  0  0  0  0  0  0
   -3.8950   -2.8620    0.3580 H   0  0  0  0  0  0  0  0  0  0  0  0
   -2.8450   -2.5920    1.7470 H   0  0  0  0  0  0  0  0  0  0  0  0
  1 19  1  0
  1  2  1  0
  1 17  1  0
  1 18  1  0
  2  3  2  0
  2 11  1  0
  3 20  1  0
  3  4  1  0
  4 21  1  6
  4  9  1  0
  4  5  1  0
  5 14  1  0
  5  6  1  0
  5 22  1  1
  6  7  1  0
  6 23  1  0
  6 24  1  0
  7 25  1  0
  7  8  1  0
  7 26  1  0
  8 13  1  6
  8  9  1  0
  8 12  1  0
  9 10  1  0
  9 27  1  1
 10 28  1  0
 10 29  1  0
 10 11  1  0
 11 31  1  0
 11 30  1  0
 12 32  1  0
 12 33  1  0
 12 34  1  0
 13 35  1  0
 14 15  1  0
 14 36  1  6
 14 16  1  0
 15 37  1  0
 15 39  1  0
 15 38  1  0
 16 41  1  0
 16 40  1  0
 16 42  1  0
M  END
>  <id>  (811) 
923

>  <scaffolds>  (811) 
['C1=CC2CCCCC2CC1', 'C1=CCCCC1', 'C1CCCCC1']

>  <name>  (811) 
Cedrelanol

>  <formula>  (811) 
C15H26O

>  <SMILES>  (811) 
CC1=C[C@H]2[C@@H](CC[C@]([C@@H]2CC1)(C)O)C(C)C

>  <ChEMBL_id>  (811) 
CHEMBL2228955

>  <ZINC_id>  (811) 


>  <PubChem_id>  (811) 


>  <DrugBank_id>  (811) 


>  <CAS_no>  (811) 
5937-11-1

>  <references>  (811) 
[{'journal': {'name': 'Phytochemistry', 'id': 10}, 'title': 'A chemometric assessment of essential oil variation of three Salvia species indigenous to South Africa', 'year': 2020, 'start_page': None, 'volume': None, 'issue': None, 'doi': '10.1016/j.phytochem.2019.112249', 'isbn': '', 'despositor': {'code': 'BND', 'first_name': "Bakary N'tji", 'last_name': 'Diallo', 'id': 26}, 'refauthors_set': [{'author': {'first_name': 'M.J.Lim Ah ', 'initials': 'MT', 'last_name': 'Tock', 'id': 1004}, 'first_author': True, 'id': 1586}], 'id': 485}]

>  <classifications>  (811) 
[{'classification': 'Sesquiterpene', 'id': 828}, {'classification': 'Phenol lipids (Classyfire)', 'id': 951}]

>  <molecular_mass>  (811) 
222.37

$$$$
SANC00924_minRM1.pdb
     RDKit          3D

 40 42  0  0  1  0  0  0  0  0999 V2000
    3.5810    0.4130   -0.5990 C   0  0  0  0  0  0  0  0  0  0  0  0
    2.3240   -0.0950    0.0550 C   0  0  2  0  0  0  0  0  0  0  0  0
    1.6290   -1.2850   -0.5890 C   0  0  2  0  0  0  0  0  0  0  0  0
    1.0140    0.1000   -0.6960 C   0  0  1  0  0  0  0  0  0  0  0  0
   -0.2660    0.3750    0.0390 C   0  0  2  0  0  0  0  0  0  0  0  0
   -1.4000   -0.4530   -0.5980 C   0  0  2  0  0  0  0  0  0  0  0  0
   -2.6560    0.3980   -0.3910 C   0  0  0  0  0  0  0  0  0  0  0  0
   -2.1720    1.8300   -0.5890 C   0  0  0  0  0  0  0  0  0  0  0  0
   -0.7450    1.8590    0.0020 C   0  0  2  0  0  0  0  0  0  0  0  0
    0.1610    2.8170   -0.7730 C   0  0  0  0  0  0  0  0  0  0  0  0
   -0.9040    2.3380    1.3090 O   0  0  0  0  0  0  0  0  0  0  0  0
   -1.4530   -1.8170    0.0090 C   0  0  0  0  0  0  0  0  0  0  0  0
   -2.3840   -2.1910    0.8820 C   0  0  0  0  0  0  0  0  0  0  0  0
   -0.3690   -2.7580   -0.4120 C   0  0  0  0  0  0  0  0  0  0  0  0
    0.9670   -2.3630    0.2220 C   0  0  0  0  0  0  0  0  0  0  0  0
    2.3750    0.0380    1.5490 C   0  0  0  0  0  0  0  0  0  0  0  0
    3.7010    1.4960   -0.4510 H   0  0  0  0  0  0  0  0  0  0  0  0
    4.4750   -0.0750   -0.1850 H   0  0  0  0  0  0  0  0  0  0  0  0
    3.6050    0.2430   -1.6860 H   0  0  0  0  0  0  0  0  0  0  0  0
    2.0860   -1.7020   -1.5060 H   0  0  0  0  0  0  0  0  0  0  0  0
    1.0610    0.5770   -1.6920 H   0  0  0  0  0  0  0  0  0  0  0  0
   -0.1540    0.0640    1.1140 H   0  0  0  0  0  0  0  0  0  0  0  0
   -1.2310   -0.5600   -1.7010 H   0  0  0  0  0  0  0  0  0  0  0  0
   -3.0860    0.2640    0.6240 H   0  0  0  0  0  0  0  0  0  0  0  0
   -3.4730    0.1210   -1.0830 H   0  0  0  0  0  0  0  0  0  0  0  0
   -2.8460    2.5740   -0.1200 H   0  0  0  0  0  0  0  0  0  0  0  0
   -2.1630    2.1020   -1.6640 H   0  0  0  0  0  0  0  0  0  0  0  0
   -0.1870    3.8560   -0.6760 H   0  0  0  0  0  0  0  0  0  0  0  0
    1.2010    2.7940   -0.4160 H   0  0  0  0  0  0  0  0  0  0  0  0
    0.1860    2.6000   -1.8490 H   0  0  0  0  0  0  0  0  0  0  0  0
   -0.0320    2.4000    1.7110 H   0  0  0  0  0  0  0  0  0  0  0  0
   -3.1830   -1.5420    1.2310 H   0  0  0  0  0  0  0  0  0  0  0  0
   -2.4310   -3.1780    1.3310 H   0  0  0  0  0  0  0  0  0  0  0  0
   -0.2900   -2.7960   -1.5200 H   0  0  0  0  0  0  0  0  0  0  0  0
   -0.6220   -3.8040   -0.1330 H   0  0  0  0  0  0  0  0  0  0  0  0
    1.6430   -3.2450    0.2720 H   0  0  0  0  0  0  0  0  0  0  0  0
    0.8210   -2.0900    1.2860 H   0  0  0  0  0  0  0  0  0  0  0  0
    2.8230    0.9920    1.8630 H   0  0  0  0  0  0  0  0  0  0  0  0
    1.3790    0.0010    2.0220 H   0  0  0  0  0  0  0  0  0  0  0  0
    2.9780   -0.7640    1.9990 H   0  0  0  0  0  0  0  0  0  0  0  0
  1 19  1  0
  1 17  1  0
  1 18  1  0
  2  1  1  6
  2  4  1  0
  2  3  1  0
  2 16  1  0
  3 20  1  6
  3  4  1  0
  3 15  1  0
  4 21  1  6
  4  5  1  0
  5  6  1  0
  5  9  1  0
  5 22  1  1
  6 23  1  6
  6  7  1  0
  6 12  1  0
  7 25  1  0
  7  8  1  0
  7 24  1  0
  8 27  1  0
  8 26  1  0
  8  9  1  0
  9 10  1  0
  9 11  1  1
 10 30  1  0
 10 28  1  0
 10 29  1  0
 11 31  1  0
 12 14  1  0
 12 13  2  0
 13 32  1  0
 13 33  1  0
 14 34  1  0
 14 35  1  0
 14 15  1  0
 15 36  1  0
 15 37  1  0
 16 38  1  0
 16 40  1  0
 16 39  1  0
M  END
>  <id>  (812) 
924

>  <scaffolds>  (812) 
['C1CC2CCCC2C2CC2C1', 'C=C1CCC2CC2C2CCCC12', 'C1CCC2CCCC2CC1']

>  <name>  (812) 
Spathulenol

>  <formula>  (812) 
C15H24O

>  <SMILES>  (812) 
CC1(C2C1C3C(CCC3(C)O)C(=C)CC2)C

>  <ChEMBL_id>  (812) 
SCHEMBL3847321

>  <ZINC_id>  (812) 


>  <PubChem_id>  (812) 


>  <DrugBank_id>  (812) 


>  <CAS_no>  (812) 
6750-60-3

>  <references>  (812) 
[{'journal': {'name': 'Phytochemistry', 'id': 10}, 'title': 'A chemometric assessment of essential oil variation of three Salvia species indigenous to South Africa', 'year': 2020, 'start_page': None, 'volume': None, 'issue': None, 'doi': '10.1016/j.phytochem.2019.112249', 'isbn': '', 'despositor': {'code': 'BND', 'first_name': "Bakary N'tji", 'last_name': 'Diallo', 'id': 26}, 'refauthors_set': [{'author': {'first_name': 'M.J.Lim Ah ', 'initials': 'MT', 'last_name': 'Tock', 'id': 1004}, 'first_author': True, 'id': 1586}], 'id': 485}]

>  <classifications>  (812) 
[{'classification': 'Sesquiterpene', 'id': 828}, {'classification': 'Phenol lipids (Classyfire)', 'id': 951}]

>  <molecular_mass>  (812) 
220.35

$$$$
SANC00925_minRM1.pdb
     RDKit          3D

 39 39  0  0  0  0  0  0  0  0999 V2000
    1.8320   -3.2640    0.5420 C   0  0  0  0  0  0  0  0  0  0  0  0
    1.1970   -1.9800    0.1220 C   0  0  0  0  0  0  0  0  0  0  0  0
    1.9290   -1.0280   -0.4600 C   0  0  0  0  0  0  0  0  0  0  0  0
    1.4400    0.2620   -1.0210 C   0  0  0  0  0  0  0  0  0  0  0  0
    1.5440    1.4510   -0.0530 C   0  0  0  0  0  0  0  0  0  0  0  0
    0.5090    1.4220    1.0280 C   0  0  0  0  0  0  0  0  0  0  0  0
   -0.8160    1.3560    0.9060 C   0  0  0  0  0  0  0  0  0  0  0  0
   -1.6270    1.2300   -0.3380 C   0  0  0  0  0  0  0  0  0  0  0  0
   -2.6710    0.1720   -0.1510 C   0  0  0  0  0  0  0  0  0  0  0  0
   -2.4600   -1.1320   -0.3450 C   0  0  0  0  0  0  0  0  0  0  0  0
   -1.1580   -1.7280   -0.7570 C   0  0  0  0  0  0  0  0  0  0  0  0
   -0.2500   -1.8630    0.4670 C   0  0  0  0  0  0  0  0  0  0  0  0
   -4.0040    0.6810    0.2760 C   0  0  0  0  0  0  0  0  0  0  0  0
    2.9430    1.4550    0.5740 C   0  0  0  0  0  0  0  0  0  0  0  0
    1.3690    2.7620   -0.8300 C   0  0  0  0  0  0  0  0  0  0  0  0
    2.8910   -3.3530    0.2610 H   0  0  0  0  0  0  0  0  0  0  0  0
    1.3180   -4.1280    0.0940 H   0  0  0  0  0  0  0  0  0  0  0  0
    1.7890   -3.3940    1.6350 H   0  0  0  0  0  0  0  0  0  0  0  0
    3.0060   -1.1880   -0.6000 H   0  0  0  0  0  0  0  0  0  0  0  0
    2.0330    0.4850   -1.9380 H   0  0  0  0  0  0  0  0  0  0  0  0
    0.4020    0.1640   -1.4110 H   0  0  0  0  0  0  0  0  0  0  0  0
    0.9140    1.5020    2.0470 H   0  0  0  0  0  0  0  0  0  0  0  0
   -1.4270    1.3920    1.8190 H   0  0  0  0  0  0  0  0  0  0  0  0
   -1.0170    1.0200   -1.2430 H   0  0  0  0  0  0  0  0  0  0  0  0
   -2.0930    2.2170   -0.5610 H   0  0  0  0  0  0  0  0  0  0  0  0
   -3.2690   -1.8540   -0.1870 H   0  0  0  0  0  0  0  0  0  0  0  0
   -1.3100   -2.7210   -1.2310 H   0  0  0  0  0  0  0  0  0  0  0  0
   -0.6790   -1.1320   -1.5650 H   0  0  0  0  0  0  0  0  0  0  0  0
   -0.5930   -2.7300    1.0740 H   0  0  0  0  0  0  0  0  0  0  0  0
   -0.3780   -1.0040    1.1600 H   0  0  0  0  0  0  0  0  0  0  0  0
   -3.9230    1.3420    1.1530 H   0  0  0  0  0  0  0  0  0  0  0  0
   -4.7150   -0.1120    0.5510 H   0  0  0  0  0  0  0  0  0  0  0  0
   -4.4810    1.2670   -0.5240 H   0  0  0  0  0  0  0  0  0  0  0  0
    3.7350    1.4170   -0.1880 H   0  0  0  0  0  0  0  0  0  0  0  0
    3.1050    0.5960    1.2420 H   0  0  0  0  0  0  0  0  0  0  0  0
    3.1280    2.3570    1.1750 H   0  0  0  0  0  0  0  0  0  0  0  0
    1.3840    3.6360   -0.1630 H   0  0  0  0  0  0  0  0  0  0  0  0
    2.1690    2.9190   -1.5690 H   0  0  0  0  0  0  0  0  0  0  0  0
    0.4210    2.8080   -1.3820 H   0  0  0  0  0  0  0  0  0  0  0  0
  1 17  1  0
  1  2  1  0
  1 16  1  0
  1 18  1  0
  2  3  2  0
  2 12  1  0
  3  4  1  0
  3 19  1  0
  4 20  1  0
  4 21  1  0
  4  5  1  0
  5 15  1  0
  5 14  1  0
  5  6  1  0
  6  7  2  0
  6 22  1  0
  7  8  1  0
  7 23  1  0
  8 24  1  0
  8 25  1  0
  8  9  1  0
  9 10  2  0
  9 13  1  0
 10 11  1  0
 10 26  1  0
 11 28  1  0
 11 27  1  0
 11 12  1  0
 12 29  1  0
 12 30  1  0
 13 33  1  0
 13 32  1  0
 13 31  1  0
 14 34  1  0
 14 36  1  0
 14 35  1  0
 15 38  1  0
 15 39  1  0
 15 37  1  0
M  END
>  <id>  (813) 
925

>  <scaffolds>  (813) 
['C1=CCCC=CCCC=CC1']

>  <name>  (813) 
Humulene

>  <formula>  (813) 
C15H24

>  <SMILES>  (813) 
C/C/1=C\CC(/C=C/C/C(=C/CC1)/C)(C)C

>  <ChEMBL_id>  (813) 
CHEMBL251280

>  <ZINC_id>  (813) 
ZINC30726967

>  <PubChem_id>  (813) 


>  <DrugBank_id>  (813) 


>  <CAS_no>  (813) 
6753-98-6

>  <references>  (813) 
[{'journal': {'name': 'Phytochemistry', 'id': 10}, 'title': 'A chemometric assessment of essential oil variation of three Salvia species indigenous to South Africa', 'year': 2020, 'start_page': None, 'volume': None, 'issue': None, 'doi': '10.1016/j.phytochem.2019.112249', 'isbn': '', 'despositor': {'code': 'BND', 'first_name': "Bakary N'tji", 'last_name': 'Diallo', 'id': 26}, 'refauthors_set': [{'author': {'first_name': 'M.J.Lim Ah ', 'initials': 'MT', 'last_name': 'Tock', 'id': 1004}, 'first_author': True, 'id': 1586}], 'id': 485}]

>  <classifications>  (813) 
[{'classification': 'Sesquiterpene', 'id': 828}, {'classification': 'Phenol lipids (Classyfire)', 'id': 951}]

>  <molecular_mass>  (813) 
204.35

$$$$
SANC00926_minRM1.pdb
     RDKit          3D

 26 27  0  0  1  0  0  0  0  0999 V2000
   -2.5080    1.2720    0.1820 C   0  0  0  0  0  0  0  0  0  0  0  0
   -1.3910    0.3070    0.0760 C   0  0  0  0  0  0  0  0  0  0  0  0
   -1.4420   -0.8390   -0.6170 C   0  0  0  0  0  0  0  0  0  0  0  0
   -0.2430   -1.7430   -0.6640 C   0  0  0  0  0  0  0  0  0  0  0  0
    0.8910   -1.1560    0.1780 C   0  0  2  0  0  0  0  0  0  0  0  0
    0.2690   -0.7100    1.5320 C   0  0  0  0  0  0  0  0  0  0  0  0
   -0.1180    0.6120    0.8020 C   0  0  1  0  0  0  0  0  0  0  0  0
    1.0780    0.3550   -0.1770 C   0  0  1  0  0  0  0  0  0  0  0  0
    2.3870    0.9120    0.3550 C   0  0  0  0  0  0  0  0  0  0  0  0
    0.9290    0.7680   -1.6210 C   0  0  0  0  0  0  0  0  0  0  0  0
   -2.8210    1.4080    1.2280 H   0  0  0  0  0  0  0  0  0  0  0  0
   -3.4020    0.9660   -0.3810 H   0  0  0  0  0  0  0  0  0  0  0  0
   -2.2150    2.2640   -0.1970 H   0  0  0  0  0  0  0  0  0  0  0  0
   -2.3240   -1.1640   -1.1700 H   0  0  0  0  0  0  0  0  0  0  0  0
   -0.5160   -2.7530   -0.2940 H   0  0  0  0  0  0  0  0  0  0  0  0
    0.0820   -1.9010   -1.7140 H   0  0  0  0  0  0  0  0  0  0  0  0
    1.7960   -1.7830    0.2070 H   0  0  0  0  0  0  0  0  0  0  0  0
    0.9800   -0.5970    2.3640 H   0  0  0  0  0  0  0  0  0  0  0  0
   -0.5560   -1.3200    1.9290 H   0  0  0  0  0  0  0  0  0  0  0  0
   -0.1120    1.5490    1.3800 H   0  0  0  0  0  0  0  0  0  0  0  0
    2.6210    0.5940    1.3810 H   0  0  0  0  0  0  0  0  0  0  0  0
    2.3850    2.0110    0.3680 H   0  0  0  0  0  0  0  0  0  0  0  0
    3.2410    0.5980   -0.2630 H   0  0  0  0  0  0  0  0  0  0  0  0
    1.6440    0.2300   -2.2610 H   0  0  0  0  0  0  0  0  0  0  0  0
    1.1200    1.8430   -1.7590 H   0  0  0  0  0  0  0  0  0  0  0  0
   -0.0640    0.5930   -2.0560 H   0  0  0  0  0  0  0  0  0  0  0  0
  1 12  1  0
  1 13  1  0
  1  2  1  0
  1 11  1  0
  2  3  2  0
  2  7  1  0
  3 14  1  0
  3  4  1  0
  4 16  1  0
  4 15  1  0
  4  5  1  0
  5  8  1  0
  5 17  1  1
  5  6  1  0
  6  7  1  0
  6 19  1  0
  6 18  1  0
  7  8  1  0
  7 20  1  1
  8 10  1  6
  8  9  1  0
  9 23  1  0
  9 22  1  0
  9 21  1  0
 10 24  1  0
 10 26  1  0
 10 25  1  0
M  END
>  <id>  (814) 
926

>  <scaffolds>  (814) 
['C1=CCCCC1', 'C1=CC2CC(C1)C2']

>  <name>  (814) 
[alpha]-Pinene

>  <formula>  (814) 
C10H16

>  <SMILES>  (814) 
CC1=CCC2CC1C2(C)C

>  <ChEMBL_id>  (814) 
CHEMBL442565

>  <ZINC_id>  (814) 


>  <PubChem_id>  (814) 


>  <DrugBank_id>  (814) 
DB017892

>  <CAS_no>  (814) 
80-56-8

>  <references>  (814) 
[{'journal': {'name': 'Phytochemistry', 'id': 10}, 'title': 'A chemometric assessment of essential oil variation of three Salvia species indigenous to South Africa', 'year': 2020, 'start_page': None, 'volume': None, 'issue': None, 'doi': '10.1016/j.phytochem.2019.112249', 'isbn': '', 'despositor': {'code': 'BND', 'first_name': "Bakary N'tji", 'last_name': 'Diallo', 'id': 26}, 'refauthors_set': [{'author': {'first_name': 'M.J.Lim Ah ', 'initials': 'MT', 'last_name': 'Tock', 'id': 1004}, 'first_author': True, 'id': 1586}], 'id': 485}]

>  <classifications>  (814) 
[{'classification': 'Monoterpenes ', 'id': 910}, {'classification': 'Phenol lipids (Classyfire)', 'id': 951}]

>  <molecular_mass>  (814) 
136.23

$$$$
SANC00927_minRM1.pdb
     RDKit          3D

 26 27  0  0  0  0  0  0  0  0999 V2000
   -2.3450   -2.5720    0.3810 C   0  0  0  0  0  0  0  0  0  0  0  0
   -1.1380   -2.0810   -0.1570 O   0  0  0  0  0  0  0  0  0  0  0  0
   -0.8030   -0.7860    0.0580 C   0  0  0  0  0  0  0  0  0  0  0  0
   -1.6890    0.2630    0.2850 C   0  0  0  0  0  0  0  0  0  0  0  0
   -1.1890    1.5710    0.4610 C   0  0  0  0  0  0  0  0  0  0  0  0
    0.1680    1.8520    0.3750 C   0  0  0  0  0  0  0  0  0  0  0  0
    1.0320    0.7810    0.1230 C   0  0  0  0  0  0  0  0  0  0  0  0
    0.5870   -0.5360   -0.0250 C   0  0  0  0  0  0  0  0  0  0  0  0
    1.5640   -1.5680   -0.2530 C   0  0  0  0  0  0  0  0  0  0  0  0
    2.8630   -1.2380   -0.3350 C   0  0  0  0  0  0  0  0  0  0  0  0
    3.2890    0.1430   -0.2000 C   0  0  0  0  0  0  0  0  0  0  0  0
    4.4140    0.5950   -0.2680 O   0  0  0  0  0  0  0  0  0  0  0  0
    2.3400    1.1250    0.0400 O   0  0  0  0  0  0  0  0  0  0  0  0
   -2.1230    2.5140    0.6940 O   0  0  0  0  0  0  0  0  0  0  0  0
   -3.0290    0.0490    0.4490 O   0  0  0  0  0  0  0  0  0  0  0  0
   -3.7800    0.4140   -0.6880 C   0  0  0  0  0  0  0  0  0  0  0  0
   -3.2070   -2.3330   -0.2620 H   0  0  0  0  0  0  0  0  0  0  0  0
   -2.1950   -3.6630    0.3750 H   0  0  0  0  0  0  0  0  0  0  0  0
   -2.5500   -2.2430    1.4120 H   0  0  0  0  0  0  0  0  0  0  0  0
    0.5670    2.8630    0.4960 H   0  0  0  0  0  0  0  0  0  0  0  0
    1.2370   -2.6090   -0.3540 H   0  0  0  0  0  0  0  0  0  0  0  0
    3.6560   -1.9710   -0.5040 H   0  0  0  0  0  0  0  0  0  0  0  0
   -1.6860    3.3650    0.8290 H   0  0  0  0  0  0  0  0  0  0  0  0
   -3.7890    1.5000   -0.8760 H   0  0  0  0  0  0  0  0  0  0  0  0
   -4.8030    0.0910   -0.4420 H   0  0  0  0  0  0  0  0  0  0  0  0
   -3.4510   -0.0940   -1.6100 H   0  0  0  0  0  0  0  0  0  0  0  0
  1 17  1  0
  1  2  1  0
  1 18  1  0
  1 19  1  0
  2  3  1  0
  3  8  2  0
  3  4  1  0
  4 15  1  0
  4  5  2  0
  5  6  1  0
  5 14  1  0
  6  7  2  0
  6 20  1  0
  7  8  1  0
  7 13  1  0
  8  9  1  0
  9 21  1  0
  9 10  2  0
 10 22  1  0
 10 11  1  0
 11 12  2  0
 11 13  1  0
 14 23  1  0
 15 16  1  0
 16 26  1  0
 16 24  1  0
 16 25  1  0
M  END
>  <id>  (815) 
927

>  <scaffolds>  (815) 
['c1ccccc1', 'O=c1ccc2ccccc2o1']

>  <name>  (815) 
Umckalin

>  <formula>  (815) 
C11H10O5

>  <SMILES>  (815) 
COC1=C(C(=CC2=C1C=CC(=O)O2)O)OC

>  <ChEMBL_id>  (815) 


>  <ZINC_id>  (815) 
ZINC14776047

>  <PubChem_id>  (815) 


>  <DrugBank_id>  (815) 


>  <CAS_no>  (815) 
43053-62-9

>  <references>  (815) 
[{'journal': {'name': 'South African Journal of Botany', 'id': 1}, 'title': 'Measuring and optimising umckalin concentration in wild-harvested and cultivated Pelargonium sidoides (Geraniaceae)', 'year': 2008, 'start_page': None, 'volume': None, 'issue': None, 'doi': '10.1016/j.sajb.2007.11.015', 'isbn': '', 'despositor': {'code': 'BND', 'first_name': "Bakary N'tji", 'last_name': 'Diallo', 'id': 26}, 'refauthors_set': [{'author': {'first_name': 'White', 'initials': 'WA', 'last_name': 'A.', 'id': 1006}, 'first_author': True, 'id': 1587}], 'id': 487}]

>  <classifications>  (815) 
[{'classification': 'Coumarins', 'id': 916}, {'classification': 'Coumarins and derivatives (Classyfire)', 'id': 965}]

>  <molecular_mass>  (815) 
222.19

$$$$
SANC00928_minRM1.pdb
     RDKit          3D

 34 34  0  0  1  0  0  0  0  0999 V2000
   -0.1360   -2.5080    0.1150 C   0  0  0  0  0  0  0  0  0  0  0  0
   -1.1140   -1.4100   -0.0820 C   0  0  0  0  0  0  0  0  0  0  0  0
   -2.4170   -1.6010    0.1480 C   0  0  0  0  0  0  0  0  0  0  0  0
   -3.3720   -0.5040   -0.1580 C   0  0  0  0  0  0  0  0  0  0  0  0
   -2.8480    0.8080    0.4200 C   0  0  0  0  0  0  0  0  0  0  0  0
   -1.3640    1.0890    0.0990 C   0  0  2  0  0  0  0  0  0  0  0  0
   -0.7020   -0.0930   -0.6570 C   0  0  1  0  0  0  0  0  0  0  0  0
    0.7730    0.1190   -0.7770 C   0  0  0  0  0  0  0  0  0  0  0  0
    1.6700   -0.1470    0.1740 C   0  0  0  0  0  0  0  0  0  0  0  0
    3.1080    0.1000   -0.0420 C   0  0  0  0  0  0  0  0  0  0  0  0
    3.5580    0.5000   -1.1020 O   0  0  0  0  0  0  0  0  0  0  0  0
    4.0000   -0.1770    1.1330 C   0  0  0  0  0  0  0  0  0  0  0  0
   -0.6350    1.3760    1.4120 C   0  0  0  0  0  0  0  0  0  0  0  0
   -1.2610    2.3350   -0.7870 C   0  0  0  0  0  0  0  0  0  0  0  0
    0.2910   -2.4980    1.1300 H   0  0  0  0  0  0  0  0  0  0  0  0
   -0.5960   -3.5020   -0.0080 H   0  0  0  0  0  0  0  0  0  0  0  0
    0.7010   -2.4760   -0.5980 H   0  0  0  0  0  0  0  0  0  0  0  0
   -2.8230   -2.5380    0.5360 H   0  0  0  0  0  0  0  0  0  0  0  0
   -4.3870   -0.7210    0.2360 H   0  0  0  0  0  0  0  0  0  0  0  0
   -3.5160   -0.4280   -1.2580 H   0  0  0  0  0  0  0  0  0  0  0  0
   -3.4940    1.6430    0.0770 H   0  0  0  0  0  0  0  0  0  0  0  0
   -3.0180    0.7890    1.5190 H   0  0  0  0  0  0  0  0  0  0  0  0
   -1.1140   -0.1000   -1.7080 H   0  0  0  0  0  0  0  0  0  0  0  0
    1.1000    0.5340   -1.7420 H   0  0  0  0  0  0  0  0  0  0  0  0
    1.3990   -0.5480    1.1540 H   0  0  0  0  0  0  0  0  0  0  0  0
    3.7050    0.4230    2.0060 H   0  0  0  0  0  0  0  0  0  0  0  0
    3.9450   -1.2340    1.4310 H   0  0  0  0  0  0  0  0  0  0  0  0
    5.0570    0.0470    0.9280 H   0  0  0  0  0  0  0  0  0  0  0  0
   -1.1490    2.1460    2.0090 H   0  0  0  0  0  0  0  0  0  0  0  0
    0.3840    1.7620    1.2650 H   0  0  0  0  0  0  0  0  0  0  0  0
   -0.5620    0.4820    2.0470 H   0  0  0  0  0  0  0  0  0  0  0  0
   -1.6540    3.2310   -0.2850 H   0  0  0  0  0  0  0  0  0  0  0  0
   -1.8230    2.2300   -1.7260 H   0  0  0  0  0  0  0  0  0  0  0  0
   -0.2240    2.5720   -1.0650 H   0  0  0  0  0  0  0  0  0  0  0  0
  1 17  1  0
  1  2  1  0
  1 16  1  0
  1 15  1  0
  2  7  1  0
  2  3  2  0
  3  4  1  0
  3 18  1  0
  4 20  1  0
  4 19  1  0
  4  5  1  0
  5 21  1  0
  5  6  1  0
  5 22  1  0
  6 14  1  6
  6  7  1  0
  6 13  1  0
  7 23  1  6
  7  8  1  0
  8 24  1  0
  8  9  2  0
  9 10  1  0
  9 25  1  0
 10 11  2  0
 10 12  1  0
 12 28  1  0
 12 27  1  0
 12 26  1  0
 13 30  1  0
 13 29  1  0
 13 31  1  0
 14 33  1  0
 14 34  1  0
 14 32  1  0
M  END
>  <id>  (816) 
928

>  <scaffolds>  (816) 
['C1=CCCCC1']

>  <name>  (816) 
[alpha]-ionone

>  <formula>  (816) 
C13H20O

>  <SMILES>  (816) 
CC1=CCCC(C1/C=C/C(=O)C)(C)C

>  <ChEMBL_id>  (816) 
CHEMBL472877

>  <ZINC_id>  (816) 


>  <PubChem_id>  (816) 


>  <DrugBank_id>  (816) 


>  <CAS_no>  (816) 
127-41-3

>  <references>  (816) 
[{'journal': {'name': 'South African Journal of Botany', 'id': 1}, 'title': 'Antigonococcal activity of Ximenia caffra Sond. (Olacaceae) and identification of the active principle', 'year': 2013, 'start_page': None, 'volume': None, 'issue': None, 'doi': '10.1016/j.sajb.2013.02.170', 'isbn': '', 'despositor': {'code': 'BND', 'first_name': "Bakary N'tji", 'last_name': 'Diallo', 'id': 26}, 'refauthors_set': [{'author': {'first_name': 'Nair', 'initials': 'NJ', 'last_name': 'J.', 'id': 1008}, 'first_author': True, 'id': 1589}], 'id': 489}]

>  <classifications>  (816) 
[{'classification': 'Norisoprenoids', 'id': 917}, {'classification': 'Phenol lipids (Classyfire)', 'id': 951}]

>  <molecular_mass>  (816) 
192.3

$$$$
SANC00929_minRM1.pdb
     RDKit          3D

 36 36  0  0  1  0  0  0  0  0999 V2000
   -0.2850   -2.6530    0.0850 C   0  0  0  0  0  0  0  0  0  0  0  0
   -1.0440   -1.3770    0.0170 C   0  0  0  0  0  0  0  0  0  0  0  0
   -2.3660   -1.3600    0.1900 C   0  0  0  0  0  0  0  0  0  0  0  0
   -3.1540   -0.1170    0.1240 C   0  0  0  0  0  0  0  0  0  0  0  0
   -4.3400   -0.1070    0.4040 O   0  0  0  0  0  0  0  0  0  0  0  0
   -2.4360    1.1230   -0.3280 C   0  0  0  0  0  0  0  0  0  0  0  0
   -1.0060    1.1450    0.2170 C   0  0  2  0  0  0  0  0  0  0  0  0
   -0.2600   -0.1180   -0.2950 C   0  0  1  0  0  0  0  0  0  0  0  0
    1.1070   -0.1890    0.3350 C   0  0  0  0  0  0  0  0  0  0  0  0
    2.2120    0.2590   -0.2550 C   0  0  0  0  0  0  0  0  0  0  0  0
    3.5450    0.1580    0.4360 C   0  0  1  0  0  0  0  0  0  0  0  0
    3.9880   -1.3070    0.4740 C   0  0  0  0  0  0  0  0  0  0  0  0
    4.5050    0.9620   -0.1750 O   0  0  0  0  0  0  0  0  0  0  0  0
   -0.1890    0.0140   -1.6870 O   0  0  0  0  0  0  0  0  0  0  0  0
   -1.0470    1.1360    1.7440 C   0  0  0  0  0  0  0  0  0  0  0  0
   -0.3090    2.4180   -0.2540 C   0  0  0  0  0  0  0  0  0  0  0  0
    0.6340   -2.6480   -0.5200 H   0  0  0  0  0  0  0  0  0  0  0  0
   -0.8740   -3.5180   -0.2580 H   0  0  0  0  0  0  0  0  0  0  0  0
    0.0210   -2.8730    1.1200 H   0  0  0  0  0  0  0  0  0  0  0  0
   -2.9340   -2.2750    0.3970 H   0  0  0  0  0  0  0  0  0  0  0  0
   -2.4470    1.1510   -1.4400 H   0  0  0  0  0  0  0  0  0  0  0  0
   -2.9900    2.0370   -0.0260 H   0  0  0  0  0  0  0  0  0  0  0  0
    1.1320   -0.6200    1.3420 H   0  0  0  0  0  0  0  0  0  0  0  0
    2.2020    0.7270   -1.2460 H   0  0  0  0  0  0  0  0  0  0  0  0
    3.4910    0.5890    1.4710 H   0  0  0  0  0  0  0  0  0  0  0  0
    4.0310   -1.7600   -0.5260 H   0  0  0  0  0  0  0  0  0  0  0  0
    3.3030   -1.9210    1.0740 H   0  0  0  0  0  0  0  0  0  0  0  0
    4.9890   -1.4160    0.9170 H   0  0  0  0  0  0  0  0  0  0  0  0
    4.6650    0.6320   -1.0650 H   0  0  0  0  0  0  0  0  0  0  0  0
    0.2540   -0.7660   -2.0360 H   0  0  0  0  0  0  0  0  0  0  0  0
   -0.0650    1.3420    2.1940 H   0  0  0  0  0  0  0  0  0  0  0  0
   -1.7250    1.9100    2.1360 H   0  0  0  0  0  0  0  0  0  0  0  0
   -1.3910    0.1810    2.1640 H   0  0  0  0  0  0  0  0  0  0  0  0
   -0.2960    2.5150   -1.3490 H   0  0  0  0  0  0  0  0  0  0  0  0
   -0.8060    3.3190    0.1350 H   0  0  0  0  0  0  0  0  0  0  0  0
    0.7380    2.4710    0.0800 H   0  0  0  0  0  0  0  0  0  0  0  0
  1 17  1  0
  1 18  1  0
  1  2  1  0
  1 19  1  0
  2  8  1  0
  2  3  2  0
  3  4  1  0
  3 20  1  0
  4  6  1  0
  4  5  2  0
  6 21  1  0
  6 22  1  0
  6  7  1  0
  7  8  1  0
  7 16  1  1
  7 15  1  0
  8 14  1  6
  8  9  1  0
  9 10  2  0
  9 23  1  0
 10 24  1  0
 10 11  1  0
 11 13  1  0
 11 12  1  0
 11 25  1  1
 12 26  1  0
 12 28  1  0
 12 27  1  0
 13 29  1  0
 14 30  1  0
 15 32  1  0
 15 33  1  0
 15 31  1  0
 16 34  1  0
 16 36  1  0
 16 35  1  0
M  END
>  <id>  (817) 
929

>  <scaffolds>  (817) 
['C1=CCCCC1', 'O=C1C=CCCC1']

>  <name>  (817) 
Vomifoliol

>  <formula>  (817) 
C13H20O3

>  <SMILES>  (817) 
CC1=CC(=O)CC([C@]1(/C=C/[C@@H](C)O)O)(C)C

>  <ChEMBL_id>  (817) 
SCHEMBL1243896

>  <ZINC_id>  (817) 
ZINC4095719

>  <PubChem_id>  (817) 


>  <DrugBank_id>  (817) 


>  <CAS_no>  (817) 
23526-45-6

>  <references>  (817) 
[{'journal': {'name': 'South African Journal of Botany', 'id': 1}, 'title': 'Antigonococcal activity of Ximenia caffra Sond. (Olacaceae) and identification of the active principle', 'year': 2013, 'start_page': None, 'volume': None, 'issue': None, 'doi': '10.1016/j.sajb.2013.02.170', 'isbn': '', 'despositor': {'code': 'BND', 'first_name': "Bakary N'tji", 'last_name': 'Diallo', 'id': 26}, 'refauthors_set': [{'author': {'first_name': 'Nair', 'initials': 'NJ', 'last_name': 'J.', 'id': 1008}, 'first_author': True, 'id': 1589}], 'id': 489}]

>  <classifications>  (817) 
[{'classification': 'Phenol lipids', 'id': 899}, {'classification': 'Phenol lipids (Classyfire)', 'id': 951}]

>  <molecular_mass>  (817) 
224.3

$$$$
SANC00930_minRM1.pdb
     RDKit          3D

 34 34  0  0  1  0  0  0  0  0999 V2000
   -4.6870    0.0190    0.3430 C   0  0  0  0  0  0  0  0  0  0  0  0
   -3.3590   -0.2700   -0.2530 C   0  0  0  0  0  0  0  0  0  0  0  0
   -2.2210    0.1970    0.2620 C   0  0  0  0  0  0  0  0  0  0  0  0
   -0.9190   -0.1200   -0.3580 C   0  0  0  0  0  0  0  0  0  0  0  0
   -0.8390   -0.4320   -1.5340 O   0  0  0  0  0  0  0  0  0  0  0  0
    0.3010   -0.0520    0.5450 C   0  0  1  0  0  0  0  0  0  0  0  0
    1.1010   -1.2980    0.3360 C   0  0  0  0  0  0  0  0  0  0  0  0
    2.2350   -1.3280   -0.3620 C   0  0  0  0  0  0  0  0  0  0  0  0
    2.8420   -0.1300   -0.9980 C   0  0  0  0  0  0  0  0  0  0  0  0
    1.8880    1.0570   -1.0510 C   0  0  0  0  0  0  0  0  0  0  0  0
    1.1270    1.2150    0.2660 C   0  0  2  0  0  0  0  0  0  0  0  0
    2.1080    1.4240    1.4210 C   0  0  0  0  0  0  0  0  0  0  0  0
    0.2130    2.4370    0.1800 C   0  0  0  0  0  0  0  0  0  0  0  0
    0.5280   -2.5190    0.9630 C   0  0  0  0  0  0  0  0  0  0  0  0
   -5.1900   -0.9090    0.6570 H   0  0  0  0  0  0  0  0  0  0  0  0
   -4.6500    0.6740    1.2260 H   0  0  0  0  0  0  0  0  0  0  0  0
   -5.3490    0.5090   -0.3870 H   0  0  0  0  0  0  0  0  0  0  0  0
   -3.3680   -0.9000   -1.1520 H   0  0  0  0  0  0  0  0  0  0  0  0
   -2.2020    0.8290    1.1550 H   0  0  0  0  0  0  0  0  0  0  0  0
   -0.0360   -0.0250    1.6150 H   0  0  0  0  0  0  0  0  0  0  0  0
    2.7940   -2.2610   -0.4950 H   0  0  0  0  0  0  0  0  0  0  0  0
    3.7780    0.1320   -0.4580 H   0  0  0  0  0  0  0  0  0  0  0  0
    3.1850   -0.3840   -2.0260 H   0  0  0  0  0  0  0  0  0  0  0  0
    2.4490    1.9860   -1.2890 H   0  0  0  0  0  0  0  0  0  0  0  0
    1.1830    0.9430   -1.9000 H   0  0  0  0  0  0  0  0  0  0  0  0
    2.6760    0.5160    1.6690 H   0  0  0  0  0  0  0  0  0  0  0  0
    1.6010    1.7300    2.3480 H   0  0  0  0  0  0  0  0  0  0  0  0
    2.8460    2.2090    1.1970 H   0  0  0  0  0  0  0  0  0  0  0  0
   -0.4710    2.4000   -0.6800 H   0  0  0  0  0  0  0  0  0  0  0  0
    0.7870    3.3690    0.0770 H   0  0  0  0  0  0  0  0  0  0  0  0
   -0.4120    2.5540    1.0770 H   0  0  0  0  0  0  0  0  0  0  0  0
    0.5890   -2.4730    2.0610 H   0  0  0  0  0  0  0  0  0  0  0  0
    1.0350   -3.4470    0.6590 H   0  0  0  0  0  0  0  0  0  0  0  0
   -0.5350   -2.6510    0.7060 H   0  0  0  0  0  0  0  0  0  0  0  0
  1 17  1  0
  1  2  1  0
  1 15  1  0
  1 16  1  0
  2 18  1  0
  2  3  2  0
  3  4  1  0
  3 19  1  0
  4  5  2  0
  4  6  1  0
  6 11  1  0
  6  7  1  0
  6 20  1  1
  7  8  2  0
  7 14  1  0
  8  9  1  0
  8 21  1  0
  9 23  1  0
  9 10  1  0
  9 22  1  0
 10 25  1  0
 10 24  1  0
 10 11  1  0
 11 13  1  6
 11 12  1  0
 12 28  1  0
 12 26  1  0
 12 27  1  0
 13 29  1  0
 13 30  1  0
 13 31  1  0
 14 33  1  0
 14 34  1  0
 14 32  1  0
M  END
>  <id>  (818) 
930

>  <scaffolds>  (818) 
['C1=CCCCC1']

>  <name>  (818) 
[alpha]-Damascone

>  <formula>  (818) 
C13H20O

>  <SMILES>  (818) 
C/C=C/C(=O)C1C(=CCCC1(C)C)C

>  <ChEMBL_id>  (818) 
SCHEMBL454166

>  <ZINC_id>  (818) 


>  <PubChem_id>  (818) 


>  <DrugBank_id>  (818) 


>  <CAS_no>  (818) 
43052-87-5

>  <references>  (818) 
[{'journal': {'name': 'South African Journal of Botany', 'id': 1}, 'title': 'Antigonococcal activity of Ximenia caffra Sond. (Olacaceae) and identification of the active principle', 'year': 2013, 'start_page': None, 'volume': None, 'issue': None, 'doi': '10.1016/j.sajb.2013.02.170', 'isbn': '', 'despositor': {'code': 'BND', 'first_name': "Bakary N'tji", 'last_name': 'Diallo', 'id': 26}, 'refauthors_set': [{'author': {'first_name': 'Nair', 'initials': 'NJ', 'last_name': 'J.', 'id': 1008}, 'first_author': True, 'id': 1589}], 'id': 489}]

>  <classifications>  (818) 
[{'classification': 'Butanones', 'id': 918}, {'classification': 'Organooxygen compounds (Classyfire)', 'id': 954}]

>  <molecular_mass>  (818) 
192.3

$$$$
SANC00931_minRM1.pdb
     RDKit          3D

 51 53  0  0  1  0  0  0  0  0999 V2000
    0.5080   -3.0780   -1.3300 C   0  0  0  0  0  0  0  0  0  0  0  0
   -0.2400   -1.9280   -0.7580 C   0  0  0  0  0  0  0  0  0  0  0  0
   -1.2690   -2.1400    0.0760 C   0  0  0  0  0  0  0  0  0  0  0  0
   -2.1860   -1.0710    0.5500 C   0  0  0  0  0  0  0  0  0  0  0  0
   -2.9630   -1.2990    1.4520 O   0  0  0  0  0  0  0  0  0  0  0  0
   -2.0970    0.2040   -0.2520 C   0  0  2  0  0  0  0  0  0  0  0  0
   -0.6100    0.5820   -0.4310 C   0  0  1  0  0  0  0  0  0  0  0  0
    0.1120   -0.5540   -1.2160 C   0  0  1  0  0  0  0  0  0  0  0  0
    1.6340   -0.3340   -1.2650 C   0  0  0  0  0  0  0  0  0  0  0  0
    2.4270   -1.0200   -0.1470 C   0  0  0  0  0  0  0  0  0  0  0  0
    3.5250   -0.1480    0.3140 C   0  0  0  0  0  0  0  0  0  0  0  0
    3.7880    0.2750    1.5920 C   0  0  0  0  0  0  0  0  0  0  0  0
    4.9090    1.0650    1.6090 O   0  0  0  0  0  0  0  0  0  0  0  0
    5.3600    1.1430    0.3180 C   0  0  0  0  0  0  0  0  0  0  0  0
    4.5510    0.4200   -0.5190 C   0  0  0  0  0  0  0  0  0  0  0  0
   -0.4690    1.8770   -1.2630 C   0  0  0  0  0  0  0  0  0  0  0  0
   -1.8010    2.5450   -1.5790 C   0  0  0  0  0  0  0  0  0  0  0  0
   -2.5830    2.6960   -0.2880 C   0  0  0  0  0  0  0  0  0  0  0  0
   -3.0130    1.3320    0.2800 C   0  0  1  0  0  0  0  0  0  0  0  0
   -4.4410    1.0260   -0.1950 C   0  0  0  0  0  0  0  0  0  0  0  0
   -3.0550    1.4660    1.8050 C   0  0  0  0  0  0  0  0  0  0  0  0
    0.0240    0.7670    0.9430 C   0  0  0  0  0  0  0  0  0  0  0  0
   -1.6990   -3.3610    0.4850 O   0  0  0  0  0  0  0  0  0  0  0  0
    1.1330   -3.5880   -0.5790 H   0  0  0  0  0  0  0  0  0  0  0  0
   -0.1770   -3.8400   -1.7390 H   0  0  0  0  0  0  0  0  0  0  0  0
    1.1700   -2.8070   -2.1640 H   0  0  0  0  0  0  0  0  0  0  0  0
   -2.4830   -0.0860   -1.2700 H   0  0  0  0  0  0  0  0  0  0  0  0
   -0.2690   -0.5160   -2.2770 H   0  0  0  0  0  0  0  0  0  0  0  0
    2.0270   -0.6780   -2.2480 H   0  0  0  0  0  0  0  0  0  0  0  0
    1.8680    0.7520   -1.2850 H   0  0  0  0  0  0  0  0  0  0  0  0
    2.8730   -1.9750   -0.5030 H   0  0  0  0  0  0  0  0  0  0  0  0
    1.7860   -1.3210    0.7070 H   0  0  0  0  0  0  0  0  0  0  0  0
    3.3120    0.1190    2.5510 H   0  0  0  0  0  0  0  0  0  0  0  0
    6.2510    1.7420    0.1730 H   0  0  0  0  0  0  0  0  0  0  0  0
    4.6460    0.2870   -1.5880 H   0  0  0  0  0  0  0  0  0  0  0  0
    0.0630    1.7050   -2.2240 H   0  0  0  0  0  0  0  0  0  0  0  0
    0.1870    2.6060   -0.7400 H   0  0  0  0  0  0  0  0  0  0  0  0
   -1.6300    3.5350   -2.0540 H   0  0  0  0  0  0  0  0  0  0  0  0
   -2.3760    1.9820   -2.3430 H   0  0  0  0  0  0  0  0  0  0  0  0
   -3.4670    3.3520   -0.4400 H   0  0  0  0  0  0  0  0  0  0  0  0
   -1.9640    3.2620    0.4420 H   0  0  0  0  0  0  0  0  0  0  0  0
   -5.1770    1.7160    0.2440 H   0  0  0  0  0  0  0  0  0  0  0  0
   -4.5520    1.1090   -1.2850 H   0  0  0  0  0  0  0  0  0  0  0  0
   -4.7670    0.0140    0.0840 H   0  0  0  0  0  0  0  0  0  0  0  0
   -3.7040    0.7300    2.3000 H   0  0  0  0  0  0  0  0  0  0  0  0
   -2.0600    1.3810    2.2650 H   0  0  0  0  0  0  0  0  0  0  0  0
   -3.4620    2.4420    2.1150 H   0  0  0  0  0  0  0  0  0  0  0  0
   -0.5010    1.5330    1.5390 H   0  0  0  0  0  0  0  0  0  0  0  0
    1.0740    1.0920    0.9050 H   0  0  0  0  0  0  0  0  0  0  0  0
    0.0030   -0.1530    1.5450 H   0  0  0  0  0  0  0  0  0  0  0  0
   -0.9250   -3.9130    0.6500 H   0  0  0  0  0  0  0  0  0  0  0  0
  1 26  1  0
  1 25  1  0
  1  2  1  0
  1 24  1  0
  2  8  1  0
  2  3  2  0
  3 23  1  0
  3  4  1  0
  4  6  1  0
  4  5  2  0
  6 27  1  6
  6  7  1  0
  6 19  1  0
  7 16  1  0
  7  8  1  0
  7 22  1  1
  8 28  1  6
  8  9  1  0
  9 29  1  0
  9 30  1  0
  9 10  1  0
 10 31  1  0
 10 11  1  0
 10 32  1  0
 11 15  1  0
 11 12  2  0
 12 13  1  0
 12 33  1  0
 13 14  1  0
 14 15  2  0
 14 34  1  0
 15 35  1  0
 16 36  1  0
 16 17  1  0
 16 37  1  0
 17 39  1  0
 17 38  1  0
 17 18  1  0
 18 40  1  0
 18 19  1  0
 18 41  1  0
 19 20  1  6
 19 21  1  0
 20 43  1  0
 20 44  1  0
 20 42  1  0
 21 47  1  0
 21 46  1  0
 21 45  1  0
 22 49  1  0
 22 48  1  0
 22 50  1  0
 23 51  1  0
M  END
>  <id>  (819) 
931

>  <scaffolds>  (819) 
['C1=CCCCC1', 'C1=CCC2CCCCC2C1', 'c1ccoc1', 'C1CCCCC1', 'O=C1C=CCCC1']

>  <name>  (819) 
11,12-Dihydro-7-hydroxyhedychenone

>  <formula>  (819) 
C20H28O3

>  <SMILES>  (819) 
CC1=C(C(=O)[C@@H]2[C@@]([C@H]1CCC3=COC=C3)(CCCC2(C)C)C)O

>  <ChEMBL_id>  (819) 


>  <ZINC_id>  (819) 


>  <PubChem_id>  (819) 


>  <DrugBank_id>  (819) 


>  <CAS_no>  (819) 
60149-07-7

>  <references>  (819) 
[{'journal': {'name': 'Tetrahedron', 'id': 4}, 'title': 'Transformations of hispanolone. Novel Michael adducts with in planta activity against rice blast', 'year': 2005, 'start_page': 8493, 'volume': 61, 'issue': 35, 'doi': '10.1016/j.tet.2005.06.052', 'isbn': '', 'despositor': {'code': 'TMM', 'first_name': 'Thommas', 'last_name': 'Musyoka', 'id': 22}, 'refauthors_set': [{'author': {'first_name': '', 'initials': 'AW', 'last_name': 'van Wyk', 'id': 537}, 'first_author': True, 'id': 878}, {'author': {'first_name': '', 'initials': 'CA', 'last_name': 'Gray', 'id': 480}, 'first_author': False, 'id': 879}, {'author': {'first_name': '', 'initials': 'RA', 'last_name': 'Keyzers', 'id': 546}, 'first_author': False, 'id': 880}, {'author': {'first_name': '', 'initials': 'DEA', 'last_name': 'Rivett', 'id': 527}, 'first_author': False, 'id': 881}, {'author': {'first_name': '', 'initials': 'MR', 'last_name': 'Caira', 'id': 637}, 'first_author': False, 'id': 882}, {'author': {'first_name': '', 'initials': 'BS', 'last_name': 'Nader', 'id': 638}, 'first_author': False, 'id': 883}, {'author': {'first_name': '', 'initials': 'GE', 'last_name': 'Davis', 'id': 639}, 'first_author': False, 'id': 884}, {'author': {'first_name': '', 'initials': 'TL', 'last_name': 'Werk', 'id': 640}, 'first_author': False, 'id': 885}, {'author': {'first_name': 'Michael', 'initials': 'MT', 'last_name': 'Davies-Coleman', 'id': 449}, 'first_author': False, 'id': 886}], 'id': 301}]

>  <classifications>  (819) 
[{'classification': 'Phenol lipids (Classyfire)', 'id': 951}]

>  <molecular_mass>  (819) 
316.4

$$$$
SANC00932_minRM1.pdb
     RDKit          3D

 50 52  0  0  1  0  0  0  0  0999 V2000
    1.8850    1.3080    1.7390 C   0  0  0  0  0  0  0  0  0  0  0  0
    0.5870    0.9560    1.0990 C   0  0  0  0  0  0  0  0  0  0  0  0
    0.2370   -0.3000    0.7800 C   0  0  0  0  0  0  0  0  0  0  0  0
   -1.0590   -0.6180    0.0540 C   0  0  1  0  0  0  0  0  0  0  0  0
   -1.6200   -1.9760    0.5230 C   0  0  0  0  0  0  0  0  0  0  0  0
   -3.1420   -2.0680    0.4960 C   0  0  0  0  0  0  0  0  0  0  0  0
   -3.7070   -1.2280   -0.6350 C   0  0  0  0  0  0  0  0  0  0  0  0
   -3.4700    0.2650   -0.3720 C   0  0  1  0  0  0  0  0  0  0  0  0
   -2.1070    0.4800    0.3310 C   0  0  2  0  0  0  0  0  0  0  0  0
   -1.5140    1.8430   -0.0050 C   0  0  0  0  0  0  0  0  0  0  0  0
   -0.3250    2.0950    0.8800 C   0  0  0  0  0  0  0  0  0  0  0  0
   -0.1490    3.1900    1.3860 O   0  0  0  0  0  0  0  0  0  0  0  0
   -3.6220    1.0060   -1.7040 C   0  0  0  0  0  0  0  0  0  0  0  0
   -4.5770    0.7920    0.5530 C   0  0  0  0  0  0  0  0  0  0  0  0
   -0.7330   -0.6810   -1.4390 C   0  0  0  0  0  0  0  0  0  0  0  0
    1.1170   -1.4500    1.1750 C   0  0  0  0  0  0  0  0  0  0  0  0
    1.9110   -2.0600    0.0180 C   0  0  0  0  0  0  0  0  0  0  0  0
    3.0380   -1.2030   -0.3900 C   0  0  0  0  0  0  0  0  0  0  0  0
    4.3090   -1.1990    0.1310 C   0  0  0  0  0  0  0  0  0  0  0  0
    5.0870   -0.2750   -0.5170 O   0  0  0  0  0  0  0  0  0  0  0  0
    4.2940    0.3150   -1.4670 C   0  0  0  0  0  0  0  0  0  0  0  0
    3.0300   -0.2150   -1.4360 C   0  0  0  0  0  0  0  0  0  0  0  0
    2.7390    0.7800    1.2860 H   0  0  0  0  0  0  0  0  0  0  0  0
    2.1380    2.3770    1.6590 H   0  0  0  0  0  0  0  0  0  0  0  0
    1.8770    1.0780    2.8150 H   0  0  0  0  0  0  0  0  0  0  0  0
   -1.2720   -2.2080    1.5550 H   0  0  0  0  0  0  0  0  0  0  0  0
   -1.1870   -2.7940   -0.0940 H   0  0  0  0  0  0  0  0  0  0  0  0
   -3.5740   -1.7610    1.4710 H   0  0  0  0  0  0  0  0  0  0  0  0
   -3.4570   -3.1280    0.3910 H   0  0  0  0  0  0  0  0  0  0  0  0
   -4.7880   -1.4360   -0.7770 H   0  0  0  0  0  0  0  0  0  0  0  0
   -3.2420   -1.5380   -1.5990 H   0  0  0  0  0  0  0  0  0  0  0  0
   -2.2880    0.4550    1.4410 H   0  0  0  0  0  0  0  0  0  0  0  0
   -2.2640    2.6550    0.1140 H   0  0  0  0  0  0  0  0  0  0  0  0
   -1.1760    1.9130   -1.0610 H   0  0  0  0  0  0  0  0  0  0  0  0
   -4.5390    0.6980   -2.2320 H   0  0  0  0  0  0  0  0  0  0  0  0
   -3.7040    2.0960   -1.5870 H   0  0  0  0  0  0  0  0  0  0  0  0
   -2.7980    0.8290   -2.4070 H   0  0  0  0  0  0  0  0  0  0  0  0
   -4.6670    0.2210    1.4880 H   0  0  0  0  0  0  0  0  0  0  0  0
   -4.4160    1.8400    0.8430 H   0  0  0  0  0  0  0  0  0  0  0  0
   -5.5690    0.7530    0.0780 H   0  0  0  0  0  0  0  0  0  0  0  0
    0.0970   -1.3710   -1.6620 H   0  0  0  0  0  0  0  0  0  0  0  0
   -1.5850   -1.0420   -2.0370 H   0  0  0  0  0  0  0  0  0  0  0  0
   -0.4350    0.2980   -1.8430 H   0  0  0  0  0  0  0  0  0  0  0  0
    1.8150   -1.1810    1.9970 H   0  0  0  0  0  0  0  0  0  0  0  0
    0.4960   -2.2410    1.6600 H   0  0  0  0  0  0  0  0  0  0  0  0
    1.2510   -2.2680   -0.8540 H   0  0  0  0  0  0  0  0  0  0  0  0
    2.2950   -3.0600    0.3180 H   0  0  0  0  0  0  0  0  0  0  0  0
    4.8020   -1.7570    0.9160 H   0  0  0  0  0  0  0  0  0  0  0  0
    4.7770    1.0770   -2.0650 H   0  0  0  0  0  0  0  0  0  0  0  0
    2.1840    0.0470   -2.0560 H   0  0  0  0  0  0  0  0  0  0  0  0
  1  2  1  0
  1 23  1  0
  1 24  1  0
  1 25  1  0
  2  3  2  0
  2 11  1  0
  3  4  1  0
  3 16  1  0
  4 15  1  6
  4  9  1  0
  4  5  1  0
  5 27  1  0
  5  6  1  0
  5 26  1  0
  6  7  1  0
  6 29  1  0
  6 28  1  0
  7 31  1  0
  7 30  1  0
  7  8  1  0
  8 13  1  6
  8  9  1  0
  8 14  1  0
  9 10  1  0
  9 32  1  1
 10 34  1  0
 10 33  1  0
 10 11  1  0
 11 12  2  0
 13 37  1  0
 13 35  1  0
 13 36  1  0
 14 40  1  0
 14 39  1  0
 14 38  1  0
 15 42  1  0
 15 43  1  0
 15 41  1  0
 16 17  1  0
 16 45  1  0
 16 44  1  0
 17 46  1  0
 17 18  1  0
 17 47  1  0
 18 22  1  0
 18 19  2  0
 19 20  1  0
 19 48  1  0
 20 21  1  0
 21 49  1  0
 21 22  2  0
 22 50  1  0
M  END
>  <id>  (820) 
932

>  <scaffolds>  (820) 
['C1=CC2CCCCC2CC1', 'C1=CCCCC1', 'c1ccoc1', 'C1CCCCC1', 'O=C1C=CCCC1', 'O=C1C=C(CCc2ccoc2)C2CCCCC2C1']

>  <name>  (820) 
Hispanone

>  <formula>  (820) 
C20H28O2

>  <SMILES>  (820) 
CC1=C([C@]2(CCCC([C@@H]2CC1=O)(C)C)C)CCC3=COC=C3

>  <ChEMBL_id>  (820) 
SCHEMBL13446722

>  <ZINC_id>  (820) 


>  <PubChem_id>  (820) 


>  <DrugBank_id>  (820) 


>  <CAS_no>  (820) 
82462-67-7

>  <references>  (820) 
[{'journal': {'name': 'Tetrahedron', 'id': 4}, 'title': 'Transformations of hispanolone. Novel Michael adducts with in planta activity against rice blast', 'year': 2005, 'start_page': 8493, 'volume': 61, 'issue': 35, 'doi': '10.1016/j.tet.2005.06.052', 'isbn': '', 'despositor': {'code': 'TMM', 'first_name': 'Thommas', 'last_name': 'Musyoka', 'id': 22}, 'refauthors_set': [{'author': {'first_name': '', 'initials': 'AW', 'last_name': 'van Wyk', 'id': 537}, 'first_author': True, 'id': 878}, {'author': {'first_name': '', 'initials': 'CA', 'last_name': 'Gray', 'id': 480}, 'first_author': False, 'id': 879}, {'author': {'first_name': '', 'initials': 'RA', 'last_name': 'Keyzers', 'id': 546}, 'first_author': False, 'id': 880}, {'author': {'first_name': '', 'initials': 'DEA', 'last_name': 'Rivett', 'id': 527}, 'first_author': False, 'id': 881}, {'author': {'first_name': '', 'initials': 'MR', 'last_name': 'Caira', 'id': 637}, 'first_author': False, 'id': 882}, {'author': {'first_name': '', 'initials': 'BS', 'last_name': 'Nader', 'id': 638}, 'first_author': False, 'id': 883}, {'author': {'first_name': '', 'initials': 'GE', 'last_name': 'Davis', 'id': 639}, 'first_author': False, 'id': 884}, {'author': {'first_name': '', 'initials': 'TL', 'last_name': 'Werk', 'id': 640}, 'first_author': False, 'id': 885}, {'author': {'first_name': 'Michael', 'initials': 'MT', 'last_name': 'Davies-Coleman', 'id': 449}, 'first_author': False, 'id': 886}], 'id': 301}]

>  <classifications>  (820) 
[{'classification': 'Phenol lipids (Classyfire)', 'id': 951}]

>  <molecular_mass>  (820) 
300.4

$$$$
SANC00933_minRM1.pdb
     RDKit          3D

 53 56  0  0  1  0  0  0  0  0999 V2000
   -3.7560   -1.7030    1.3980 C   0  0  0  0  0  0  0  0  0  0  0  0
   -2.8860   -1.2610    0.2200 C   0  0  2  0  0  0  0  0  0  0  0  0
   -2.2300   -2.4620   -0.4400 C   0  0  0  0  0  0  0  0  0  0  0  0
   -0.9300   -2.7900    0.2840 C   0  0  0  0  0  0  0  0  0  0  0  0
    0.0860   -1.6430    0.2730 C   0  0  0  0  0  0  0  0  0  0  0  0
   -0.5300   -0.2770   -0.0690 C   0  0  1  0  0  0  0  0  0  0  0  0
   -1.8770   -0.1870    0.6520 C   0  0  1  0  0  0  0  0  0  0  0  0
   -2.6060    1.1440    0.3910 C   0  0  1  0  0  0  0  0  0  0  0  0
   -1.8020    2.2190   -0.3400 C   0  0  0  0  0  0  0  0  0  0  0  0
   -0.2890    2.2730   -0.0270 C   0  0  2  0  0  0  0  0  0  0  0  0
    0.3400    0.9090    0.4640 C   0  0  2  0  0  0  0  0  0  0  0  0
    1.8200    0.7920    0.0180 C   0  0  0  0  0  0  0  0  0  0  0  0
    2.7110   -0.0290    0.9530 C   0  0  0  0  0  0  0  0  0  0  0  0
    3.9320   -0.4760    0.2600 C   0  0  0  0  0  0  0  0  0  0  0  0
    4.5710    0.1090   -0.8050 C   0  0  0  0  0  0  0  0  0  0  0  0
    5.6920   -0.6070   -1.1380 O   0  0  0  0  0  0  0  0  0  0  0  0
    5.7640   -1.6620   -0.2670 C   0  0  0  0  0  0  0  0  0  0  0  0
    4.7120   -1.6330    0.6120 C   0  0  0  0  0  0  0  0  0  0  0  0
    0.2440    0.8410    1.8560 O   0  0  0  0  0  0  0  0  0  0  0  0
   -0.0290    3.4080    0.9790 C   0  0  0  0  0  0  0  0  0  0  0  0
    0.3840    2.5660   -1.2220 O   0  0  0  0  0  0  0  0  0  0  0  0
   -3.7200    0.8590   -0.4490 O   0  0  0  0  0  0  0  0  0  0  0  0
   -3.8060   -0.4830   -0.6940 C   0  0  0  0  0  0  0  0  0  0  0  0
   -4.5990   -0.8540   -1.5280 O   0  0  0  0  0  0  0  0  0  0  0  0
   -0.6180   -0.1820   -1.5920 C   0  0  0  0  0  0  0  0  0  0  0  0
   -4.2040   -0.8510    1.9300 H   0  0  0  0  0  0  0  0  0  0  0  0
   -3.1850   -2.2740    2.1430 H   0  0  0  0  0  0  0  0  0  0  0  0
   -4.5870   -2.3470    1.0750 H   0  0  0  0  0  0  0  0  0  0  0  0
   -2.0450   -2.2790   -1.5220 H   0  0  0  0  0  0  0  0  0  0  0  0
   -2.9130   -3.3380   -0.4380 H   0  0  0  0  0  0  0  0  0  0  0  0
   -0.4750   -3.7000   -0.1620 H   0  0  0  0  0  0  0  0  0  0  0  0
   -1.1500   -3.0910    1.3310 H   0  0  0  0  0  0  0  0  0  0  0  0
    0.6000   -1.6050    1.2600 H   0  0  0  0  0  0  0  0  0  0  0  0
    0.9040   -1.8770   -0.4430 H   0  0  0  0  0  0  0  0  0  0  0  0
   -1.6960   -0.3060    1.7520 H   0  0  0  0  0  0  0  0  0  0  0  0
   -3.0270    1.5550    1.3450 H   0  0  0  0  0  0  0  0  0  0  0  0
   -2.2750    3.2060   -0.1470 H   0  0  0  0  0  0  0  0  0  0  0  0
   -1.9490    2.0870   -1.4420 H   0  0  0  0  0  0  0  0  0  0  0  0
    1.8410    0.3820   -1.0170 H   0  0  0  0  0  0  0  0  0  0  0  0
    2.2890    1.7960   -0.0790 H   0  0  0  0  0  0  0  0  0  0  0  0
    2.1760   -0.9030    1.3890 H   0  0  0  0  0  0  0  0  0  0  0  0
    3.0140    0.5670    1.8430 H   0  0  0  0  0  0  0  0  0  0  0  0
    4.3810    0.9830   -1.4140 H   0  0  0  0  0  0  0  0  0  0  0  0
    6.6080   -2.3240   -0.4090 H   0  0  0  0  0  0  0  0  0  0  0  0
    4.4940   -2.3270    1.4110 H   0  0  0  0  0  0  0  0  0  0  0  0
    0.9180    1.4040    2.2460 H   0  0  0  0  0  0  0  0  0  0  0  0
   -0.5950    3.2730    1.9120 H   0  0  0  0  0  0  0  0  0  0  0  0
   -0.3270    4.3930    0.5880 H   0  0  0  0  0  0  0  0  0  0  0  0
    1.0350    3.5050    1.2380 H   0  0  0  0  0  0  0  0  0  0  0  0
    0.0820    3.4210   -1.5440 H   0  0  0  0  0  0  0  0  0  0  0  0
   -0.9080   -1.1330   -2.0690 H   0  0  0  0  0  0  0  0  0  0  0  0
    0.3580    0.0830   -2.0350 H   0  0  0  0  0  0  0  0  0  0  0  0
   -1.3400    0.5550   -1.9710 H   0  0  0  0  0  0  0  0  0  0  0  0
  1 28  1  0
  1 26  1  0
  1 27  1  0
  2  1  1  1
  2 23  1  0
  2  3  1  0
  2  7  1  0
  3 29  1  0
  3 30  1  0
  3  4  1  0
  4 31  1  0
  4  5  1  0
  4 32  1  0
  5 34  1  0
  5  6  1  0
  5 33  1  0
  6 25  1  6
  6 11  1  0
  6  7  1  0
  7  8  1  0
  7 35  1  1
  8 22  1  0
  8  9  1  0
  8 36  1  1
  9 38  1  0
  9 37  1  0
  9 10  1  0
 10 21  1  6
 10 11  1  0
 10 20  1  0
 11 12  1  0
 11 19  1  1
 12 39  1  0
 12 40  1  0
 12 13  1  0
 13 14  1  0
 13 41  1  0
 13 42  1  0
 14 15  2  0
 14 18  1  0
 15 43  1  0
 15 16  1  0
 16 17  1  0
 17 44  1  0
 17 18  2  0
 18 45  1  0
 19 46  1  0
 20 48  1  0
 20 49  1  0
 20 47  1  0
 21 50  1  0
 22 23  1  0
 23 24  2  0
 25 51  1  0
 25 52  1  0
 25 53  1  0
M  END
>  <id>  (821) 
933

>  <scaffolds>  (821) 
['c1ccoc1', 'C1CCCCC1', 'O=C1OC2CCC(CCc3ccoc3)C3CCCC1C23', 'O=C1CCCO1', 'C1CCC2CCCCC2C1']

>  <name>  (821) 
Leonotin

>  <formula>  (821) 
C20H28O5

>  <SMILES>  (821) 
C[C@]12CCC[C@]3(C1[C@@H](C[C@]([C@@]3(CCC4=COC=C4)O)(C)O)OC2=O)C

>  <ChEMBL_id>  (821) 


>  <ZINC_id>  (821) 


>  <PubChem_id>  (821) 
101306752

>  <DrugBank_id>  (821) 


>  <CAS_no>  (821) 
26549-00-8

>  <references>  (821) 
[{'journal': {'name': 'Magnetic Resonance in Chemistry', 'id': 56}, 'title': 'Complete <sup>1</sup>H and <sup>13</sup>C NMR assignments of three labdane diterpenoids isolated from Leonotis ocymifolia and six other related compounds', 'year': 2003, 'start_page': None, 'volume': None, 'issue': None, 'doi': '10.1002/mrc.1136', 'isbn': '', 'despositor': {'code': 'BND', 'first_name': "Bakary N'tji", 'last_name': 'Diallo', 'id': 26}, 'refauthors_set': [{'author': {'first_name': 'Hussein', 'initials': 'HA', 'last_name': 'Ahmed', 'id': 1010}, 'first_author': True, 'id': 1590}], 'id': 490}]

>  <classifications>  (821) 
[{'classification': 'Lactones (Classyfire)', 'id': 952}]

>  <molecular_mass>  (821) 
348.4

$$$$
SANC00934_minRM1.pdb
     RDKit          3D

 51 55  0  0  1  0  0  0  0  0999 V2000
   -4.4380    0.2470   -1.0820 C   0  0  0  0  0  0  0  0  0  0  0  0
   -3.1810    0.7470   -0.3580 C   0  0  2  0  0  0  0  0  0  0  0  0
   -2.9530    2.1960   -0.7600 C   0  0  0  0  0  0  0  0  0  0  0  0
   -1.5270    2.6980   -0.5920 C   0  0  0  0  0  0  0  0  0  0  0  0
   -0.5160    1.6710   -1.0880 C   0  0  0  0  0  0  0  0  0  0  0  0
   -0.6270    0.3850   -0.2550 C   0  0  1  0  0  0  0  0  0  0  0  0
   -2.0040   -0.2130   -0.5850 C   0  0  1  0  0  0  0  0  0  0  0  0
   -2.3480   -1.3530    0.3990 C   0  0  1  0  0  0  0  0  0  0  0  0
   -1.1180   -2.1220    0.8720 C   0  0  0  0  0  0  0  0  0  0  0  0
   -0.1120   -2.1040   -0.2550 C   0  0  2  0  0  0  0  0  0  0  0  0
    0.4250   -0.7100   -0.6530 C   0  0  2  0  0  0  0  0  0  0  0  0
    1.8290   -0.5360   -0.0330 C   0  0  0  0  0  0  0  0  0  0  0  0
    2.5620    0.7190   -0.5030 C   0  0  0  0  0  0  0  0  0  0  0  0
    3.8920    0.7980    0.1270 C   0  0  0  0  0  0  0  0  0  0  0  0
    4.8950   -0.1390    0.0850 C   0  0  0  0  0  0  0  0  0  0  0  0
    5.9850    0.3030    0.7870 O   0  0  0  0  0  0  0  0  0  0  0  0
    5.6660    1.5410    1.2820 C   0  0  0  0  0  0  0  0  0  0  0  0
    4.3950    1.8950    0.9080 C   0  0  0  0  0  0  0  0  0  0  0  0
    0.5080   -0.7590   -2.0480 O   0  0  0  0  0  0  0  0  0  0  0  0
   -0.1360   -3.2510   -1.2340 C   0  0  0  0  0  0  0  0  0  0  0  0
    0.8290   -3.1610   -0.1990 O   0  0  0  0  0  0  0  0  0  0  0  0
   -2.9840   -0.7270    1.5040 O   0  0  0  0  0  0  0  0  0  0  0  0
   -3.4460    0.5070    1.1180 C   0  0  0  0  0  0  0  0  0  0  0  0
   -4.0050    1.1840    1.9490 O   0  0  0  0  0  0  0  0  0  0  0  0
   -0.4530    0.7760    1.2130 C   0  0  0  0  0  0  0  0  0  0  0  0
   -4.2860    0.1760   -2.1690 H   0  0  0  0  0  0  0  0  0  0  0  0
   -4.7720   -0.7470   -0.7520 H   0  0  0  0  0  0  0  0  0  0  0  0
   -5.2910    0.9230   -0.9220 H   0  0  0  0  0  0  0  0  0  0  0  0
   -3.2440    2.3280   -1.8270 H   0  0  0  0  0  0  0  0  0  0  0  0
   -3.6570    2.8490   -0.1980 H   0  0  0  0  0  0  0  0  0  0  0  0
   -1.3340    2.9830    0.4650 H   0  0  0  0  0  0  0  0  0  0  0  0
   -1.4000    3.6540   -1.1460 H   0  0  0  0  0  0  0  0  0  0  0  0
    0.5100    2.0970   -1.0300 H   0  0  0  0  0  0  0  0  0  0  0  0
   -0.6830    1.4770   -2.1680 H   0  0  0  0  0  0  0  0  0  0  0  0
   -1.9970   -0.5840   -1.6390 H   0  0  0  0  0  0  0  0  0  0  0  0
   -3.0810   -2.0730   -0.0520 H   0  0  0  0  0  0  0  0  0  0  0  0
   -1.3900   -3.1590    1.1660 H   0  0  0  0  0  0  0  0  0  0  0  0
   -0.6740   -1.7080    1.8050 H   0  0  0  0  0  0  0  0  0  0  0  0
    2.4580   -1.4170   -0.2970 H   0  0  0  0  0  0  0  0  0  0  0  0
    1.7770   -0.5760    1.0730 H   0  0  0  0  0  0  0  0  0  0  0  0
    1.9800    1.6430   -0.2900 H   0  0  0  0  0  0  0  0  0  0  0  0
    2.6720    0.7130   -1.6130 H   0  0  0  0  0  0  0  0  0  0  0  0
    4.9990   -1.1160   -0.3700 H   0  0  0  0  0  0  0  0  0  0  0  0
    6.4410    2.0200    1.8660 H   0  0  0  0  0  0  0  0  0  0  0  0
    3.8630    2.8060    1.1450 H   0  0  0  0  0  0  0  0  0  0  0  0
    1.1530   -0.1060   -2.3450 H   0  0  0  0  0  0  0  0  0  0  0  0
   -0.8820   -4.0550   -1.1500 H   0  0  0  0  0  0  0  0  0  0  0  0
    0.2260   -3.1700   -2.2670 H   0  0  0  0  0  0  0  0  0  0  0  0
   -0.4130   -0.0680    1.9170 H   0  0  0  0  0  0  0  0  0  0  0  0
   -1.2530    1.4340    1.5850 H   0  0  0  0  0  0  0  0  0  0  0  0
    0.4730    1.3470    1.3840 H   0  0  0  0  0  0  0  0  0  0  0  0
  1 26  1  0
  1 28  1  0
  1 27  1  0
  2  1  1  6
  2  3  1  0
  2  7  1  0
  2 23  1  0
  3 29  1  0
  3  4  1  0
  3 30  1  0
  4 32  1  0
  4  5  1  0
  4 31  1  0
  5 34  1  0
  5 33  1  0
  5  6  1  0
  6 11  1  0
  6  7  1  0
  6 25  1  1
  7 35  1  6
  7  8  1  0
  8 36  1  6
  8  9  1  0
  8 22  1  0
  9 10  1  0
  9 37  1  0
  9 38  1  0
 10 20  1  0
 10 11  1  0
 10 21  1  1
 11 19  1  6
 11 12  1  0
 12 13  1  0
 12 39  1  0
 12 40  1  0
 13 42  1  0
 13 41  1  0
 13 14  1  0
 14 15  2  0
 14 18  1  0
 15 43  1  0
 15 16  1  0
 16 17  1  0
 17 18  2  0
 17 44  1  0
 18 45  1  0
 19 46  1  0
 20 48  1  0
 20 47  1  0
 20 21  1  0
 22 23  1  0
 23 24  2  0
 25 51  1  0
 25 50  1  0
 25 49  1  0
M  END
>  <id>  (822) 
934

>  <scaffolds>  (822) 
['c1ccoc1', 'C1CCCCC1', 'O=C1OC2CCC(CCc3ccoc3)C3CCCC1C23', 'O=C1CCCO1', 'O=C1OC2CC3(CO3)C(CCc3ccoc3)C3CCCC1C23', 'C1CCC2CCCCC2C1']

>  <name>  (822) 
Leonotinin

>  <formula>  (822) 
C20H26O5

>  <SMILES>  (822) 
C[C@]12CCC[C@]3([C@H]1[C@@H](C[C@]4([C@@]3(CCC5=COC=C5)O)CO4)OC2=O)C

>  <ChEMBL_id>  (822) 
CHEMBL2036989

>  <ZINC_id>  (822) 


>  <PubChem_id>  (822) 
636934

>  <DrugBank_id>  (822) 


>  <CAS_no>  (822) 
55784-80-0

>  <references>  (822) 
[{'journal': {'name': 'Magnetic Resonance in Chemistry', 'id': 56}, 'title': 'Complete <sup>1</sup>H and <sup>13</sup>C NMR assignments of three labdane diterpenoids isolated from Leonotis ocymifolia and six other related compounds', 'year': 2003, 'start_page': None, 'volume': None, 'issue': None, 'doi': '10.1002/mrc.1136', 'isbn': '', 'despositor': {'code': 'BND', 'first_name': "Bakary N'tji", 'last_name': 'Diallo', 'id': 26}, 'refauthors_set': [{'author': {'first_name': 'Hussein', 'initials': 'HA', 'last_name': 'Ahmed', 'id': 1010}, 'first_author': True, 'id': 1590}], 'id': 490}]

>  <classifications>  (822) 
[{'classification': 'Lactone', 'id': 919}, {'classification': 'Lactones (Classyfire)', 'id': 952}]

>  <molecular_mass>  (822) 
346.4

$$$$
SANC00935_minRM1.pdb
     RDKit          3D

 57 58  0  0  1  0  0  0  0  0999 V2000
   -4.0630   -0.0780    0.2820 C   0  0  0  0  0  0  0  0  0  0  0  0
   -2.7580   -0.7750   -0.1130 C   0  0  2  0  0  0  0  0  0  0  0  0
   -2.6400   -2.0300    0.7580 C   0  0  0  0  0  0  0  0  0  0  0  0
   -1.3490   -2.8070    0.5410 C   0  0  0  0  0  0  0  0  0  0  0  0
   -0.1570   -1.9220    0.2020 C   0  0  0  0  0  0  0  0  0  0  0  0
   -0.3190   -0.4950    0.7450 C   0  0  2  0  0  0  0  0  0  0  0  0
   -1.5110    0.1430    0.0020 C   0  0  2  0  0  0  0  0  0  0  0  0
   -1.8050    1.5170    0.6410 C   0  0  1  0  0  0  0  0  0  0  0  0
   -0.5310    2.2270    1.1310 C   0  0  0  0  0  0  0  0  0  0  0  0
    0.6950    1.8330    0.2960 C   0  0  2  0  0  0  0  0  0  0  0  0
    0.9730    0.3030    0.3890 C   0  0  1  0  0  0  0  0  0  0  0  0
    2.1200   -0.0540    1.3440 C   0  0  0  0  0  0  0  0  0  0  0  0
    3.4870   -0.0220    0.6540 C   0  0  0  0  0  0  0  0  0  0  0  0
    3.6150   -1.1410   -0.3290 C   0  0  0  0  0  0  0  0  0  0  0  0
    3.6570   -2.4150    0.0500 C   0  0  0  0  0  0  0  0  0  0  0  0
    3.6970   -0.7790   -1.7450 C   0  0  0  0  0  0  0  0  0  0  0  0
    4.6470    0.0210   -2.2140 C   0  0  0  0  0  0  0  0  0  0  0  0
    1.8750    2.7210    0.7210 C   0  0  0  0  0  0  0  0  0  0  0  0
    0.4800    2.0620   -1.0710 O   0  0  0  0  0  0  0  0  0  0  0  0
   -2.3780    2.2880   -0.3810 O   0  0  0  0  0  0  0  0  0  0  0  0
   -0.5420   -0.5460    2.2570 C   0  0  0  0  0  0  0  0  0  0  0  0
   -2.9210   -1.2420   -1.5860 C   0  0  0  0  0  0  0  0  0  0  0  0
   -3.2360   -0.2010   -2.4550 O   0  0  0  0  0  0  0  0  0  0  0  0
   -4.0270    0.3310    1.3040 H   0  0  0  0  0  0  0  0  0  0  0  0
   -4.3320    0.7510   -0.3870 H   0  0  0  0  0  0  0  0  0  0  0  0
   -4.9220   -0.7670    0.2540 H   0  0  0  0  0  0  0  0  0  0  0  0
   -2.7400   -1.7450    1.8310 H   0  0  0  0  0  0  0  0  0  0  0  0
   -3.5090   -2.7040    0.5920 H   0  0  0  0  0  0  0  0  0  0  0  0
   -1.1330   -3.4140    1.4470 H   0  0  0  0  0  0  0  0  0  0  0  0
   -1.4850   -3.5700   -0.2560 H   0  0  0  0  0  0  0  0  0  0  0  0
    0.7800   -2.3900    0.5760 H   0  0  0  0  0  0  0  0  0  0  0  0
   -0.0020   -1.8960   -0.8990 H   0  0  0  0  0  0  0  0  0  0  0  0
   -1.1620    0.3320   -1.0530 H   0  0  0  0  0  0  0  0  0  0  0  0
   -2.5050    1.4010    1.5170 H   0  0  0  0  0  0  0  0  0  0  0  0
   -0.6750    3.3290    1.1330 H   0  0  0  0  0  0  0  0  0  0  0  0
   -0.3370    1.9880    2.2000 H   0  0  0  0  0  0  0  0  0  0  0  0
    1.2940   -0.0270   -0.6390 H   0  0  0  0  0  0  0  0  0  0  0  0
    2.1280    0.6100    2.2340 H   0  0  0  0  0  0  0  0  0  0  0  0
    1.9810   -1.0650    1.7820 H   0  0  0  0  0  0  0  0  0  0  0  0
    3.6580    0.9650    0.1680 H   0  0  0  0  0  0  0  0  0  0  0  0
    4.2970   -0.0990    1.4120 H   0  0  0  0  0  0  0  0  0  0  0  0
    3.7460   -3.2430   -0.6460 H   0  0  0  0  0  0  0  0  0  0  0  0
    3.6190   -2.7390    1.0850 H   0  0  0  0  0  0  0  0  0  0  0  0
    2.9300   -1.2150   -2.3950 H   0  0  0  0  0  0  0  0  0  0  0  0
    4.7280    0.2970   -3.2600 H   0  0  0  0  0  0  0  0  0  0  0  0
    5.4250    0.4640   -1.6010 H   0  0  0  0  0  0  0  0  0  0  0  0
    2.8010    2.4500    0.1900 H   0  0  0  0  0  0  0  0  0  0  0  0
    2.0850    2.6690    1.7970 H   0  0  0  0  0  0  0  0  0  0  0  0
    1.6920    3.7820    0.4930 H   0  0  0  0  0  0  0  0  0  0  0  0
   -0.0060    2.8840   -1.1790 H   0  0  0  0  0  0  0  0  0  0  0  0
   -2.9040    2.9770    0.0320 H   0  0  0  0  0  0  0  0  0  0  0  0
   -0.0090   -1.3790    2.7390 H   0  0  0  0  0  0  0  0  0  0  0  0
   -1.5990   -0.6780    2.5360 H   0  0  0  0  0  0  0  0  0  0  0  0
   -0.2150    0.3670    2.7800 H   0  0  0  0  0  0  0  0  0  0  0  0
   -2.0230   -1.7980   -1.9400 H   0  0  0  0  0  0  0  0  0  0  0  0
   -3.7750   -1.9460   -1.6980 H   0  0  0  0  0  0  0  0  0  0  0  0
   -2.5930    0.5080   -2.3260 H   0  0  0  0  0  0  0  0  0  0  0  0
  1 25  1  0
  1 26  1  0
  1 24  1  0
  2  1  1  1
  2 22  1  0
  2  7  1  0
  2  3  1  0
  3  4  1  0
  3 28  1  0
  3 27  1  0
  4 30  1  0
  4  5  1  0
  4 29  1  0
  5 32  1  0
  5 31  1  0
  5  6  1  0
  6  7  1  0
  6 11  1  0
  6 21  1  1
  7 33  1  6
  7  8  1  0
  8 20  1  0
  8  9  1  0
  8 34  1  1
  9 10  1  0
  9 35  1  0
  9 36  1  0
 10 19  1  6
 10 11  1  0
 10 18  1  0
 11 37  1  6
 11 12  1  0
 12 13  1  0
 12 39  1  0
 12 38  1  0
 13 14  1  0
 13 40  1  0
 13 41  1  0
 14 16  1  0
 14 15  2  0
 15 42  1  0
 15 43  1  0
 16 44  1  0
 16 17  2  0
 17 45  1  0
 17 46  1  0
 18 47  1  0
 18 49  1  0
 18 48  1  0
 19 50  1  0
 20 51  1  0
 21 53  1  0
 21 52  1  0
 21 54  1  0
 22 23  1  0
 22 55  1  0
 22 56  1  0
 23 57  1  0
M  END
>  <id>  (823) 
935

>  <scaffolds>  (823) 
['C1CCCCC1', 'C1CCC2CCCCC2C1']

>  <name>  (823) 
Andalusol

>  <formula>  (823) 
C20H34O3

>  <SMILES>  (823) 
C[C@@]1(CCC[C@@]2([C@@H]1[C@@H](C[C@]([C@H]2CCC(=C)C=C)(C)O)O)C)CO

>  <ChEMBL_id>  (823) 
CHEMBL2180484

>  <ZINC_id>  (823) 


>  <PubChem_id>  (823) 
188448

>  <DrugBank_id>  (823) 


>  <CAS_no>  (823) 
62279-93-0

>  <references>  (823) 
[{'journal': {'name': 'Magnetic Resonance in Chemistry', 'id': 56}, 'title': 'Complete <sup>1</sup>H and <sup>13</sup>C NMR assignments of three labdane diterpenoids isolated from Leonotis ocymifolia and six other related compounds', 'year': 2003, 'start_page': None, 'volume': None, 'issue': None, 'doi': '10.1002/mrc.1136', 'isbn': '', 'despositor': {'code': 'BND', 'first_name': "Bakary N'tji", 'last_name': 'Diallo', 'id': 26}, 'refauthors_set': [{'author': {'first_name': 'Hussein', 'initials': 'HA', 'last_name': 'Ahmed', 'id': 1010}, 'first_author': True, 'id': 1590}], 'id': 490}]

>  <classifications>  (823) 
[{'classification': 'Diterpene', 'id': 771}, {'classification': 'Phenol lipids (Classyfire)', 'id': 951}]

>  <molecular_mass>  (823) 
322.5

$$$$
SANC00936_minRM1.pdb
     RDKit          3D

 56 57  0  0  1  0  0  0  0  0999 V2000
   -1.8640   -2.4840   -0.0170 C   0  0  0  0  0  0  0  0  0  0  0  0
   -0.5380   -1.8030   -0.0110 C   0  0  0  0  0  0  0  0  0  0  0  0
    0.5420   -2.4940    0.3540 C   0  0  0  0  0  0  0  0  0  0  0  0
    1.9050   -1.9140    0.4460 C   0  0  0  0  0  0  0  0  0  0  0  0
    1.8680   -0.3860    0.5190 C   0  0  1  0  0  0  0  0  0  0  0  0
    3.2900    0.2240    0.5690 C   0  0  1  0  0  0  0  0  0  0  0  0
    3.2860    1.6910    0.1180 C   0  0  0  0  0  0  0  0  0  0  0  0
    1.9320    2.3320    0.3580 C   0  0  0  0  0  0  0  0  0  0  0  0
    0.9250    1.7060   -0.5950 C   0  0  0  0  0  0  0  0  0  0  0  0
    0.9490    0.1620   -0.5910 C   0  0  2  0  0  0  0  0  0  0  0  0
   -0.4990   -0.3360   -0.3070 C   0  0  1  0  0  0  0  0  0  0  0  0
   -1.4450    0.0760   -1.4520 C   0  0  0  0  0  0  0  0  0  0  0  0
   -2.3810    1.2260   -1.0660 C   0  0  0  0  0  0  0  0  0  0  0  0
   -3.4420    0.7940   -0.1040 C   0  0  0  0  0  0  0  0  0  0  0  0
   -4.4300   -0.0050   -0.5180 C   0  0  0  0  0  0  0  0  0  0  0  0
   -5.5340   -0.4810    0.3740 C   0  0  0  0  0  0  0  0  0  0  0  0
   -6.1640    0.5650    1.0520 O   0  0  0  0  0  0  0  0  0  0  0  0
   -3.3690    1.3190    1.2840 C   0  0  0  0  0  0  0  0  0  0  0  0
    1.4030   -0.3520   -1.9560 C   0  0  0  0  0  0  0  0  0  0  0  0
    3.7870    0.1580    2.0200 C   0  0  0  0  0  0  0  0  0  0  0  0
    4.3140   -0.5440   -0.3010 C   0  0  0  0  0  0  0  0  0  0  0  0
    5.5160    0.1490   -0.4470 O   0  0  0  0  0  0  0  0  0  0  0  0
   -1.9190   -3.3160    0.7020 H   0  0  0  0  0  0  0  0  0  0  0  0
   -2.0930   -2.9180   -1.0020 H   0  0  0  0  0  0  0  0  0  0  0  0
   -2.6920   -1.8080    0.2480 H   0  0  0  0  0  0  0  0  0  0  0  0
    0.4760   -3.5600    0.6010 H   0  0  0  0  0  0  0  0  0  0  0  0
    2.4880   -2.3020   -0.4160 H   0  0  0  0  0  0  0  0  0  0  0  0
    2.4250   -2.3300    1.3370 H   0  0  0  0  0  0  0  0  0  0  0  0
    1.3690   -0.1250    1.4930 H   0  0  0  0  0  0  0  0  0  0  0  0
    3.5510    1.7830   -0.9580 H   0  0  0  0  0  0  0  0  0  0  0  0
    4.0880    2.2660    0.6290 H   0  0  0  0  0  0  0  0  0  0  0  0
    1.6140    2.2350    1.4170 H   0  0  0  0  0  0  0  0  0  0  0  0
    1.9830    3.4310    0.1970 H   0  0  0  0  0  0  0  0  0  0  0  0
   -0.0850    2.1100   -0.3530 H   0  0  0  0  0  0  0  0  0  0  0  0
    1.1070    2.0990   -1.6190 H   0  0  0  0  0  0  0  0  0  0  0  0
   -0.8540    0.1370    0.6490 H   0  0  0  0  0  0  0  0  0  0  0  0
   -0.8660    0.3890   -2.3520 H   0  0  0  0  0  0  0  0  0  0  0  0
   -2.0390   -0.7750   -1.8400 H   0  0  0  0  0  0  0  0  0  0  0  0
   -2.8620    1.6400   -1.9800 H   0  0  0  0  0  0  0  0  0  0  0  0
   -1.7860    2.0810   -0.6710 H   0  0  0  0  0  0  0  0  0  0  0  0
   -4.4670   -0.3680   -1.5490 H   0  0  0  0  0  0  0  0  0  0  0  0
   -5.1510   -1.1470    1.1810 H   0  0  0  0  0  0  0  0  0  0  0  0
   -6.2730   -1.0910   -0.1970 H   0  0  0  0  0  0  0  0  0  0  0  0
   -6.4470    1.2100    0.3960 H   0  0  0  0  0  0  0  0  0  0  0  0
   -4.0900    2.1390    1.4330 H   0  0  0  0  0  0  0  0  0  0  0  0
   -2.3820    1.7220    1.5560 H   0  0  0  0  0  0  0  0  0  0  0  0
   -3.6060    0.5520    2.0380 H   0  0  0  0  0  0  0  0  0  0  0  0
    1.2220   -1.4280   -2.0910 H   0  0  0  0  0  0  0  0  0  0  0  0
    2.4770   -0.1800   -2.1330 H   0  0  0  0  0  0  0  0  0  0  0  0
    0.8640    0.1340   -2.7880 H   0  0  0  0  0  0  0  0  0  0  0  0
    3.2080    0.8090    2.6920 H   0  0  0  0  0  0  0  0  0  0  0  0
    4.8360    0.4780    2.1220 H   0  0  0  0  0  0  0  0  0  0  0  0
    3.7360   -0.8550    2.4440 H   0  0  0  0  0  0  0  0  0  0  0  0
    3.9500   -0.6600   -1.3500 H   0  0  0  0  0  0  0  0  0  0  0  0
    4.5050   -1.5680    0.0950 H   0  0  0  0  0  0  0  0  0  0  0  0
    5.8750    0.3160    0.4310 H   0  0  0  0  0  0  0  0  0  0  0  0
  1 24  1  0
  1  2  1  0
  1 25  1  0
  1 23  1  0
  2 11  1  0
  2  3  2  0
  3  4  1  0
  3 26  1  0
  4 27  1  0
  4  5  1  0
  4 28  1  0
  5 10  1  0
  5  6  1  0
  5 29  1  1
  6 21  1  6
  6  7  1  0
  6 20  1  0
  7 30  1  0
  7  8  1  0
  7 31  1  0
  8  9  1  0
  8 33  1  0
  8 32  1  0
  9 35  1  0
  9 10  1  0
  9 34  1  0
 10 19  1  6
 10 11  1  0
 11 12  1  0
 11 36  1  1
 12 37  1  0
 12 38  1  0
 12 13  1  0
 13 39  1  0
 13 40  1  0
 13 14  1  0
 14 15  2  0
 14 18  1  0
 15 41  1  0
 15 16  1  0
 16 43  1  0
 16 17  1  0
 16 42  1  0
 17 44  1  0
 18 45  1  0
 18 46  1  0
 18 47  1  0
 19 50  1  0
 19 49  1  0
 19 48  1  0
 20 52  1  0
 20 53  1  0
 20 51  1  0
 21 54  1  0
 21 22  1  0
 21 55  1  0
 22 56  1  0
M  END
>  <id>  (824) 
936

>  <scaffolds>  (824) 
['C1=CCCCC1', 'C1=CCC2CCCCC2C1', 'C1CCCCC1']

>  <name>  (824) 
Villenol

>  <formula>  (824) 
C20H34O2

>  <SMILES>  (824) 
CC1=CC[C@H]2[C@@](CCC[C@@]2([C@H]1CC/C(=C/CO)/C)C)(C)CO

>  <ChEMBL_id>  (824) 


>  <ZINC_id>  (824) 
ZINC96316324

>  <PubChem_id>  (824) 
21582485

>  <DrugBank_id>  (824) 


>  <CAS_no>  (824) 
66471-77-0

>  <references>  (824) 
[{'journal': {'name': 'Magnetic Resonance in Chemistry', 'id': 56}, 'title': 'Complete <sup>1</sup>H and <sup>13</sup>C NMR assignments of three labdane diterpenoids isolated from Leonotis ocymifolia and six other related compounds', 'year': 2003, 'start_page': None, 'volume': None, 'issue': None, 'doi': '10.1002/mrc.1136', 'isbn': '', 'despositor': {'code': 'BND', 'first_name': "Bakary N'tji", 'last_name': 'Diallo', 'id': 26}, 'refauthors_set': [{'author': {'first_name': 'Hussein', 'initials': 'HA', 'last_name': 'Ahmed', 'id': 1010}, 'first_author': True, 'id': 1590}], 'id': 490}]

>  <classifications>  (824) 
[{'classification': 'Phenol lipids (Classyfire)', 'id': 951}]

>  <molecular_mass>  (824) 
306.5

$$$$
SANC00937_minRM1.pdb
     RDKit          3D

 30 32  0  0  0  0  0  0  0  0999 V2000
    4.5240    0.7090   -1.0910 C   0  0  0  0  0  0  0  0  0  0  0  0
    5.1290   -0.3370   -0.3930 C   0  0  0  0  0  0  0  0  0  0  0  0
    4.3900   -1.1310    0.4640 C   0  0  0  0  0  0  0  0  0  0  0  0
    3.0180   -0.8750    0.6200 C   0  0  0  0  0  0  0  0  0  0  0  0
    2.4010    0.1590   -0.0850 C   0  0  0  0  0  0  0  0  0  0  0  0
    3.1710    0.9530   -0.9400 C   0  0  0  0  0  0  0  0  0  0  0  0
    0.9790    0.4690    0.0220 C   0  0  0  0  0  0  0  0  0  0  0  0
    0.4740    1.6860    0.2630 C   0  0  0  0  0  0  0  0  0  0  0  0
   -0.9740    1.9130    0.2940 C   0  0  0  0  0  0  0  0  0  0  0  0
   -1.4530    3.0170    0.4870 O   0  0  0  0  0  0  0  0  0  0  0  0
   -1.7690    0.7070    0.0740 C   0  0  0  0  0  0  0  0  0  0  0  0
   -3.1770    0.7130    0.0870 C   0  0  0  0  0  0  0  0  0  0  0  0
   -3.9190   -0.4480   -0.1210 C   0  0  0  0  0  0  0  0  0  0  0  0
   -3.2260   -1.6400   -0.3510 C   0  0  0  0  0  0  0  0  0  0  0  0
   -1.8320   -1.7040   -0.3780 C   0  0  0  0  0  0  0  0  0  0  0  0
   -1.1380   -0.5140   -0.1630 C   0  0  0  0  0  0  0  0  0  0  0  0
    0.2190   -0.6480   -0.1990 O   0  0  0  0  0  0  0  0  0  0  0  0
   -4.0050   -2.7250   -0.5440 O   0  0  0  0  0  0  0  0  0  0  0  0
   -3.7530    1.9050    0.3160 O   0  0  0  0  0  0  0  0  0  0  0  0
    2.3970   -1.7010    1.4900 O   0  0  0  0  0  0  0  0  0  0  0  0
    5.1220    1.3340   -1.7600 H   0  0  0  0  0  0  0  0  0  0  0  0
    6.1990   -0.5270   -0.5230 H   0  0  0  0  0  0  0  0  0  0  0  0
    4.8590   -1.9500    1.0170 H   0  0  0  0  0  0  0  0  0  0  0  0
    2.6950    1.7690   -1.4950 H   0  0  0  0  0  0  0  0  0  0  0  0
    1.1260    2.5450    0.4470 H   0  0  0  0  0  0  0  0  0  0  0  0
   -5.0120   -0.4480   -0.1090 H   0  0  0  0  0  0  0  0  0  0  0  0
   -1.2930   -2.6360   -0.5630 H   0  0  0  0  0  0  0  0  0  0  0  0
   -3.4480   -3.4980   -0.6990 H   0  0  0  0  0  0  0  0  0  0  0  0
   -4.7140    1.8060    0.3000 H   0  0  0  0  0  0  0  0  0  0  0  0
    1.5020   -1.3930    1.6630 H   0  0  0  0  0  0  0  0  0  0  0  0
  1 21  1  0
  1  6  2  0
  1  2  1  0
  2 22  1  0
  2  3  2  0
  3  4  1  0
  3 23  1  0
  4  5  2  0
  4 20  1  0
  5  6  1  0
  5  7  1  0
  6 24  1  0
  7 17  1  0
  7  8  2  0
  8  9  1  0
  8 25  1  0
  9 11  1  0
  9 10  2  0
 11 16  2  0
 11 12  1  0
 12 13  2  0
 12 19  1  0
 13 14  1  0
 13 26  1  0
 14 18  1  0
 14 15  2  0
 15 27  1  0
 15 16  1  0
 16 17  1  0
 18 28  1  0
 19 29  1  0
 20 30  1  0
M  END
>  <id>  (825) 
937

>  <scaffolds>  (825) 
['c1ccccc1', 'O=c1cc(-c2ccccc2)oc2ccccc12', 'O=c1ccoc2ccccc12']

>  <name>  (825) 
5,7,2'-Trihydroxyflavone

>  <formula>  (825) 
C15H10O5

>  <SMILES>  (825) 
C1=CC=C(C(=C1)C2=CC(=O)C3=C(C=C(C=C3O2)O)O)O

>  <ChEMBL_id>  (825) 
SCHEMBL3708991

>  <ZINC_id>  (825) 
ZINC6095504

>  <PubChem_id>  (825) 
5322064

>  <DrugBank_id>  (825) 


>  <CAS_no>  (825) 
73046-40-9

>  <references>  (825) 
[{'journal': {'name': 'Phytotherapy Research', 'id': 57}, 'title': 'Activity against Mycobacterium smegmatis and M. tuberculosis by extract of South African medicinal plants', 'year': 2008, 'start_page': None, 'volume': None, 'issue': None, 'doi': '10.1002/ptr.2378', 'isbn': '', 'despositor': {'code': 'BND', 'first_name': "Bakary N'tji", 'last_name': 'Diallo', 'id': 26}, 'refauthors_set': [{'author': {'first_name': 'Mativandlela', 'initials': 'MS', 'last_name': 'Sannah', 'id': 1011}, 'first_author': True, 'id': 1591}], 'id': 491}]

>  <classifications>  (825) 
[{'classification': 'Flavonoids', 'id': 776}, {'classification': 'Flavonoids (Classyfire)', 'id': 941}]

>  <molecular_mass>  (825) 
270.24

$$$$
SANC00938_minRM1.pdb
     RDKit          3D

 41 44  0  0  0  0  0  0  0  0999 V2000
    6.3040    0.6050    1.1900 C   0  0  0  0  0  0  0  0  0  0  0  0
    5.3880    0.1350    0.0530 C   0  0  0  0  0  0  0  0  0  0  0  0
    5.0550   -1.3110    0.2300 C   0  0  0  0  0  0  0  0  0  0  0  0
    3.7970   -1.7490    0.2490 C   0  0  0  0  0  0  0  0  0  0  0  0
    2.7130   -0.8070    0.1160 C   0  0  0  0  0  0  0  0  0  0  0  0
    3.0240    0.5570    0.0360 C   0  0  0  0  0  0  0  0  0  0  0  0
    4.2850    1.0320    0.0940 O   0  0  0  0  0  0  0  0  0  0  0  0
    2.0380    1.5400   -0.0770 C   0  0  0  0  0  0  0  0  0  0  0  0
    0.7140    1.1110   -0.1010 C   0  0  0  0  0  0  0  0  0  0  0  0
    0.3380   -0.2340   -0.0250 C   0  0  0  0  0  0  0  0  0  0  0  0
    1.3650   -1.1870    0.0790 C   0  0  0  0  0  0  0  0  0  0  0  0
    0.9670   -2.4680    0.1410 O   0  0  0  0  0  0  0  0  0  0  0  0
   -1.0750   -0.6100   -0.0450 C   0  0  0  0  0  0  0  0  0  0  0  0
   -1.4580   -1.7650   -0.0020 O   0  0  0  0  0  0  0  0  0  0  0  0
   -1.9930    0.5370   -0.1170 C   0  0  0  0  0  0  0  0  0  0  0  0
   -1.5190    1.7900   -0.1990 C   0  0  0  0  0  0  0  0  0  0  0  0
   -0.1990    2.1180   -0.2090 O   0  0  0  0  0  0  0  0  0  0  0  0
   -3.4290    0.3020   -0.0840 C   0  0  0  0  0  0  0  0  0  0  0  0
   -4.0030   -0.6530   -0.9190 C   0  0  0  0  0  0  0  0  0  0  0  0
   -5.3730   -0.8740   -0.8850 C   0  0  0  0  0  0  0  0  0  0  0  0
   -6.1560   -0.1290   -0.0020 C   0  0  0  0  0  0  0  0  0  0  0  0
   -5.5930    0.8330    0.8420 C   0  0  0  0  0  0  0  0  0  0  0  0
   -4.2250    1.0390    0.7940 C   0  0  0  0  0  0  0  0  0  0  0  0
   -7.5010   -0.2720    0.1000 O   0  0  0  0  0  0  0  0  0  0  0  0
    6.0520    0.3410   -1.3130 C   0  0  0  0  0  0  0  0  0  0  0  0
    7.2530    0.0520    1.1920 H   0  0  0  0  0  0  0  0  0  0  0  0
    6.5520    1.6730    1.1070 H   0  0  0  0  0  0  0  0  0  0  0  0
    5.8390    0.4610    2.1750 H   0  0  0  0  0  0  0  0  0  0  0  0
    5.9110   -1.9830    0.3290 H   0  0  0  0  0  0  0  0  0  0  0  0
    3.5520   -2.8110    0.3690 H   0  0  0  0  0  0  0  0  0  0  0  0
    2.2970    2.6000   -0.1390 H   0  0  0  0  0  0  0  0  0  0  0  0
    1.7430   -3.0430    0.2290 H   0  0  0  0  0  0  0  0  0  0  0  0
   -2.1010    2.7150   -0.2730 H   0  0  0  0  0  0  0  0  0  0  0  0
   -3.3810   -1.2340   -1.6070 H   0  0  0  0  0  0  0  0  0  0  0  0
   -5.8180   -1.6280   -1.5400 H   0  0  0  0  0  0  0  0  0  0  0  0
   -6.2250    1.4040    1.5280 H   0  0  0  0  0  0  0  0  0  0  0  0
   -3.7690    1.7770    1.4620 H   0  0  0  0  0  0  0  0  0  0  0  0
   -7.7830   -0.9870   -0.4830 H   0  0  0  0  0  0  0  0  0  0  0  0
    6.3120    1.3950   -1.4900 H   0  0  0  0  0  0  0  0  0  0  0  0
    5.3950    0.0320   -2.1380 H   0  0  0  0  0  0  0  0  0  0  0  0
    6.9800   -0.2400   -1.3990 H   0  0  0  0  0  0  0  0  0  0  0  0
  1  2  1  0
  1 27  1  0
  1 26  1  0
  1 28  1  0
  2 25  1  0
  2  7  1  0
  2  3  1  0
  3  4  2  0
  3 29  1  0
  4  5  1  0
  4 30  1  0
  5  6  2  0
  5 11  1  0
  6  8  1  0
  6  7  1  0
  8 31  1  0
  8  9  2  0
  9 17  1  0
  9 10  1  0
 10 13  1  0
 10 11  2  0
 11 12  1  0
 12 32  1  0
 13 15  1  0
 13 14  2  0
 15 16  2  0
 15 18  1  0
 16 33  1  0
 16 17  1  0
 18 19  2  0
 18 23  1  0
 19 34  1  0
 19 20  1  0
 20 35  1  0
 20 21  2  0
 21 24  1  0
 21 22  1  0
 22 23  2  0
 22 36  1  0
 23 37  1  0
 24 38  1  0
 25 40  1  0
 25 39  1  0
 25 41  1  0
M  END
>  <id>  (826) 
938

>  <scaffolds>  (826) 
['c1ccccc1', 'O=c1c(-c2ccccc2)coc2ccccc12', 'O=c1c(-c2ccccc2)coc2cc3c(cc12)C=CCO3', 'C1=Cc2ccccc2OC1', 'O=c1ccoc2ccccc12']

>  <name>  (826) 
Alpinumisoflavone

>  <formula>  (826) 
C20H16O5

>  <SMILES>  (826) 
CC1(C=CC2=C(O1)C=C3C(=C2O)C(=O)C(=CO3)C4=CC=C(C=C4)O)C

>  <ChEMBL_id>  (826) 
SCHEMBL571695

>  <ZINC_id>  (826) 
ZINC14417338

>  <PubChem_id>  (826) 
5490139

>  <DrugBank_id>  (826) 


>  <CAS_no>  (826) 
34086-50-5

>  <references>  (826) 
[{'journal': {'name': 'Phytotherapy Research', 'id': 57}, 'title': 'Antibacterial activity of flavonoids from the stem bark of Erythrina caffra thunb.', 'year': 2011, 'start_page': None, 'volume': None, 'issue': None, 'doi': '10.1002/ptr.3159', 'isbn': '', 'despositor': {'code': 'BND', 'first_name': "Bakary N'tji", 'last_name': 'Diallo', 'id': 26}, 'refauthors_set': [{'author': {'first_name': 'Chukwujekwu', 'initials': 'CJ', 'last_name': 'J.', 'id': 1012}, 'first_author': True, 'id': 1592}], 'id': 492}]

>  <classifications>  (826) 
[{'classification': 'Isoflavones', 'id': 892}, {'classification': 'Isoflavonoids (Classyfire)', 'id': 963}]

>  <molecular_mass>  (826) 
336.3

$$$$
SANC00939_minRM1.pdb
     RDKit          3D

 56 58  0  0  0  0  0  0  0  0999 V2000
   -4.5290    2.0130   -1.5020 C   0  0  0  0  0  0  0  0  0  0  0  0
   -3.6200    3.1800   -1.3590 C   0  0  0  0  0  0  0  0  0  0  0  0
   -2.9540    3.4500   -0.2350 C   0  0  0  0  0  0  0  0  0  0  0  0
   -3.0410    2.6250    1.0050 C   0  0  0  0  0  0  0  0  0  0  0  0
   -2.1200    1.4530    0.9080 C   0  0  0  0  0  0  0  0  0  0  0  0
   -2.5740    0.1300    0.9450 C   0  0  0  0  0  0  0  0  0  0  0  0
   -1.7160   -0.9820    0.8370 C   0  0  0  0  0  0  0  0  0  0  0  0
   -0.3630   -0.7130    0.6700 C   0  0  0  0  0  0  0  0  0  0  0  0
    0.1500    0.5870    0.6480 C   0  0  0  0  0  0  0  0  0  0  0  0
   -0.7420    1.6690    0.7800 C   0  0  0  0  0  0  0  0  0  0  0  0
   -0.3150    2.9350    0.8040 O   0  0  0  0  0  0  0  0  0  0  0  0
    1.5710    0.8210    0.4840 C   0  0  0  0  0  0  0  0  0  0  0  0
    2.0190    1.9700    0.4920 O   0  0  0  0  0  0  0  0  0  0  0  0
    2.3780   -0.3800    0.3110 C   0  0  0  0  0  0  0  0  0  0  0  0
    1.7850   -1.5880    0.3510 C   0  0  0  0  0  0  0  0  0  0  0  0
    0.4570   -1.7970    0.5330 O   0  0  0  0  0  0  0  0  0  0  0  0
    3.8100   -0.2650    0.0850 C   0  0  0  0  0  0  0  0  0  0  0  0
    4.4000   -0.9770   -0.9560 C   0  0  0  0  0  0  0  0  0  0  0  0
    5.7660   -0.8830   -1.1830 C   0  0  0  0  0  0  0  0  0  0  0  0
    6.5300   -0.0630   -0.3510 C   0  0  0  0  0  0  0  0  0  0  0  0
    5.9490    0.6620    0.6960 C   0  0  0  0  0  0  0  0  0  0  0  0
    4.5850    0.5550    0.9060 C   0  0  0  0  0  0  0  0  0  0  0  0
    7.8700    0.0900   -0.4880 O   0  0  0  0  0  0  0  0  0  0  0  0
   -2.2680   -2.3700    0.8750 C   0  0  0  0  0  0  0  0  0  0  0  0
   -2.8990   -2.7160   -0.4300 C   0  0  0  0  0  0  0  0  0  0  0  0
   -3.3590   -3.9410   -0.7010 C   0  0  0  0  0  0  0  0  0  0  0  0
   -3.2750   -5.0570    0.2760 C   0  0  0  0  0  0  0  0  0  0  0  0
   -3.9830   -4.2710   -2.0100 C   0  0  0  0  0  0  0  0  0  0  0  0
   -3.8770   -0.1840    1.0970 O   0  0  0  0  0  0  0  0  0  0  0  0
   -3.4920    4.0450   -2.5640 C   0  0  0  0  0  0  0  0  0  0  0  0
   -4.9530    1.9160   -2.5130 H   0  0  0  0  0  0  0  0  0  0  0  0
   -4.0100    1.0650   -1.2960 H   0  0  0  0  0  0  0  0  0  0  0  0
   -5.3880    2.0740   -0.8160 H   0  0  0  0  0  0  0  0  0  0  0  0
   -2.2820    4.3130   -0.1710 H   0  0  0  0  0  0  0  0  0  0  0  0
   -4.0930    2.3190    1.2120 H   0  0  0  0  0  0  0  0  0  0  0  0
   -2.7690    3.2340    1.8960 H   0  0  0  0  0  0  0  0  0  0  0  0
    0.6700    2.9790    0.6870 H   0  0  0  0  0  0  0  0  0  0  0  0
    2.2740   -2.5630    0.2470 H   0  0  0  0  0  0  0  0  0  0  0  0
    3.7890   -1.6050   -1.6120 H   0  0  0  0  0  0  0  0  0  0  0  0
    6.2220   -1.4430   -2.0030 H   0  0  0  0  0  0  0  0  0  0  0  0
    6.5680    1.3020    1.3320 H   0  0  0  0  0  0  0  0  0  0  0  0
    4.1190    1.1190    1.7210 H   0  0  0  0  0  0  0  0  0  0  0  0
    8.1660   -0.4190   -1.2500 H   0  0  0  0  0  0  0  0  0  0  0  0
   -1.4870   -3.1130    1.1470 H   0  0  0  0  0  0  0  0  0  0  0  0
   -3.0130   -2.4630    1.6990 H   0  0  0  0  0  0  0  0  0  0  0  0
   -2.9780   -1.9070   -1.1620 H   0  0  0  0  0  0  0  0  0  0  0  0
   -2.2310   -5.3500    0.4690 H   0  0  0  0  0  0  0  0  0  0  0  0
   -3.7960   -5.9670   -0.0590 H   0  0  0  0  0  0  0  0  0  0  0  0
   -3.7170   -4.7900    1.2490 H   0  0  0  0  0  0  0  0  0  0  0  0
   -3.4620   -5.1050   -2.5040 H   0  0  0  0  0  0  0  0  0  0  0  0
   -5.0330   -4.5770   -1.8860 H   0  0  0  0  0  0  0  0  0  0  0  0
   -3.9820   -3.4350   -2.7240 H   0  0  0  0  0  0  0  0  0  0  0  0
   -4.3990    0.6310    1.1770 H   0  0  0  0  0  0  0  0  0  0  0  0
   -2.8310    4.9120   -2.4180 H   0  0  0  0  0  0  0  0  0  0  0  0
   -4.4690    4.4440   -2.8770 H   0  0  0  0  0  0  0  0  0  0  0  0
   -3.0850    3.4810   -3.4170 H   0  0  0  0  0  0  0  0  0  0  0  0
  1 31  1  0
  1  2  1  0
  1 32  1  0
  1 33  1  0
  2 30  1  0
  2  3  2  0
  3 34  1  0
  3  4  1  0
  4  5  1  0
  4 35  1  0
  4 36  1  0
  5 10  2  0
  5  6  1  0
  6  7  2  0
  6 29  1  0
  7  8  1  0
  7 24  1  0
  8 16  1  0
  8  9  2  0
  9 12  1  0
  9 10  1  0
 10 11  1  0
 11 37  1  0
 12 14  1  0
 12 13  2  0
 14 17  1  0
 14 15  2  0
 15 38  1  0
 15 16  1  0
 17 18  2  0
 17 22  1  0
 18 39  1  0
 18 19  1  0
 19 40  1  0
 19 20  2  0
 20 23  1  0
 20 21  1  0
 21 22  2  0
 21 41  1  0
 22 42  1  0
 23 43  1  0
 24 25  1  0
 24 44  1  0
 24 45  1  0
 25 46  1  0
 25 26  2  0
 26 28  1  0
 26 27  1  0
 27 48  1  0
 27 47  1  0
 27 49  1  0
 28 52  1  0
 28 50  1  0
 28 51  1  0
 29 53  1  0
 30 56  1  0
 30 55  1  0
 30 54  1  0
M  END
>  <id>  (827) 
939

>  <scaffolds>  (827) 
['c1ccccc1', 'O=c1c(-c2ccccc2)coc2ccccc12', 'O=c1ccoc2ccccc12']

>  <name>  (827) 
6,8-diprenylgenistein

>  <formula>  (827) 
C25H26O5

>  <SMILES>  (827) 
CC(=CCC1=C(C(=C2C(=C1O)C(=O)C(=CO2)C3=CC=C(C=C3)O)CC=C(C)C)O)C

>  <ChEMBL_id>  (827) 
SCHEMBL958215

>  <ZINC_id>  (827) 
ZINC5854389

>  <PubChem_id>  (827) 
480783

>  <DrugBank_id>  (827) 


>  <CAS_no>  (827) 
51225-28-6

>  <references>  (827) 
[{'journal': {'name': 'Phytotherapy Research', 'id': 57}, 'title': 'Antibacterial activity of flavonoids from the stem bark of Erythrina caffra thunb.', 'year': 2011, 'start_page': None, 'volume': None, 'issue': None, 'doi': '10.1002/ptr.3159', 'isbn': '', 'despositor': {'code': 'BND', 'first_name': "Bakary N'tji", 'last_name': 'Diallo', 'id': 26}, 'refauthors_set': [{'author': {'first_name': 'Chukwujekwu', 'initials': 'CJ', 'last_name': 'J.', 'id': 1012}, 'first_author': True, 'id': 1592}], 'id': 492}]

>  <classifications>  (827) 
[{'classification': 'Isoflavones', 'id': 892}, {'classification': 'Isoflavonoids (Classyfire)', 'id': 963}]

>  <molecular_mass>  (827) 
406.5

$$$$
SANC00940_minRM1.pdb
     RDKit          3D

 62 64  0  0  1  0  0  0  0  0999 V2000
   -4.8120    4.6720    1.6410 C   0  0  0  0  0  0  0  0  0  0  0  0
   -4.0600    4.4720    0.3750 C   0  0  0  0  0  0  0  0  0  0  0  0
   -3.3190    3.3840    0.1480 C   0  0  0  0  0  0  0  0  0  0  0  0
   -3.1910    2.2830    1.1460 C   0  0  0  0  0  0  0  0  0  0  0  0
   -2.2520    1.2330    0.6460 C   0  0  0  0  0  0  0  0  0  0  0  0
   -2.6840   -0.0300    0.2410 C   0  0  0  0  0  0  0  0  0  0  0  0
   -1.7840   -0.9950   -0.2170 C   0  0  0  0  0  0  0  0  0  0  0  0
   -0.4290   -0.6790   -0.2800 C   0  0  0  0  0  0  0  0  0  0  0  0
    0.0100    0.5770    0.1200 C   0  0  0  0  0  0  0  0  0  0  0  0
   -0.8940    1.5280    0.5840 C   0  0  0  0  0  0  0  0  0  0  0  0
    1.4690    0.9270    0.0340 C   0  0  2  0  0  0  0  0  0  0  0  0
    1.8860    1.0830   -1.4320 C   0  0  0  0  0  0  0  0  0  0  0  0
    3.3740    1.2490   -1.5140 C   0  0  0  0  0  0  0  0  0  0  0  0
    3.9260    1.8820   -2.4120 O   0  0  0  0  0  0  0  0  0  0  0  0
    4.1440    0.5790   -0.4900 C   0  0  0  0  0  0  0  0  0  0  0  0
    5.5510    0.5680   -0.5390 C   0  0  0  0  0  0  0  0  0  0  0  0
    6.3030   -0.1450    0.3990 C   0  0  0  0  0  0  0  0  0  0  0  0
    5.6140   -0.8460    1.3880 C   0  0  0  0  0  0  0  0  0  0  0  0
    4.2140   -0.8450    1.4920 C   0  0  0  0  0  0  0  0  0  0  0  0
    3.5070   -0.1180    0.5450 C   0  0  0  0  0  0  0  0  0  0  0  0
    2.1540   -0.1500    0.6580 O   0  0  0  0  0  0  0  0  0  0  0  0
    6.3930   -1.5230    2.2570 O   0  0  0  0  0  0  0  0  0  0  0  0
    6.2410    1.2240   -1.4780 O   0  0  0  0  0  0  0  0  0  0  0  0
   -2.2270   -2.3210   -0.6330 C   0  0  0  0  0  0  0  0  0  0  0  0
   -2.9890   -3.0830    0.1500 C   0  0  0  0  0  0  0  0  0  0  0  0
   -3.4180   -4.4630   -0.2770 C   0  0  2  0  0  0  0  0  0  0  0  0
   -4.6350   -4.9210    0.5350 C   0  0  0  0  0  0  0  0  0  0  0  0
   -2.2460   -5.4320   -0.0860 C   0  0  0  0  0  0  0  0  0  0  0  0
   -3.7140   -4.5070   -1.6450 O   0  0  0  0  0  0  0  0  0  0  0  0
   -4.0130   -0.3590    0.3480 O   0  0  0  0  0  0  0  0  0  0  0  0
   -4.7290   -0.0190   -0.8180 C   0  0  0  0  0  0  0  0  0  0  0  0
   -4.1790    5.5610   -0.6310 C   0  0  0  0  0  0  0  0  0  0  0  0
   -5.5350    3.8600    1.8220 H   0  0  0  0  0  0  0  0  0  0  0  0
   -4.1410    4.7040    2.5140 H   0  0  0  0  0  0  0  0  0  0  0  0
   -5.3890    5.6090    1.6600 H   0  0  0  0  0  0  0  0  0  0  0  0
   -2.7720    3.2570   -0.7920 H   0  0  0  0  0  0  0  0  0  0  0  0
   -2.8200    2.6760    2.1200 H   0  0  0  0  0  0  0  0  0  0  0  0
   -4.1920    1.8640    1.3930 H   0  0  0  0  0  0  0  0  0  0  0  0
    0.2850   -1.4320   -0.6310 H   0  0  0  0  0  0  0  0  0  0  0  0
   -0.5480    2.5170    0.9030 H   0  0  0  0  0  0  0  0  0  0  0  0
    1.7060    1.8700    0.6000 H   0  0  0  0  0  0  0  0  0  0  0  0
    1.5930    0.2010   -2.0410 H   0  0  0  0  0  0  0  0  0  0  0  0
    1.3490    1.9370   -1.8960 H   0  0  0  0  0  0  0  0  0  0  0  0
    7.3950   -0.1540    0.3530 H   0  0  0  0  0  0  0  0  0  0  0  0
    3.6890   -1.3880    2.2800 H   0  0  0  0  0  0  0  0  0  0  0  0
    5.8370   -1.9780    2.9010 H   0  0  0  0  0  0  0  0  0  0  0  0
    5.6330    1.6810   -2.1070 H   0  0  0  0  0  0  0  0  0  0  0  0
   -1.8770   -2.6550   -1.6170 H   0  0  0  0  0  0  0  0  0  0  0  0
   -3.3140   -2.7540    1.1410 H   0  0  0  0  0  0  0  0  0  0  0  0
   -4.3980   -5.0290    1.6020 H   0  0  0  0  0  0  0  0  0  0  0  0
   -5.4730   -4.2130    0.4650 H   0  0  0  0  0  0  0  0  0  0  0  0
   -5.0100   -5.8950    0.1900 H   0  0  0  0  0  0  0  0  0  0  0  0
   -1.9200   -5.4610    0.9630 H   0  0  0  0  0  0  0  0  0  0  0  0
   -1.3750   -5.1450   -0.6920 H   0  0  0  0  0  0  0  0  0  0  0  0
   -2.5120   -6.4590   -0.3770 H   0  0  0  0  0  0  0  0  0  0  0  0
   -4.4130   -3.8680   -1.8120 H   0  0  0  0  0  0  0  0  0  0  0  0
   -4.3890   -0.5830   -1.7030 H   0  0  0  0  0  0  0  0  0  0  0  0
   -4.6870    1.0590   -1.0510 H   0  0  0  0  0  0  0  0  0  0  0  0
   -5.7690   -0.2970   -0.5920 H   0  0  0  0  0  0  0  0  0  0  0  0
   -3.8380    6.5240   -0.2210 H   0  0  0  0  0  0  0  0  0  0  0  0
   -3.5960    5.3860   -1.5460 H   0  0  0  0  0  0  0  0  0  0  0  0
   -5.2250    5.6990   -0.9470 H   0  0  0  0  0  0  0  0  0  0  0  0
  1  2  1  0
  1 35  1  0
  1 33  1  0
  1 34  1  0
  2 32  1  0
  2  3  2  0
  3 36  1  0
  3  4  1  0
  4  5  1  0
  4 38  1  0
  4 37  1  0
  5  6  2  0
  5 10  1  0
  6  7  1  0
  6 30  1  0
  7 24  1  0
  7  8  2  0
  8 39  1  0
  8  9  1  0
  9 11  1  0
  9 10  2  0
 10 40  1  0
 11 12  1  0
 11 41  1  1
 11 21  1  0
 12 42  1  0
 12 43  1  0
 12 13  1  0
 13 14  2  0
 13 15  1  0
 15 16  2  0
 15 20  1  0
 16 23  1  0
 16 17  1  0
 17 44  1  0
 17 18  2  0
 18 19  1  0
 18 22  1  0
 19 20  2  0
 19 45  1  0
 20 21  1  0
 22 46  1  0
 23 47  1  0
 24 48  1  0
 24 25  2  0
 25 26  1  0
 25 49  1  0
 26 29  1  6
 26 28  1  0
 26 27  1  0
 27 52  1  0
 27 51  1  0
 27 50  1  0
 28 54  1  0
 28 55  1  0
 28 53  1  0
 29 56  1  0
 30 31  1  0
 31 57  1  0
 31 58  1  0
 31 59  1  0
 32 61  1  0
 32 62  1  0
 32 60  1  0
M  END
>  <id>  (828) 
940

>  <scaffolds>  (828) 
['c1ccccc1', 'O=C1CC(c2ccccc2)Oc2ccccc21', 'c1ccc(C2CCc3ccccc3O2)cc1', 'O=C(CCc1ccccc1)c1ccccc1']

>  <name>  (828) 
Burttinone

>  <formula>  (828) 
C26H30O6

>  <SMILES>  (828) 
CC(=CCC1=C(C(=CC(=C1)[C@@H]2CC(=O)C3=C(C=C(C=C3O2)O)O)/C=C/C(C)(C)O)OC)C

>  <ChEMBL_id>  (828) 


>  <ZINC_id>  (828) 


>  <PubChem_id>  (828) 


>  <DrugBank_id>  (828) 


>  <CAS_no>  (828) 
213819-43-3

>  <references>  (828) 
[{'journal': {'name': 'Phytotherapy Research', 'id': 57}, 'title': 'Antibacterial activity of flavonoids from the stem bark of Erythrina caffra thunb.', 'year': 2011, 'start_page': None, 'volume': None, 'issue': None, 'doi': '10.1002/ptr.3159', 'isbn': '', 'despositor': {'code': 'BND', 'first_name': "Bakary N'tji", 'last_name': 'Diallo', 'id': 26}, 'refauthors_set': [{'author': {'first_name': 'Chukwujekwu', 'initials': 'CJ', 'last_name': 'J.', 'id': 1012}, 'first_author': True, 'id': 1592}], 'id': 492}]

>  <classifications>  (828) 
[{'classification': 'Flavonoids (Classyfire)', 'id': 941}]

>  <molecular_mass>  (828) 
nan

$$$$
SANC00941_minRM1.pdb
     RDKit          3D

 61 63  0  0  1  0  0  0  0  0999 V2000
    4.7760    1.0810   -0.0910 C   0  0  0  0  0  0  0  0  0  0  0  0
    4.0710    0.7320   -1.2630 O   0  0  0  0  0  0  0  0  0  0  0  0
    2.7880    0.3230   -0.9990 C   0  0  0  0  0  0  0  0  0  0  0  0
    1.7380    1.1940   -1.3120 C   0  0  0  0  0  0  0  0  0  0  0  0
    1.9990    2.5310   -1.9280 C   0  0  0  0  0  0  0  0  0  0  0  0
    2.8490    3.3830   -1.0490 C   0  0  0  0  0  0  0  0  0  0  0  0
    2.3880    4.0080    0.0370 C   0  0  0  0  0  0  0  0  0  0  0  0
    3.2740    4.8570    0.8800 C   0  0  0  0  0  0  0  0  0  0  0  0
    0.9720    3.9180    0.4780 C   0  0  0  0  0  0  0  0  0  0  0  0
    0.4310    0.7680   -1.0970 C   0  0  0  0  0  0  0  0  0  0  0  0
    0.1820   -0.4960   -0.5740 C   0  0  0  0  0  0  0  0  0  0  0  0
   -1.2310   -0.9490   -0.3390 C   0  0  2  0  0  0  0  0  0  0  0  0
   -1.9290   -1.2120   -1.6770 C   0  0  0  0  0  0  0  0  0  0  0  0
   -3.3840   -1.4820   -1.4400 C   0  0  0  0  0  0  0  0  0  0  0  0
   -4.0590   -2.1970   -2.1780 O   0  0  0  0  0  0  0  0  0  0  0  0
   -3.9760   -0.8150   -0.3020 C   0  0  0  0  0  0  0  0  0  0  0  0
   -5.3590   -0.9030   -0.0560 C   0  0  0  0  0  0  0  0  0  0  0  0
   -6.1750   -1.6510   -0.8050 O   0  0  0  0  0  0  0  0  0  0  0  0
   -5.9550   -0.1980    0.9940 C   0  0  0  0  0  0  0  0  0  0  0  0
   -5.1330    0.5970    1.7920 C   0  0  0  0  0  0  0  0  0  0  0  0
   -5.7670    1.2610    2.7820 O   0  0  0  0  0  0  0  0  0  0  0  0
   -3.7470    0.6990    1.6000 C   0  0  0  0  0  0  0  0  0  0  0  0
   -3.1960   -0.0230    0.5500 C   0  0  0  0  0  0  0  0  0  0  0  0
   -1.8560    0.1080    0.3760 O   0  0  0  0  0  0  0  0  0  0  0  0
    1.2310   -1.3640   -0.2980 C   0  0  0  0  0  0  0  0  0  0  0  0
    2.5450   -0.9700   -0.5340 C   0  0  0  0  0  0  0  0  0  0  0  0
    3.6340   -1.9660   -0.2980 C   0  0  0  0  0  0  0  0  0  0  0  0
    3.8630   -2.1640    1.1610 C   0  0  0  0  0  0  0  0  0  0  0  0
    4.8120   -2.9760    1.6330 C   0  0  0  0  0  0  0  0  0  0  0  0
    5.7210   -3.7420    0.7400 C   0  0  0  0  0  0  0  0  0  0  0  0
    5.0230   -3.1690    3.0930 C   0  0  0  0  0  0  0  0  0  0  0  0
    4.2760    1.8610    0.5090 H   0  0  0  0  0  0  0  0  0  0  0  0
    5.7340    1.4730   -0.4640 H   0  0  0  0  0  0  0  0  0  0  0  0
    4.9730    0.2230    0.5720 H   0  0  0  0  0  0  0  0  0  0  0  0
    2.4930    2.3750   -2.9130 H   0  0  0  0  0  0  0  0  0  0  0  0
    1.0540    3.0590   -2.1830 H   0  0  0  0  0  0  0  0  0  0  0  0
    3.8940    3.4820   -1.3610 H   0  0  0  0  0  0  0  0  0  0  0  0
    4.3050    4.9310    0.5060 H   0  0  0  0  0  0  0  0  0  0  0  0
    2.8920    5.8870    0.9510 H   0  0  0  0  0  0  0  0  0  0  0  0
    3.3390    4.4680    1.9080 H   0  0  0  0  0  0  0  0  0  0  0  0
    0.7880    4.4040    1.4470 H   0  0  0  0  0  0  0  0  0  0  0  0
    0.2940    4.3970   -0.2450 H   0  0  0  0  0  0  0  0  0  0  0  0
    0.6400    2.8740    0.5880 H   0  0  0  0  0  0  0  0  0  0  0  0
   -0.4070    1.4350   -1.3280 H   0  0  0  0  0  0  0  0  0  0  0  0
   -1.2710   -1.8750    0.2990 H   0  0  0  0  0  0  0  0  0  0  0  0
   -1.8370   -0.3460   -2.3680 H   0  0  0  0  0  0  0  0  0  0  0  0
   -1.4340   -2.0500   -2.2110 H   0  0  0  0  0  0  0  0  0  0  0  0
   -5.6750   -2.0970   -1.5310 H   0  0  0  0  0  0  0  0  0  0  0  0
   -7.0300   -0.2670    1.1780 H   0  0  0  0  0  0  0  0  0  0  0  0
   -5.1260    1.7830    3.2800 H   0  0  0  0  0  0  0  0  0  0  0  0
   -3.1150    1.3160    2.2410 H   0  0  0  0  0  0  0  0  0  0  0  0
    1.0360   -2.3660    0.0980 H   0  0  0  0  0  0  0  0  0  0  0  0
    4.5750   -1.6830   -0.8210 H   0  0  0  0  0  0  0  0  0  0  0  0
    3.3570   -2.9350   -0.7770 H   0  0  0  0  0  0  0  0  0  0  0  0
    3.2040   -1.6100    1.8370 H   0  0  0  0  0  0  0  0  0  0  0  0
    6.3460   -3.0740    0.1270 H   0  0  0  0  0  0  0  0  0  0  0  0
    5.1650   -4.3880    0.0430 H   0  0  0  0  0  0  0  0  0  0  0  0
    6.4130   -4.4000    1.2860 H   0  0  0  0  0  0  0  0  0  0  0  0
    4.8790   -4.2210    3.3820 H   0  0  0  0  0  0  0  0  0  0  0  0
    4.3430   -2.5750    3.7210 H   0  0  0  0  0  0  0  0  0  0  0  0
    6.0470   -2.8920    3.3890 H   0  0  0  0  0  0  0  0  0  0  0  0
  1  2  1  0
  1 33  1  0
  1 32  1  0
  1 34  1  0
  2  3  1  0
  3  4  2  0
  3 26  1  0
  4  5  1  0
  4 10  1  0
  5 35  1  0
  5 36  1  0
  5  6  1  0
  6 37  1  0
  6  7  2  0
  7  9  1  0
  7  8  1  0
  8 38  1  0
  8 39  1  0
  8 40  1  0
  9 42  1  0
  9 43  1  0
  9 41  1  0
 10 44  1  0
 10 11  2  0
 11 12  1  0
 11 25  1  0
 12 13  1  0
 12 45  1  1
 12 24  1  0
 13 46  1  0
 13 47  1  0
 13 14  1  0
 14 15  2  0
 14 16  1  0
 16 17  2  0
 16 23  1  0
 17 18  1  0
 17 19  1  0
 18 48  1  0
 19 49  1  0
 19 20  2  0
 20 22  1  0
 20 21  1  0
 21 50  1  0
 22 23  2  0
 22 51  1  0
 23 24  1  0
 25 26  2  0
 25 52  1  0
 26 27  1  0
 27 53  1  0
 27 54  1  0
 27 28  1  0
 28 29  2  0
 28 55  1  0
 29 30  1  0
 29 31  1  0
 30 57  1  0
 30 56  1  0
 30 58  1  0
 31 59  1  0
 31 61  1  0
 31 60  1  0
M  END
>  <id>  (829) 
941

>  <scaffolds>  (829) 
['c1ccccc1', 'O=C1CC(c2ccccc2)Oc2ccccc21', 'c1ccc(C2CCc3ccccc3O2)cc1', 'O=C(CCc1ccccc1)c1ccccc1']

>  <name>  (829) 
Abyssinone-V 4'-methyl ether

>  <formula>  (829) 
C26H30O5

>  <SMILES>  (829) 
COc3c(C/C=C(C)\C)cc([C@@H]2CC(=O)c1c(O)cc(O)cc1O2)cc3C/C=C(C)/C

>  <ChEMBL_id>  (829) 


>  <ZINC_id>  (829) 


>  <PubChem_id>  (829) 


>  <DrugBank_id>  (829) 


>  <CAS_no>  (829) 
201480-12-8

>  <references>  (829) 
[{'journal': {'name': 'Phytotherapy Research', 'id': 57}, 'title': 'Antibacterial activity of flavonoids from the stem bark of Erythrina caffra thunb.', 'year': 2011, 'start_page': None, 'volume': None, 'issue': None, 'doi': '10.1002/ptr.3159', 'isbn': '', 'despositor': {'code': 'BND', 'first_name': "Bakary N'tji", 'last_name': 'Diallo', 'id': 26}, 'refauthors_set': [{'author': {'first_name': 'Chukwujekwu', 'initials': 'CJ', 'last_name': 'J.', 'id': 1012}, 'first_author': True, 'id': 1592}], 'id': 492}]

>  <classifications>  (829) 
[{'classification': 'Flavonoids (Classyfire)', 'id': 941}]

>  <molecular_mass>  (829) 
422.51

$$$$
SANC00942_minRM1.pdb
     RDKit          3D

 50 53  0  0  1  0  0  0  0  0999 V2000
   -2.2030   -0.2330   -1.9890 C   0  0  0  0  0  0  0  0  0  0  0  0
   -0.9670   -0.9510   -1.4430 C   0  0  2  0  0  0  0  0  0  0  0  0
   -1.4190   -1.8990   -0.3080 C   0  0  2  0  0  0  0  0  0  0  0  0
   -2.0030   -1.1870    0.7620 O   0  0  0  0  0  0  0  0  0  0  0  0
   -2.8850   -0.2070    0.4240 C   0  0  0  0  0  0  0  0  0  0  0  0
   -3.6400    0.2650    1.4980 C   0  0  0  0  0  0  0  0  0  0  0  0
   -4.5560    1.2870    1.2430 C   0  0  0  0  0  0  0  0  0  0  0  0
   -4.7270    1.8390   -0.0280 C   0  0  0  0  0  0  0  0  0  0  0  0
   -3.9420    1.3340   -1.0650 C   0  0  0  0  0  0  0  0  0  0  0  0
   -3.0160    0.3030   -0.8690 C   0  0  0  0  0  0  0  0  0  0  0  0
   -4.1620    1.9090   -2.2700 O   0  0  0  0  0  0  0  0  0  0  0  0
   -5.2660    1.7020    2.3170 O   0  0  0  0  0  0  0  0  0  0  0  0
   -0.2430   -2.6410    0.2600 C   0  0  0  0  0  0  0  0  0  0  0  0
    0.0140   -3.9310   -0.2090 C   0  0  0  0  0  0  0  0  0  0  0  0
    1.1120   -4.6240    0.2800 C   0  0  0  0  0  0  0  0  0  0  0  0
    1.9540   -4.0310    1.2430 C   0  0  0  0  0  0  0  0  0  0  0  0
    1.6860   -2.7480    1.7030 C   0  0  0  0  0  0  0  0  0  0  0  0
    0.5850   -2.0540    1.2040 C   0  0  0  0  0  0  0  0  0  0  0  0
    2.9980   -4.7880    1.6540 O   0  0  0  0  0  0  0  0  0  0  0  0
    1.4670   -5.8720   -0.1140 O   0  0  0  0  0  0  0  0  0  0  0  0
   -0.1060   -0.0220   -0.8210 O   0  0  0  0  0  0  0  0  0  0  0  0
    0.6990    0.7320   -1.6130 C   0  0  0  0  0  0  0  0  0  0  0  0
    0.6520    0.6310   -2.8270 O   0  0  0  0  0  0  0  0  0  0  0  0
    1.5950    1.6070   -0.8370 C   0  0  0  0  0  0  0  0  0  0  0  0
    2.8780    1.8060   -1.3440 C   0  0  0  0  0  0  0  0  0  0  0  0
    3.7530    2.6220   -0.6340 C   0  0  0  0  0  0  0  0  0  0  0  0
    3.3490    3.2530    0.5520 C   0  0  0  0  0  0  0  0  0  0  0  0
    2.0490    3.0410    1.0290 C   0  0  0  0  0  0  0  0  0  0  0  0
    1.1630    2.2060    0.3360 C   0  0  0  0  0  0  0  0  0  0  0  0
    1.5580    3.5920    2.1610 O   0  0  0  0  0  0  0  0  0  0  0  0
    4.1710    4.0100    1.3220 O   0  0  0  0  0  0  0  0  0  0  0  0
    5.0250    2.8840   -1.0250 O   0  0  0  0  0  0  0  0  0  0  0  0
   -2.8080   -0.9380   -2.6000 H   0  0  0  0  0  0  0  0  0  0  0  0
   -1.9120    0.5720   -2.7010 H   0  0  0  0  0  0  0  0  0  0  0  0
   -0.4440   -1.5370   -2.2450 H   0  0  0  0  0  0  0  0  0  0  0  0
   -2.1900   -2.6080   -0.7210 H   0  0  0  0  0  0  0  0  0  0  0  0
   -3.5190   -0.1460    2.5040 H   0  0  0  0  0  0  0  0  0  0  0  0
   -5.4450    2.6390   -0.2230 H   0  0  0  0  0  0  0  0  0  0  0  0
   -3.4720    1.6310   -2.8880 H   0  0  0  0  0  0  0  0  0  0  0  0
   -5.8680    2.4050    2.0440 H   0  0  0  0  0  0  0  0  0  0  0  0
   -0.6430   -4.3930   -0.9520 H   0  0  0  0  0  0  0  0  0  0  0  0
    2.3280   -2.2730    2.4510 H   0  0  0  0  0  0  0  0  0  0  0  0
    0.3850   -1.0410    1.5690 H   0  0  0  0  0  0  0  0  0  0  0  0
    3.4850   -4.2930    2.3230 H   0  0  0  0  0  0  0  0  0  0  0  0
    0.7840   -6.2060   -0.7080 H   0  0  0  0  0  0  0  0  0  0  0  0
    3.1820    1.3250   -2.2790 H   0  0  0  0  0  0  0  0  0  0  0  0
    0.1510    2.0410    0.7250 H   0  0  0  0  0  0  0  0  0  0  0  0
    2.2250    4.1570    2.5680 H   0  0  0  0  0  0  0  0  0  0  0  0
    4.7800    4.4830    0.7410 H   0  0  0  0  0  0  0  0  0  0  0  0
    5.1860    2.4470   -1.8700 H   0  0  0  0  0  0  0  0  0  0  0  0
  1 34  1  0
  1 33  1  0
  1  2  1  0
  1 10  1  0
  2 35  1  6
  2 21  1  0
  2  3  1  0
  3 36  1  6
  3 13  1  0
  3  4  1  0
  4  5  1  0
  5 10  2  0
  5  6  1  0
  6  7  2  0
  6 37  1  0
  7  8  1  0
  7 12  1  0
  8  9  2  0
  8 38  1  0
  9 11  1  0
  9 10  1  0
 11 39  1  0
 12 40  1  0
 13 14  2  0
 13 18  1  0
 14 41  1  0
 14 15  1  0
 15 20  1  0
 15 16  2  0
 16 19  1  0
 16 17  1  0
 17 18  2  0
 17 42  1  0
 18 43  1  0
 19 44  1  0
 20 45  1  0
 21 22  1  0
 22 23  2  0
 22 24  1  0
 24 25  2  0
 24 29  1  0
 25 46  1  0
 25 26  1  0
 26 32  1  0
 26 27  2  0
 27 28  1  0
 27 31  1  0
 28 29  2  0
 28 30  1  0
 29 47  1  0
 30 48  1  0
 31 49  1  0
 32 50  1  0
M  END
>  <id>  (830) 
942

>  <scaffolds>  (830) 
['c1ccccc1', 'c1ccc(C2CCc3ccccc3O2)cc1', 'O=C(OC1Cc2ccccc2OC1c1ccccc1)c1ccccc1', 'O=C(OCCc1ccccc1)c1ccccc1']

>  <name>  (830) 
Epicatechin gallate

>  <formula>  (830) 
C22H18O10

>  <SMILES>  (830) 
C1[C@H]([C@H](OC2=CC(=CC(=C21)O)O)C3=CC(=C(C=C3)O)O)OC(=O)C4=CC(=C(C(=C4)O)O)O

>  <ChEMBL_id>  (830) 
SCHEMBL39047

>  <ZINC_id>  (830) 
ZINC3978503

>  <PubChem_id>  (830) 
107905

>  <DrugBank_id>  (830) 


>  <CAS_no>  (830) 
1257-08-5

>  <references>  (830) 
[{'journal': {'name': 'Phytotherapy Research', 'id': 57}, 'title': 'Extract from Ceratonia siliqua exhibits depigmentation properties', 'year': 2015, 'start_page': None, 'volume': None, 'issue': None, 'doi': '10.1002/ptr.5420', 'isbn': '', 'despositor': {'code': 'BND', 'first_name': "Bakary N'tji", 'last_name': 'Diallo', 'id': 26}, 'refauthors_set': [{'author': {'first_name': 'Lall', 'initials': 'LN', 'last_name': 'Namrita', 'id': 1013}, 'first_author': True, 'id': 1593}], 'id': 493}]

>  <classifications>  (830) 
[{'classification': 'Flavonoids', 'id': 776}, {'classification': 'Flavonoids (Classyfire)', 'id': 941}]

>  <molecular_mass>  (830) 
442.4

$$$$
SANC00943_minRM1.pdb
     RDKit          3D

 51 54  0  0  1  0  0  0  0  0999 V2000
    1.9650   -1.8190    0.3170 C   0  0  0  0  0  0  0  0  0  0  0  0
    1.1050   -0.5740    0.5380 C   0  0  1  0  0  0  0  0  0  0  0  0
    1.4580    0.4510   -0.5630 C   0  0  2  0  0  0  0  0  0  0  0  0
    2.7850    0.8980   -0.3470 O   0  0  0  0  0  0  0  0  0  0  0  0
    3.7140   -0.0780   -0.1470 C   0  0  0  0  0  0  0  0  0  0  0  0
    5.0310    0.3600   -0.2780 C   0  0  0  0  0  0  0  0  0  0  0  0
    6.0450   -0.5710   -0.0410 C   0  0  0  0  0  0  0  0  0  0  0  0
    5.7780   -1.8940    0.3120 C   0  0  0  0  0  0  0  0  0  0  0  0
    4.4410   -2.2800    0.4280 C   0  0  0  0  0  0  0  0  0  0  0  0
    3.3850   -1.3900    0.2060 C   0  0  0  0  0  0  0  0  0  0  0  0
    4.2610   -3.5760    0.7700 O   0  0  0  0  0  0  0  0  0  0  0  0
    7.3030   -0.0950   -0.1800 O   0  0  0  0  0  0  0  0  0  0  0  0
    0.5900    1.6750   -0.4460 C   0  0  0  0  0  0  0  0  0  0  0  0
    0.7550    2.5380    0.6300 C   0  0  0  0  0  0  0  0  0  0  0  0
   -0.0700    3.6610    0.7280 C   0  0  0  0  0  0  0  0  0  0  0  0
   -1.0360    3.9220   -0.2500 C   0  0  0  0  0  0  0  0  0  0  0  0
   -1.2080    3.0140   -1.3020 C   0  0  0  0  0  0  0  0  0  0  0  0
   -0.3870    1.8910   -1.4130 C   0  0  0  0  0  0  0  0  0  0  0  0
   -2.1210    3.1860   -2.2840 O   0  0  0  0  0  0  0  0  0  0  0  0
   -1.8720    4.9910   -0.1200 O   0  0  0  0  0  0  0  0  0  0  0  0
    0.1500    4.4670    1.7900 O   0  0  0  0  0  0  0  0  0  0  0  0
   -0.2630   -0.8620    0.6400 O   0  0  0  0  0  0  0  0  0  0  0  0
   -0.9790   -1.3170   -0.4210 C   0  0  0  0  0  0  0  0  0  0  0  0
   -0.4370   -1.5520   -1.4860 O   0  0  0  0  0  0  0  0  0  0  0  0
   -2.4130   -1.4860   -0.1170 C   0  0  0  0  0  0  0  0  0  0  0  0
   -3.1740   -2.1950   -1.0400 C   0  0  0  0  0  0  0  0  0  0  0  0
   -4.5420   -2.3710   -0.8030 C   0  0  0  0  0  0  0  0  0  0  0  0
   -5.1390   -1.8390    0.3470 C   0  0  0  0  0  0  0  0  0  0  0  0
   -4.3450   -1.1230    1.2540 C   0  0  0  0  0  0  0  0  0  0  0  0
   -2.9820   -0.9440    1.0330 C   0  0  0  0  0  0  0  0  0  0  0  0
   -5.0010   -0.6410    2.3410 O   0  0  0  0  0  0  0  0  0  0  0  0
   -6.4800   -2.0020    0.4700 O   0  0  0  0  0  0  0  0  0  0  0  0
   -5.2070   -3.0660   -1.7530 O   0  0  0  0  0  0  0  0  0  0  0  0
    1.8190   -2.5380    1.1530 H   0  0  0  0  0  0  0  0  0  0  0  0
    1.6720   -2.3810   -0.5950 H   0  0  0  0  0  0  0  0  0  0  0  0
    1.2910   -0.1360    1.5570 H   0  0  0  0  0  0  0  0  0  0  0  0
    1.4060   -0.0000   -1.5900 H   0  0  0  0  0  0  0  0  0  0  0  0
    5.2640    1.3920   -0.5530 H   0  0  0  0  0  0  0  0  0  0  0  0
    6.5750   -2.6200    0.4930 H   0  0  0  0  0  0  0  0  0  0  0  0
    3.3210   -3.7510    0.8980 H   0  0  0  0  0  0  0  0  0  0  0  0
    7.9310   -0.8070   -0.0090 H   0  0  0  0  0  0  0  0  0  0  0  0
    1.5270    2.3640    1.3870 H   0  0  0  0  0  0  0  0  0  0  0  0
   -0.5220    1.2030   -2.2550 H   0  0  0  0  0  0  0  0  0  0  0  0
   -2.8080    3.7900   -1.9760 H   0  0  0  0  0  0  0  0  0  0  0  0
   -1.4620    5.6980   -0.6370 H   0  0  0  0  0  0  0  0  0  0  0  0
   -0.5730    5.1020    1.8670 H   0  0  0  0  0  0  0  0  0  0  0  0
   -2.7240   -2.6120   -1.9490 H   0  0  0  0  0  0  0  0  0  0  0  0
   -2.3780   -0.3790    1.7500 H   0  0  0  0  0  0  0  0  0  0  0  0
   -4.3610   -0.2220    2.9280 H   0  0  0  0  0  0  0  0  0  0  0  0
   -6.7100   -1.9830    1.4070 H   0  0  0  0  0  0  0  0  0  0  0  0
   -6.1380   -3.1430   -1.5130 H   0  0  0  0  0  0  0  0  0  0  0  0
  1 35  1  0
  1 10  1  0
  1  2  1  0
  1 34  1  0
  2  3  1  0
  2 22  1  0
  2 36  1  1
  3 37  1  6
  3 13  1  0
  3  4  1  0
  4  5  1  0
  5  6  2  0
  5 10  1  0
  6 38  1  0
  6  7  1  0
  7 12  1  0
  7  8  2  0
  8  9  1  0
  8 39  1  0
  9 10  2  0
  9 11  1  0
 11 40  1  0
 12 41  1  0
 13 18  2  0
 13 14  1  0
 14 15  2  0
 14 42  1  0
 15 16  1  0
 15 21  1  0
 16 17  2  0
 16 20  1  0
 17 19  1  0
 17 18  1  0
 18 43  1  0
 19 44  1  0
 20 45  1  0
 21 46  1  0
 22 23  1  0
 23 24  2  0
 23 25  1  0
 25 26  2  0
 25 30  1  0
 26 47  1  0
 26 27  1  0
 27 33  1  0
 27 28  2  0
 28 32  1  0
 28 29  1  0
 29 30  2  0
 29 31  1  0
 30 48  1  0
 31 49  1  0
 32 50  1  0
 33 51  1  0
M  END
>  <id>  (831) 
943

>  <scaffolds>  (831) 
['c1ccccc1', 'c1ccc(C2CCc3ccccc3O2)cc1', 'O=C(OC1Cc2ccccc2OC1c1ccccc1)c1ccccc1', 'O=C(OCCc1ccccc1)c1ccccc1']

>  <name>  (831) 
Gallocatechin gallate

>  <formula>  (831) 
C22H18O11

>  <SMILES>  (831) 
C1[C@@H]([C@H](OC2=CC(=CC(=C21)O)O)C3=CC(=C(C(=C3)O)O)O)OC(=O)C4=CC(=C(C(=C4)O)O)O

>  <ChEMBL_id>  (831) 
SCHEMBL10198783

>  <ZINC_id>  (831) 
ZINC3870414

>  <PubChem_id>  (831) 
5276890

>  <DrugBank_id>  (831) 


>  <CAS_no>  (831) 
5127-64-0

>  <references>  (831) 
[{'journal': {'name': 'Phytotherapy Research', 'id': 57}, 'title': 'Extract from Ceratonia siliqua exhibits depigmentation properties', 'year': 2015, 'start_page': None, 'volume': None, 'issue': None, 'doi': '10.1002/ptr.5420', 'isbn': '', 'despositor': {'code': 'BND', 'first_name': "Bakary N'tji", 'last_name': 'Diallo', 'id': 26}, 'refauthors_set': [{'author': {'first_name': 'Lall', 'initials': 'LN', 'last_name': 'Namrita', 'id': 1013}, 'first_author': True, 'id': 1593}], 'id': 493}]

>  <classifications>  (831) 
[{'classification': 'Flavonoids', 'id': 776}, {'classification': 'Flavonoids (Classyfire)', 'id': 941}]

>  <molecular_mass>  (831) 
458.4

$$$$
SANC00944_minRM1.pdb
     RDKit          3D

 84 88  0  0  1  0  0  0  0  0999 V2000
   -6.6770    2.0590   -0.3410 C   0  0  0  0  0  0  0  0  0  0  0  0
   -5.6740    2.6990    0.3790 C   0  0  0  0  0  0  0  0  0  0  0  0
   -5.9470    3.3750    1.5640 C   0  0  0  0  0  0  0  0  0  0  0  0
   -7.2590    3.4110    2.0320 C   0  0  0  0  0  0  0  0  0  0  0  0
   -8.2970    2.7880    1.3260 C   0  0  0  0  0  0  0  0  0  0  0  0
   -7.9870    2.1110    0.1340 C   0  0  0  0  0  0  0  0  0  0  0  0
   -9.0430    1.5550   -0.5060 O   0  0  0  0  0  0  0  0  0  0  0  0
   -9.5870    2.7390    1.7250 O   0  0  0  0  0  0  0  0  0  0  0  0
   -7.6270    4.0330    3.1830 O   0  0  0  0  0  0  0  0  0  0  0  0
   -4.2830    2.7320   -0.1050 C   0  0  0  0  0  0  0  0  0  0  0  0
   -3.4440    3.5650    0.1900 O   0  0  0  0  0  0  0  0  0  0  0  0
   -3.9730    1.7180   -0.9560 O   0  0  0  0  0  0  0  0  0  0  0  0
   -2.7310    1.7660   -1.6190 C   0  0  0  0  0  0  0  0  0  0  0  0
   -1.5860    1.3260   -0.6820 C   0  0  2  0  0  0  0  0  0  0  0  0
   -0.2260    1.8620   -1.2050 C   0  0  2  0  0  0  0  0  0  0  0  0
    0.8720    1.3210   -0.2610 C   0  0  1  0  0  0  0  0  0  0  0  0
    0.8370   -0.2160   -0.2440 C   0  0  2  0  0  0  0  0  0  0  0  0
   -0.6190   -0.6850    0.0750 C   0  0  1  0  0  0  0  0  0  0  0  0
   -1.5530   -0.0770   -0.7810 O   0  0  0  0  0  0  0  0  0  0  0  0
   -0.6380   -2.0210   -0.3600 O   0  0  0  0  0  0  0  0  0  0  0  0
   -1.6910   -2.8190   -0.0170 C   0  0  0  0  0  0  0  0  0  0  0  0
   -2.4960   -2.4390    0.8100 O   0  0  0  0  0  0  0  0  0  0  0  0
   -1.6740   -4.1160   -0.7190 C   0  0  0  0  0  0  0  0  0  0  0  0
   -2.8190   -4.8990   -0.6230 C   0  0  0  0  0  0  0  0  0  0  0  0
   -2.8550   -6.1350   -1.2780 C   0  0  0  0  0  0  0  0  0  0  0  0
   -1.7520   -6.5810   -2.0190 C   0  0  0  0  0  0  0  0  0  0  0  0
   -0.6090   -5.7720   -2.0880 C   0  0  0  0  0  0  0  0  0  0  0  0
   -0.5620   -4.5380   -1.4450 C   0  0  0  0  0  0  0  0  0  0  0  0
    0.4160   -6.2800   -2.8170 O   0  0  0  0  0  0  0  0  0  0  0  0
   -1.8460   -7.8150   -2.5730 O   0  0  0  0  0  0  0  0  0  0  0  0
   -4.0010   -6.8370   -1.1260 O   0  0  0  0  0  0  0  0  0  0  0  0
    1.5630   -0.6620    0.8810 O   0  0  0  0  0  0  0  0  0  0  0  0
    2.9150   -0.7840    0.7870 C   0  0  0  0  0  0  0  0  0  0  0  0
    3.4820   -0.5630   -0.2670 O   0  0  0  0  0  0  0  0  0  0  0  0
    3.5400   -1.1800    2.0620 C   0  0  0  0  0  0  0  0  0  0  0  0
    2.8180   -1.8560    3.0420 C   0  0  0  0  0  0  0  0  0  0  0  0
    3.4630   -2.1990    4.2270 C   0  0  0  0  0  0  0  0  0  0  0  0
    4.8070   -1.8650    4.4440 C   0  0  0  0  0  0  0  0  0  0  0  0
    5.5110   -1.1930    3.4350 C   0  0  0  0  0  0  0  0  0  0  0  0
    4.8790   -0.8510    2.2350 C   0  0  0  0  0  0  0  0  0  0  0  0
    6.8090   -0.8270    3.5290 O   0  0  0  0  0  0  0  0  0  0  0  0
    5.5100   -2.2130    5.5500 O   0  0  0  0  0  0  0  0  0  0  0  0
    2.8590   -2.8550    5.2510 O   0  0  0  0  0  0  0  0  0  0  0  0
    2.1420    1.8400   -0.5470 O   0  0  0  0  0  0  0  0  0  0  0  0
    2.7270    1.6770   -1.7670 C   0  0  0  0  0  0  0  0  0  0  0  0
    2.1860    1.0080   -2.6280 O   0  0  0  0  0  0  0  0  0  0  0  0
    3.9960    2.4170   -1.9040 C   0  0  0  0  0  0  0  0  0  0  0  0
    4.6560    2.3080   -3.1230 C   0  0  0  0  0  0  0  0  0  0  0  0
    5.8420    3.0240   -3.3220 C   0  0  0  0  0  0  0  0  0  0  0  0
    6.3650    3.8320   -2.3050 C   0  0  0  0  0  0  0  0  0  0  0  0
    5.6860    3.9050   -1.0810 C   0  0  0  0  0  0  0  0  0  0  0  0
    4.5000    3.2070   -0.8720 C   0  0  0  0  0  0  0  0  0  0  0  0
    6.2560    4.7130   -0.1500 O   0  0  0  0  0  0  0  0  0  0  0  0
    7.5430    4.4530   -2.5640 O   0  0  0  0  0  0  0  0  0  0  0  0
    6.4220    2.8550   -4.5320 O   0  0  0  0  0  0  0  0  0  0  0  0
   -0.2910    3.2490   -1.0920 O   0  0  0  0  0  0  0  0  0  0  0  0
   -6.4440    1.5250   -1.2680 H   0  0  0  0  0  0  0  0  0  0  0  0
   -5.1420    3.8730    2.1150 H   0  0  0  0  0  0  0  0  0  0  0  0
   -8.7070    1.0050   -1.2240 H   0  0  0  0  0  0  0  0  0  0  0  0
   -9.7480    3.4570    2.3500 H   0  0  0  0  0  0  0  0  0  0  0  0
   -6.8820    4.5580    3.4980 H   0  0  0  0  0  0  0  0  0  0  0  0
   -2.8810    1.0630   -2.4680 H   0  0  0  0  0  0  0  0  0  0  0  0
   -2.5300    2.7710   -2.0560 H   0  0  0  0  0  0  0  0  0  0  0  0
   -1.7690    1.6670    0.3720 H   0  0  0  0  0  0  0  0  0  0  0  0
   -0.0830    1.5230   -2.2660 H   0  0  0  0  0  0  0  0  0  0  0  0
    0.7280    1.7350    0.7770 H   0  0  0  0  0  0  0  0  0  0  0  0
    1.1970   -0.6650   -1.2090 H   0  0  0  0  0  0  0  0  0  0  0  0
   -0.8900   -0.5510    1.1610 H   0  0  0  0  0  0  0  0  0  0  0  0
   -3.6900   -4.5650   -0.0460 H   0  0  0  0  0  0  0  0  0  0  0  0
    0.3380   -3.9180   -1.5140 H   0  0  0  0  0  0  0  0  0  0  0  0
    1.0930   -5.6000   -2.9150 H   0  0  0  0  0  0  0  0  0  0  0  0
   -1.2780   -7.8480   -3.3530 H   0  0  0  0  0  0  0  0  0  0  0  0
   -3.9590   -7.6510   -1.6430 H   0  0  0  0  0  0  0  0  0  0  0  0
    1.7680   -2.1210    2.8840 H   0  0  0  0  0  0  0  0  0  0  0  0
    5.4440   -0.3340    1.4500 H   0  0  0  0  0  0  0  0  0  0  0  0
    7.1790   -1.1340    4.3660 H   0  0  0  0  0  0  0  0  0  0  0  0
    4.9030   -2.2670    6.2990 H   0  0  0  0  0  0  0  0  0  0  0  0
    1.9240   -2.9630    5.0410 H   0  0  0  0  0  0  0  0  0  0  0  0
    4.2670    1.6730   -3.9280 H   0  0  0  0  0  0  0  0  0  0  0  0
    3.9850    3.2760    0.0900 H   0  0  0  0  0  0  0  0  0  0  0  0
    5.7210    4.6890    0.6510 H   0  0  0  0  0  0  0  0  0  0  0  0
    7.6040    5.2460   -2.0190 H   0  0  0  0  0  0  0  0  0  0  0  0
    7.1660    3.4630   -4.6260 H   0  0  0  0  0  0  0  0  0  0  0  0
    0.5050    3.6090   -1.4970 H   0  0  0  0  0  0  0  0  0  0  0  0
  1 57  1  0
  1  6  2  0
  1  2  1  0
  2 10  1  0
  2  3  2  0
  3  4  1  0
  3 58  1  0
  4  5  2  0
  4  9  1  0
  5  6  1  0
  5  8  1  0
  6  7  1  0
  7 59  1  0
  8 60  1  0
  9 61  1  0
 10 12  1  0
 10 11  2  0
 12 13  1  0
 13 62  1  0
 13 63  1  0
 13 14  1  0
 14 15  1  0
 14 19  1  0
 14 64  1  1
 15 65  1  6
 15 56  1  0
 15 16  1  0
 16 44  1  0
 16 17  1  0
 16 66  1  1
 17 67  1  6
 17 18  1  0
 17 32  1  0
 18 19  1  0
 18 20  1  0
 18 68  1  1
 20 21  1  0
 21 23  1  0
 21 22  2  0
 23 28  2  0
 23 24  1  0
 24 25  2  0
 24 69  1  0
 25 26  1  0
 25 31  1  0
 26 30  1  0
 26 27  2  0
 27 29  1  0
 27 28  1  0
 28 70  1  0
 29 71  1  0
 30 72  1  0
 31 73  1  0
 32 33  1  0
 33 34  2  0
 33 35  1  0
 35 40  2  0
 35 36  1  0
 36 74  1  0
 36 37  2  0
 37 38  1  0
 37 43  1  0
 38 39  2  0
 38 42  1  0
 39 40  1  0
 39 41  1  0
 40 75  1  0
 41 76  1  0
 42 77  1  0
 43 78  1  0
 44 45  1  0
 45 46  2  0
 45 47  1  0
 47 48  2  0
 47 52  1  0
 48 79  1  0
 48 49  1  0
 49 55  1  0
 49 50  2  0
 50 54  1  0
 50 51  1  0
 51 52  2  0
 51 53  1  0
 52 80  1  0
 53 81  1  0
 54 82  1  0
 55 83  1  0
 56 84  1  0
M  END
>  <id>  (832) 
944

>  <scaffolds>  (832) 
['c1ccccc1', 'C1CCOCC1', 'O=C(OCC1CC(OC(=O)c2ccccc2)C(OC(=O)c2ccccc2)C(OC(=O)c2ccccc2)O1)c1ccccc1']

>  <name>  (832) 
1,2,3,6-Tetragalloylglucose

>  <formula>  (832) 
C34H28O22

>  <SMILES>  (832) 
C1=C(C=C(C(=C1O)O)O)C(=O)OC[C@@H]2[C@H]([C@@H]([C@H]([C@@H](O2)OC(=O)C3=CC(=C(C(=C3)O)O)O)OC(=O)C4=CC(=C(C(=C4)O)O)O)OC(=O)C5=CC(=C(C(=C5)O)O)O)O

>  <ChEMBL_id>  (832) 
SCHEMBL2370043

>  <ZINC_id>  (832) 
ZINC85540908

>  <PubChem_id>  (832) 
73178

>  <DrugBank_id>  (832) 


>  <CAS_no>  (832) 
79886-50-3

>  <references>  (832) 
[{'journal': {'name': 'Phytotherapy Research', 'id': 57}, 'title': 'Extract from Ceratonia siliqua exhibits depigmentation properties', 'year': 2015, 'start_page': None, 'volume': None, 'issue': None, 'doi': '10.1002/ptr.5420', 'isbn': '', 'despositor': {'code': 'BND', 'first_name': "Bakary N'tji", 'last_name': 'Diallo', 'id': 26}, 'refauthors_set': [{'author': {'first_name': 'Lall', 'initials': 'LN', 'last_name': 'Namrita', 'id': 1013}, 'first_author': True, 'id': 1593}], 'id': 493}]

>  <classifications>  (832) 
[{'classification': 'Tannins', 'id': 883}, {'classification': 'Tannins (Classyfire)', 'id': 1004}]

>  <molecular_mass>  (832) 
788.6

$$$$
SANC00945_minRM1.pdb
     RDKit          3D

 30 32  0  0  0  0  0  0  0  0999 V2000
   -2.6880   -0.6800    0.8530 C   0  0  0  0  0  0  0  0  0  0  0  0
   -4.0650   -0.8600    0.8480 C   0  0  0  0  0  0  0  0  0  0  0  0
   -4.8480   -0.0570    0.0180 C   0  0  0  0  0  0  0  0  0  0  0  0
   -4.2780    0.9210   -0.8040 C   0  0  0  0  0  0  0  0  0  0  0  0
   -2.9030    1.0870   -0.7850 C   0  0  0  0  0  0  0  0  0  0  0  0
   -2.1080    0.2940    0.0430 C   0  0  0  0  0  0  0  0  0  0  0  0
   -0.6660    0.4880    0.0590 C   0  0  0  0  0  0  0  0  0  0  0  0
   -0.1550    1.7220    0.1950 C   0  0  0  0  0  0  0  0  0  0  0  0
    1.1750    2.0090    0.2180 O   0  0  0  0  0  0  0  0  0  0  0  0
    2.0560    0.9750    0.1050 C   0  0  0  0  0  0  0  0  0  0  0  0
    3.3960    1.3560    0.1540 C   0  0  0  0  0  0  0  0  0  0  0  0
    4.3480    0.3420    0.0410 C   0  0  0  0  0  0  0  0  0  0  0  0
    3.9990   -1.0030   -0.1190 C   0  0  0  0  0  0  0  0  0  0  0  0
    2.6430   -1.3290   -0.1600 C   0  0  0  0  0  0  0  0  0  0  0  0
    1.6400   -0.3500   -0.0460 C   0  0  0  0  0  0  0  0  0  0  0  0
    0.2160   -0.6810   -0.0810 C   0  0  0  0  0  0  0  0  0  0  0  0
   -0.2030   -1.8160   -0.2150 O   0  0  0  0  0  0  0  0  0  0  0  0
    2.2110   -2.5940   -0.3060 O   0  0  0  0  0  0  0  0  0  0  0  0
    5.6310    0.7560    0.0970 O   0  0  0  0  0  0  0  0  0  0  0  0
   -6.1990   -0.1550   -0.0500 O   0  0  0  0  0  0  0  0  0  0  0  0
   -2.0650   -1.3080    1.4980 H   0  0  0  0  0  0  0  0  0  0  0  0
   -4.5140   -1.6260    1.4860 H   0  0  0  0  0  0  0  0  0  0  0  0
   -4.9110    1.5350   -1.4510 H   0  0  0  0  0  0  0  0  0  0  0  0
   -2.4430    1.8380   -1.4340 H   0  0  0  0  0  0  0  0  0  0  0  0
   -0.7090    2.6600    0.3080 H   0  0  0  0  0  0  0  0  0  0  0  0
    3.6900    2.4010    0.2770 H   0  0  0  0  0  0  0  0  0  0  0  0
    4.7660   -1.7750   -0.2090 H   0  0  0  0  0  0  0  0  0  0  0  0
    2.9690   -3.1870   -0.3830 H   0  0  0  0  0  0  0  0  0  0  0  0
    6.2190   -0.0030    0.0100 H   0  0  0  0  0  0  0  0  0  0  0  0
   -6.4860   -0.8810    0.5140 H   0  0  0  0  0  0  0  0  0  0  0  0
  1  6  2  0
  1  2  1  0
  1 21  1  0
  2  3  2  0
  2 22  1  0
  3  4  1  0
  3 20  1  0
  4 23  1  0
  4  5  2  0
  5 24  1  0
  5  6  1  0
  6  7  1  0
  7 16  1  0
  7  8  2  0
  8  9  1  0
  8 25  1  0
  9 10  1  0
 10 15  2  0
 10 11  1  0
 11 12  2  0
 11 26  1  0
 12 13  1  0
 12 19  1  0
 13 27  1  0
 13 14  2  0
 14 18  1  0
 14 15  1  0
 15 16  1  0
 16 17  2  0
 18 28  1  0
 19 29  1  0
 20 30  1  0
M  END
>  <id>  (833) 
945

>  <scaffolds>  (833) 
['c1ccccc1', 'O=c1c(-c2ccccc2)coc2ccccc12', 'O=c1ccoc2ccccc12']

>  <name>  (833) 
Genistein

>  <formula>  (833) 
C15H10O5

>  <SMILES>  (833) 
C1=CC(=CC=C1C2=COC3=CC(=CC(=C3C2=O)O)O)O

>  <ChEMBL_id>  (833) 
SCHEMBL19166

>  <ZINC_id>  (833) 
ZINC18825330

>  <PubChem_id>  (833) 
5280961

>  <DrugBank_id>  (833) 
DB01645

>  <CAS_no>  (833) 
446-72-0

>  <references>  (833) 
[{'journal': {'name': 'Phytotherapy Research', 'id': 57}, 'title': 'Metabolite profiling and isolation of biologically active compounds from Scadoxus puniceus, a highly traded South African medicinal plant', 'year': 2018, 'start_page': None, 'volume': None, 'issue': None, 'doi': '10.1002/ptr.6000', 'isbn': '', 'despositor': {'code': 'BND', 'first_name': "Bakary N'tji", 'last_name': 'Diallo', 'id': 26}, 'refauthors_set': [{'author': {'first_name': 'Naidoo', 'initials': 'ND', 'last_name': 'Devashan', 'id': 1014}, 'first_author': True, 'id': 1594}], 'id': 494}]

>  <classifications>  (833) 
[{'classification': 'Isoflavones', 'id': 892}, {'classification': 'Isoflavonoids (Classyfire)', 'id': 963}]

>  <molecular_mass>  (833) 
270.24

$$$$
SANC00946_minRM1.pdb
     RDKit          3D

 41 41  0  0  1  0  0  0  0  0999 V2000
    1.1070   -1.7630   -2.6470 C   0  0  0  0  0  0  0  0  0  0  0  0
    0.5310   -0.3930   -2.3120 C   0  0  0  0  0  0  0  0  0  0  0  0
    1.4170    0.3070   -1.3330 C   0  0  0  0  0  0  0  0  0  0  0  0
    2.6800    0.6930   -1.7780 C   0  0  0  0  0  0  0  0  0  0  0  0
    3.5760    1.3140   -0.9210 C   0  0  0  0  0  0  0  0  0  0  0  0
    3.2150    1.5630    0.3940 C   0  0  0  0  0  0  0  0  0  0  0  0
    1.9510    1.2100    0.8610 C   0  0  0  0  0  0  0  0  0  0  0  0
    1.0480    0.5820   -0.0090 C   0  0  0  0  0  0  0  0  0  0  0  0
   -0.2720    0.2510    0.4440 N   0  0  0  0  0  0  0  0  0  0  0  0
   -1.3510    1.1940    0.0550 C   0  0  2  0  0  0  0  0  0  0  0  0
   -1.6170    2.2300    1.1470 C   0  0  0  0  0  0  0  0  0  0  0  0
   -2.6610    0.4240   -0.2550 C   0  0  0  0  0  0  0  0  0  0  0  0
   -3.3210    1.2460   -1.1940 O   0  0  0  0  0  0  0  0  0  0  0  0
   -4.5720    0.7470   -1.5830 C   0  0  0  0  0  0  0  0  0  0  0  0
   -0.4640   -0.7090    1.4330 C   0  0  0  0  0  0  0  0  0  0  0  0
   -1.5310   -0.8160    2.0300 O   0  0  0  0  0  0  0  0  0  0  0  0
    0.6660   -1.6690    1.7280 C   0  0  0  0  0  0  0  0  0  0  0  0
    0.3590   -3.0840    0.5950 Cl  0  0  0  0  0  0  0  0  0  0  0  0
    1.6430    1.5330    2.2800 C   0  0  0  0  0  0  0  0  0  0  0  0
    2.1040   -1.7090   -3.1060 H   0  0  0  0  0  0  0  0  0  0  0  0
    1.2000   -2.3970   -1.7510 H   0  0  0  0  0  0  0  0  0  0  0  0
    0.4650   -2.3070   -3.3550 H   0  0  0  0  0  0  0  0  0  0  0  0
   -0.5120   -0.5100   -1.9540 H   0  0  0  0  0  0  0  0  0  0  0  0
    0.4290    0.2260   -3.2310 H   0  0  0  0  0  0  0  0  0  0  0  0
    2.9720    0.5090   -2.8180 H   0  0  0  0  0  0  0  0  0  0  0  0
    4.5660    1.6070   -1.2820 H   0  0  0  0  0  0  0  0  0  0  0  0
    3.9270    2.0500    1.0690 H   0  0  0  0  0  0  0  0  0  0  0  0
   -0.9960    1.7250   -0.8750 H   0  0  0  0  0  0  0  0  0  0  0  0
   -2.4440    2.8940    0.8570 H   0  0  0  0  0  0  0  0  0  0  0  0
   -0.7440    2.8730    1.3310 H   0  0  0  0  0  0  0  0  0  0  0  0
   -1.8950    1.7800    2.1110 H   0  0  0  0  0  0  0  0  0  0  0  0
   -3.2830    0.2700    0.6560 H   0  0  0  0  0  0  0  0  0  0  0  0
   -2.4700   -0.5930   -0.6680 H   0  0  0  0  0  0  0  0  0  0  0  0
   -4.9480    1.4810   -2.3120 H   0  0  0  0  0  0  0  0  0  0  0  0
   -4.5140   -0.2400   -2.0730 H   0  0  0  0  0  0  0  0  0  0  0  0
   -5.2910    0.6750   -0.7500 H   0  0  0  0  0  0  0  0  0  0  0  0
    1.6890   -1.3100    1.5360 H   0  0  0  0  0  0  0  0  0  0  0  0
    0.6220   -2.0640    2.7580 H   0  0  0  0  0  0  0  0  0  0  0  0
    1.7250    2.6170    2.4620 H   0  0  0  0  0  0  0  0  0  0  0  0
    0.6410    1.2490    2.6280 H   0  0  0  0  0  0  0  0  0  0  0  0
    2.3560    1.0440    2.9630 H   0  0  0  0  0  0  0  0  0  0  0  0
  1 22  1  0
  1 20  1  0
  1  2  1  0
  1 21  1  0
  2 24  1  0
  2 23  1  0
  2  3  1  0
  3  4  2  0
  3  8  1  0
  4 25  1  0
  4  5  1  0
  5 26  1  0
  5  6  2  0
  6  7  1  0
  6 27  1  0
  7  8  2  0
  7 19  1  0
  8  9  1  0
  9 10  1  0
  9 15  1  0
 10 28  1  6
 10 12  1  0
 10 11  1  0
 11 29  1  0
 11 30  1  0
 11 31  1  0
 12 13  1  0
 12 33  1  0
 12 32  1  0
 13 14  1  0
 14 34  1  0
 14 35  1  0
 14 36  1  0
 15 17  1  0
 15 16  2  0
 17 18  1  0
 17 37  1  0
 17 38  1  0
 19 39  1  0
 19 40  1  0
 19 41  1  0
M  END
>  <id>  (834) 
946

>  <scaffolds>  (834) 
['c1ccccc1']

>  <name>  (834) 
Metolachlor

>  <formula>  (834) 
C15H22ClNO2

>  <SMILES>  (834) 
CCC1=CC=CC(=C1N(C(C)COC)C(=O)CCl)C

>  <ChEMBL_id>  (834) 
CHEMBL1884974

>  <ZINC_id>  (834) 


>  <PubChem_id>  (834) 
4169

>  <DrugBank_id>  (834) 


>  <CAS_no>  (834) 
51218-45-2

>  <references>  (834) 
[{'journal': {'name': 'Phytotherapy Research', 'id': 57}, 'title': 'Metabolite profiling and isolation of biologically active compounds from Scadoxus puniceus, a highly traded South African medicinal plant', 'year': 2018, 'start_page': None, 'volume': None, 'issue': None, 'doi': '10.1002/ptr.6000', 'isbn': '', 'despositor': {'code': 'BND', 'first_name': "Bakary N'tji", 'last_name': 'Diallo', 'id': 26}, 'refauthors_set': [{'author': {'first_name': 'Naidoo', 'initials': 'ND', 'last_name': 'Devashan', 'id': 1014}, 'first_author': True, 'id': 1594}], 'id': 494}]

>  <classifications>  (834) 
[{'classification': 'Acetamides', 'id': 920}, {'classification': 'Benzene and substituted derivatives (Classyfire)', 'id': 961}]

>  <molecular_mass>  (834) 
283.79

$$$$
SANC00947_minRM1.pdb
     RDKit          3D

 16 16  0  0  0  0  0  0  0  0999 V2000
   -1.1750    1.7910    0.2550 C   0  0  0  0  0  0  0  0  0  0  0  0
    0.1730    1.4430    0.1620 C   0  0  0  0  0  0  0  0  0  0  0  0
    0.5190    0.1180   -0.0480 C   0  0  0  0  0  0  0  0  0  0  0  0
   -0.4470   -0.8750   -0.1890 C   0  0  0  0  0  0  0  0  0  0  0  0
   -1.7850   -0.5010   -0.1020 C   0  0  0  0  0  0  0  0  0  0  0  0
   -2.1630    0.8310    0.1270 C   0  0  0  0  0  0  0  0  0  0  0  0
   -2.8130   -1.3760   -0.2180 O   0  0  0  0  0  0  0  0  0  0  0  0
    1.9510   -0.2340   -0.1540 C   0  0  0  0  0  0  0  0  0  0  0  0
    2.7680    0.3320   -0.8540 O   0  0  0  0  0  0  0  0  0  0  0  0
    2.4260   -1.2720    0.5790 O   0  0  0  0  0  0  0  0  0  0  0  0
   -1.4520    2.8360    0.4250 H   0  0  0  0  0  0  0  0  0  0  0  0
    0.9490    2.2110    0.2480 H   0  0  0  0  0  0  0  0  0  0  0  0
   -0.1570   -1.9110   -0.3890 H   0  0  0  0  0  0  0  0  0  0  0  0
   -3.2220    1.0970    0.1970 H   0  0  0  0  0  0  0  0  0  0  0  0
   -2.4620   -2.2460   -0.4390 H   0  0  0  0  0  0  0  0  0  0  0  0
    1.7490   -1.5940    1.1830 H   0  0  0  0  0  0  0  0  0  0  0  0
  1  6  2  0
  1  2  1  0
  1 11  1  0
  2  3  2  0
  2 12  1  0
  3  4  1  0
  3  8  1  0
  4 13  1  0
  4  5  2  0
  5  7  1  0
  5  6  1  0
  6 14  1  0
  7 15  1  0
  8  9  2  0
  8 10  1  0
 10 16  1  0
M  END
>  <id>  (835) 
947

>  <scaffolds>  (835) 
['c1ccccc1']

>  <name>  (835) 
3-Hydroxybenzoic acid

>  <formula>  (835) 
C7H6O3

>  <SMILES>  (835) 
C1=CC(=CC(=C1)O)C(=O)O

>  <ChEMBL_id>  (835) 
SCHEMBL40078

>  <ZINC_id>  (835) 
ZINC388754

>  <PubChem_id>  (835) 
7420

>  <DrugBank_id>  (835) 


>  <CAS_no>  (835) 
99-06-9

>  <references>  (835) 
[{'journal': {'name': 'Phytotherapy Research', 'id': 57}, 'title': 'Metabolite profiling and isolation of biologically active compounds from Scadoxus puniceus, a highly traded South African medicinal plant', 'year': 2018, 'start_page': None, 'volume': None, 'issue': None, 'doi': '10.1002/ptr.6000', 'isbn': '', 'despositor': {'code': 'BND', 'first_name': "Bakary N'tji", 'last_name': 'Diallo', 'id': 26}, 'refauthors_set': [{'author': {'first_name': 'Naidoo', 'initials': 'ND', 'last_name': 'Devashan', 'id': 1014}, 'first_author': True, 'id': 1594}], 'id': 494}]

>  <classifications>  (835) 
[{'classification': 'Hydroxybenzoates', 'id': 912}, {'classification': 'Benzene and substituted derivatives (Classyfire)', 'id': 961}]

>  <molecular_mass>  (835) 
138.12

$$$$
SANC00948_minRM1.pdb
     RDKit          3D

 16 16  0  0  0  0  0  0  0  0999 V2000
   -0.0550    1.1990    0.2910 C   0  0  0  0  0  0  0  0  0  0  0  0
   -1.4370    1.2280    0.2560 C   0  0  0  0  0  0  0  0  0  0  0  0
   -2.1290    0.0380   -0.0100 C   0  0  0  0  0  0  0  0  0  0  0  0
   -1.4570   -1.1670   -0.2280 C   0  0  0  0  0  0  0  0  0  0  0  0
   -0.0700   -1.1760   -0.1830 C   0  0  0  0  0  0  0  0  0  0  0  0
    0.6250    0.0050    0.0590 C   0  0  0  0  0  0  0  0  0  0  0  0
    2.0960   -0.0490    0.1140 C   0  0  0  0  0  0  0  0  0  0  0  0
    2.7500   -0.9080    0.6760 O   0  0  0  0  0  0  0  0  0  0  0  0
    2.8170    0.9190   -0.5040 O   0  0  0  0  0  0  0  0  0  0  0  0
   -3.4760    0.1510   -0.0380 O   0  0  0  0  0  0  0  0  0  0  0  0
    0.4970    2.1180    0.5220 H   0  0  0  0  0  0  0  0  0  0  0  0
   -1.9880    2.1560    0.4370 H   0  0  0  0  0  0  0  0  0  0  0  0
   -2.0010   -2.0940   -0.4250 H   0  0  0  0  0  0  0  0  0  0  0  0
    0.4780   -2.1130   -0.3360 H   0  0  0  0  0  0  0  0  0  0  0  0
    2.2420    1.4810   -1.0340 H   0  0  0  0  0  0  0  0  0  0  0  0
   -3.8640   -0.7160   -0.2040 H   0  0  0  0  0  0  0  0  0  0  0  0
  1  6  2  0
  1  2  1  0
  1 11  1  0
  2  3  2  0
  2 12  1  0
  3  4  1  0
  3 10  1  0
  4 13  1  0
  4  5  2  0
  5 14  1  0
  5  6  1  0
  6  7  1  0
  7  9  1  0
  7  8  2  0
  9 15  1  0
 10 16  1  0
M  END
>  <id>  (836) 
948

>  <scaffolds>  (836) 
['c1ccccc1']

>  <name>  (836) 
4-hydroxybenzoic acid

>  <formula>  (836) 
C7H6O3

>  <SMILES>  (836) 
C1=CC(=CC=C1C(=O)O)O

>  <ChEMBL_id>  (836) 
SCHEMBL4110

>  <ZINC_id>  (836) 
ZINC332752

>  <PubChem_id>  (836) 
135

>  <DrugBank_id>  (836) 


>  <CAS_no>  (836) 
99-96-7

>  <references>  (836) 
[{'journal': {'name': 'Phytotherapy Research', 'id': 57}, 'title': 'Metabolite profiling and isolation of biologically active compounds from Scadoxus puniceus, a highly traded South African medicinal plant', 'year': 2018, 'start_page': None, 'volume': None, 'issue': None, 'doi': '10.1002/ptr.6000', 'isbn': '', 'despositor': {'code': 'BND', 'first_name': "Bakary N'tji", 'last_name': 'Diallo', 'id': 26}, 'refauthors_set': [{'author': {'first_name': 'Naidoo', 'initials': 'ND', 'last_name': 'Devashan', 'id': 1014}, 'first_author': True, 'id': 1594}], 'id': 494}]

>  <classifications>  (836) 
[{'classification': 'Parabens', 'id': 921}, {'classification': 'Benzene and substituted derivatives (Classyfire)', 'id': 961}]

>  <molecular_mass>  (836) 
138.12

$$$$
SANC00949_minRM1.pdb
     RDKit          3D

 72 76  0  0  1  0  0  0  0  0999 V2000
    4.8900   -1.1850    0.9500 C   0  0  0  0  0  0  0  0  0  0  0  0
    6.2720   -1.1070    0.9770 C   0  0  0  0  0  0  0  0  0  0  0  0
    6.9910   -1.4760   -0.1670 C   0  0  0  0  0  0  0  0  0  0  0  0
    6.3480   -1.9170   -1.3250 C   0  0  0  0  0  0  0  0  0  0  0  0
    4.9620   -1.9870   -1.3350 C   0  0  0  0  0  0  0  0  0  0  0  0
    4.2370   -1.6200   -0.2050 C   0  0  0  0  0  0  0  0  0  0  0  0
    2.7810   -1.7340   -0.2420 C   0  0  0  0  0  0  0  0  0  0  0  0
    2.1030   -2.8010   -0.6770 C   0  0  0  0  0  0  0  0  0  0  0  0
    0.6370   -2.8030   -0.6740 C   0  0  0  0  0  0  0  0  0  0  0  0
   -0.0040   -3.7470   -1.1000 O   0  0  0  0  0  0  0  0  0  0  0  0
    0.0370   -1.5900   -0.1220 C   0  0  0  0  0  0  0  0  0  0  0  0
   -1.3590   -1.4720    0.0200 C   0  0  0  0  0  0  0  0  0  0  0  0
   -1.9410   -0.3200    0.5600 C   0  0  0  0  0  0  0  0  0  0  0  0
   -1.0930    0.7140    0.9830 C   0  0  0  0  0  0  0  0  0  0  0  0
    0.3100    0.6650    0.8100 C   0  0  0  0  0  0  0  0  0  0  0  0
    0.8340   -0.5190    0.2890 C   0  0  0  0  0  0  0  0  0  0  0  0
    2.1950   -0.5850    0.2190 O   0  0  0  0  0  0  0  0  0  0  0  0
    1.1150    1.8240    1.3190 C   0  0  1  0  0  0  0  0  0  0  0  0
    2.5800    1.9770    0.8610 C   0  0  1  0  0  0  0  0  0  0  0  0
    2.7410    2.6750   -0.5110 C   0  0  2  0  0  0  0  0  0  0  0  0
    1.8460    3.9310   -0.6050 C   0  0  1  0  0  0  0  0  0  0  0  0
    0.4120    3.6330   -0.1310 C   0  0  2  0  0  0  0  0  0  0  0  0
    0.4040    3.0270    1.1330 O   0  0  0  0  0  0  0  0  0  0  0  0
   -0.4090    2.8250   -1.1650 C   0  0  0  0  0  0  0  0  0  0  0  0
   -0.4690    3.5290   -2.3650 O   0  0  0  0  0  0  0  0  0  0  0  0
    2.3260    4.9070    0.2730 O   0  0  0  0  0  0  0  0  0  0  0  0
    2.3330    1.8570   -1.5640 O   0  0  0  0  0  0  0  0  0  0  0  0
    3.3140    2.6690    1.8190 O   0  0  0  0  0  0  0  0  0  0  0  0
   -1.7100    1.7380    1.5870 O   0  0  0  0  0  0  0  0  0  0  0  0
   -3.4310   -0.1740    0.6490 C   0  0  1  0  0  0  0  0  0  0  0  0
   -4.0000    0.2440   -0.7350 C   0  0  1  0  0  0  0  0  0  0  0  0
   -5.5020   -0.1450   -0.8810 C   0  0  2  0  0  0  0  0  0  0  0  0
   -6.1670   -0.5750    0.4570 C   0  0  1  0  0  0  0  0  0  0  0  0
   -5.2660   -1.4430    1.3740 C   0  0  2  0  0  0  0  0  0  0  0  0
   -3.9380   -1.4700    0.9130 O   0  0  0  0  0  0  0  0  0  0  0  0
   -5.7180   -2.9200    1.4420 C   0  0  0  0  0  0  0  0  0  0  0  0
   -5.6860   -3.5180    0.1860 O   0  0  0  0  0  0  0  0  0  0  0  0
   -6.4240    0.5610    1.2320 O   0  0  0  0  0  0  0  0  0  0  0  0
   -5.6650   -1.1200   -1.8560 O   0  0  0  0  0  0  0  0  0  0  0  0
   -3.8650    1.6310   -0.7740 O   0  0  0  0  0  0  0  0  0  0  0  0
   -2.0660   -2.5240   -0.4050 O   0  0  0  0  0  0  0  0  0  0  0  0
    8.3350   -1.3700   -0.0610 O   0  0  0  0  0  0  0  0  0  0  0  0
    4.3130   -0.9140    1.8410 H   0  0  0  0  0  0  0  0  0  0  0  0
    6.7980   -0.7670    1.8740 H   0  0  0  0  0  0  0  0  0  0  0  0
    6.9140   -2.2070   -2.2150 H   0  0  0  0  0  0  0  0  0  0  0  0
    4.4430   -2.3310   -2.2370 H   0  0  0  0  0  0  0  0  0  0  0  0
    2.6130   -3.7010   -1.0290 H   0  0  0  0  0  0  0  0  0  0  0  0
    1.1100    1.7380    2.4470 H   0  0  0  0  0  0  0  0  0  0  0  0
    3.0950    0.9770    0.8520 H   0  0  0  0  0  0  0  0  0  0  0  0
    3.8220    2.9690   -0.6380 H   0  0  0  0  0  0  0  0  0  0  0  0
    1.8350    4.3190   -1.6600 H   0  0  0  0  0  0  0  0  0  0  0  0
   -0.1220    4.6000    0.0870 H   0  0  0  0  0  0  0  0  0  0  0  0
   -0.0480    1.7830   -1.2930 H   0  0  0  0  0  0  0  0  0  0  0  0
   -1.4710    2.7490   -0.8320 H   0  0  0  0  0  0  0  0  0  0  0  0
    0.2830    3.2560   -2.9000 H   0  0  0  0  0  0  0  0  0  0  0  0
    3.1280    5.2770   -0.1090 H   0  0  0  0  0  0  0  0  0  0  0  0
    2.8930    1.0750   -1.5640 H   0  0  0  0  0  0  0  0  0  0  0  0
    2.8730    3.5010    2.0270 H   0  0  0  0  0  0  0  0  0  0  0  0
   -1.1270    2.5200    1.6860 H   0  0  0  0  0  0  0  0  0  0  0  0
   -3.7410    0.5530    1.4480 H   0  0  0  0  0  0  0  0  0  0  0  0
   -3.4040   -0.2480   -1.5550 H   0  0  0  0  0  0  0  0  0  0  0  0
   -6.0800    0.7140   -1.3210 H   0  0  0  0  0  0  0  0  0  0  0  0
   -7.1170   -1.1300    0.2210 H   0  0  0  0  0  0  0  0  0  0  0  0
   -5.2790   -1.0420    2.4290 H   0  0  0  0  0  0  0  0  0  0  0  0
   -6.7790   -2.9780    1.7740 H   0  0  0  0  0  0  0  0  0  0  0  0
   -5.1220   -3.4680    2.2080 H   0  0  0  0  0  0  0  0  0  0  0  0
   -4.8170   -3.9140    0.0680 H   0  0  0  0  0  0  0  0  0  0  0  0
   -7.0570    1.1120    0.7630 H   0  0  0  0  0  0  0  0  0  0  0  0
   -5.2600   -1.9390   -1.5530 H   0  0  0  0  0  0  0  0  0  0  0  0
   -3.9310    1.9010   -1.6960 H   0  0  0  0  0  0  0  0  0  0  0  0
   -3.0070   -2.4290   -0.1640 H   0  0  0  0  0  0  0  0  0  0  0  0
    8.7420   -1.6660   -0.8830 H   0  0  0  0  0  0  0  0  0  0  0  0
  1  6  2  0
  1  2  1  0
  1 43  1  0
  2  3  2  0
  2 44  1  0
  3  4  1  0
  3 42  1  0
  4 45  1  0
  4  5  2  0
  5 46  1  0
  5  6  1  0
  6  7  1  0
  7  8  2  0
  7 17  1  0
  8 47  1  0
  8  9  1  0
  9 10  2  0
  9 11  1  0
 11 12  2  0
 11 16  1  0
 12 41  1  0
 12 13  1  0
 13 30  1  0
 13 14  2  0
 14 15  1  0
 14 29  1  0
 15 16  2  0
 15 18  1  0
 16 17  1  0
 18 19  1  0
 18 23  1  0
 18 48  1  1
 19 20  1  0
 19 49  1  6
 19 28  1  0
 20 27  1  0
 20 50  1  6
 20 21  1  0
 21 51  1  6
 21 22  1  0
 21 26  1  0
 22 24  1  0
 22 52  1  1
 22 23  1  0
 24 25  1  0
 24 53  1  0
 24 54  1  0
 25 55  1  0
 26 56  1  0
 27 57  1  0
 28 58  1  0
 29 59  1  0
 30 31  1  0
 30 35  1  0
 30 60  1  1
 31 61  1  6
 31 32  1  0
 31 40  1  0
 32 39  1  0
 32 62  1  6
 32 33  1  0
 33 63  1  6
 33 38  1  0
 33 34  1  0
 34 35  1  0
 34 36  1  0
 34 64  1  1
 36 37  1  0
 36 65  1  0
 36 66  1  0
 37 67  1  0
 38 68  1  0
 39 69  1  0
 40 70  1  0
 41 71  1  0
 42 72  1  0
M  END
>  <id>  (837) 
949

>  <scaffolds>  (837) 
['c1ccccc1', 'O=c1cc(-c2ccccc2)oc2ccccc12', 'C1CCOCC1', 'O=c1ccoc2ccccc12', 'O=c1cc(-c2ccccc2)oc2ccc(C3CCCCO3)cc12', 'O=c1cc(-c2ccccc2)oc2c(C3CCCCO3)cc(C3CCCCO3)cc12', 'O=c1ccoc2c(C3CCCCO3)cccc12', 'O=c1cc(-c2ccccc2)oc2c(C3CCCCO3)cccc12']

>  <name>  (837) 
vicenin-2

>  <formula>  (837) 
C27H30O15

>  <SMILES>  (837) 
C1=CC(=CC=C1C2=CC(=O)C3=C(C(=C(C(=C3O2)[C@H]4[C@@H]([C@H]([C@@H]([C@H](O4)CO)O)O)O)O)[C@H]5[C@@H]([C@H]([C@@H]([C@H](O5)CO)O)O)O)O)O

>  <ChEMBL_id>  (837) 
CHEMBL1442950

>  <ZINC_id>  (837) 
ZINC4098604

>  <PubChem_id>  (837) 
442664

>  <DrugBank_id>  (837) 


>  <CAS_no>  (837) 
23666-13-9

>  <references>  (837) 
[{'journal': {'name': 'Plant Systematics and Evolution', 'id': 58}, 'title': 'Seed flavonoids of the Podalyrieae and Liparieae (Fabaceae)', 'year': 1998, 'start_page': None, 'volume': None, 'issue': None, 'doi': '10.1007/BF00985218', 'isbn': '', 'despositor': {'code': 'BND', 'first_name': "Bakary N'tji", 'last_name': 'Diallo', 'id': 26}, 'refauthors_set': [{'author': {'first_name': 'D', 'initials': 'DN', 'last_name': 'Nysschen,', 'id': 1015}, 'first_author': True, 'id': 1595}], 'id': 495}]

>  <classifications>  (837) 
[{'classification': 'Flavonoids', 'id': 776}, {'classification': 'Flavonoids (Classyfire)', 'id': 941}]

>  <molecular_mass>  (837) 
594.5

$$$$
SANC00950_minRM1.pdb
     RDKit          3D

 31 33  0  0  0  0  0  0  0  0999 V2000
    2.5550    1.4000   -0.7670 C   0  0  0  0  0  0  0  0  0  0  0  0
    3.9360    1.2970   -0.8460 C   0  0  0  0  0  0  0  0  0  0  0  0
    4.5850    0.2580   -0.1770 C   0  0  0  0  0  0  0  0  0  0  0  0
    3.8380   -0.6680    0.5680 C   0  0  0  0  0  0  0  0  0  0  0  0
    2.4530   -0.5570    0.6540 C   0  0  0  0  0  0  0  0  0  0  0  0
    1.8190    0.4810   -0.0200 C   0  0  0  0  0  0  0  0  0  0  0  0
    0.3720    0.6140    0.0600 C   0  0  0  0  0  0  0  0  0  0  0  0
   -0.1910    1.8100    0.3230 C   0  0  0  0  0  0  0  0  0  0  0  0
   -1.5260    2.0400    0.4090 O   0  0  0  0  0  0  0  0  0  0  0  0
   -2.3760    0.9890    0.2130 C   0  0  0  0  0  0  0  0  0  0  0  0
   -3.7270    1.2840    0.3110 C   0  0  0  0  0  0  0  0  0  0  0  0
   -4.6220    0.2220    0.1150 C   0  0  0  0  0  0  0  0  0  0  0  0
   -4.2070   -1.0810   -0.1690 C   0  0  0  0  0  0  0  0  0  0  0  0
   -2.8350   -1.3290   -0.2580 C   0  0  0  0  0  0  0  0  0  0  0  0
   -1.8980   -0.2940   -0.0650 C   0  0  0  0  0  0  0  0  0  0  0  0
   -0.4760   -0.5540   -0.1510 C   0  0  0  0  0  0  0  0  0  0  0  0
   -0.0640   -1.6910   -0.3880 O   0  0  0  0  0  0  0  0  0  0  0  0
   -2.4670   -2.5840   -0.5290 O   0  0  0  0  0  0  0  0  0  0  0  0
   -5.9240    0.5570    0.2230 O   0  0  0  0  0  0  0  0  0  0  0  0
    4.5480   -1.6270    1.2220 O   0  0  0  0  0  0  0  0  0  0  0  0
    5.9340    0.2410   -0.2860 O   0  0  0  0  0  0  0  0  0  0  0  0
    2.0470    2.2030   -1.3090 H   0  0  0  0  0  0  0  0  0  0  0  0
    4.5180    2.0170   -1.4300 H   0  0  0  0  0  0  0  0  0  0  0  0
    1.8740   -1.2780    1.2400 H   0  0  0  0  0  0  0  0  0  0  0  0
    0.3330    2.7550    0.5090 H   0  0  0  0  0  0  0  0  0  0  0  0
   -4.0850    2.2930    0.5310 H   0  0  0  0  0  0  0  0  0  0  0  0
   -4.9170   -1.8980   -0.3210 H   0  0  0  0  0  0  0  0  0  0  0  0
   -1.4790   -2.6570   -0.5760 H   0  0  0  0  0  0  0  0  0  0  0  0
   -6.4720   -0.2240    0.0760 H   0  0  0  0  0  0  0  0  0  0  0  0
    3.9730   -2.3910    1.3440 H   0  0  0  0  0  0  0  0  0  0  0  0
    6.2820   -0.5690    0.1030 H   0  0  0  0  0  0  0  0  0  0  0  0
  1 22  1  0
  1  2  2  0
  1  6  1  0
  2 23  1  0
  2  3  1  0
  3 21  1  0
  3  4  2  0
  4  5  1  0
  4 20  1  0
  5  6  2  0
  5 24  1  0
  6  7  1  0
  7 16  1  0
  7  8  2  0
  8  9  1  0
  8 25  1  0
  9 10  1  0
 10 15  2  0
 10 11  1  0
 11 12  2  0
 11 26  1  0
 12 13  1  0
 12 19  1  0
 13 27  1  0
 13 14  2  0
 14 18  1  0
 14 15  1  0
 15 16  1  0
 16 17  2  0
 18 28  1  0
 19 29  1  0
 20 30  1  0
 21 31  1  0
M  END
>  <id>  (838) 
950

>  <scaffolds>  (838) 
['c1ccccc1', 'O=c1c(-c2ccccc2)coc2ccccc12', 'O=c1ccoc2ccccc12']

>  <name>  (838) 
Orobol

>  <formula>  (838) 
C15H10O6

>  <SMILES>  (838) 
C1=CC(=C(C=C1C2=COC3=CC(=CC(=C3C2=O)O)O)O)O

>  <ChEMBL_id>  (838) 
CHEMBL241609

>  <ZINC_id>  (838) 
ZINC6092209

>  <PubChem_id>  (838) 
5281801

>  <DrugBank_id>  (838) 


>  <CAS_no>  (838) 
480-23-9

>  <references>  (838) 
[{'journal': {'name': 'Plant Systematics and Evolution', 'id': 58}, 'title': 'Seed flavonoids of the Podalyrieae and Liparieae (Fabaceae)', 'year': 1998, 'start_page': None, 'volume': None, 'issue': None, 'doi': '10.1007/BF00985218', 'isbn': '', 'despositor': {'code': 'BND', 'first_name': "Bakary N'tji", 'last_name': 'Diallo', 'id': 26}, 'refauthors_set': [{'author': {'first_name': 'D', 'initials': 'DN', 'last_name': 'Nysschen,', 'id': 1015}, 'first_author': True, 'id': 1595}], 'id': 495}]

>  <classifications>  (838) 
[{'classification': 'Flavonoids', 'id': 776}, {'classification': 'Isoflavonoids (Classyfire)', 'id': 963}]

>  <molecular_mass>  (838) 
286.24

$$$$
SANC00951_minRM1.pdb
     RDKit          3D

 32 34  0  0  1  0  0  0  0  0999 V2000
   -0.1200   -1.7570   -0.4450 C   0  0  0  0  0  0  0  0  0  0  0  0
    0.2300   -0.6830    0.5870 C   0  0  2  0  0  0  0  0  0  0  0  0
   -0.4710    0.5250    0.3300 O   0  0  0  0  0  0  0  0  0  0  0  0
   -1.8130    0.3930    0.1610 C   0  0  0  0  0  0  0  0  0  0  0  0
   -2.4210   -0.8110   -0.2020 C   0  0  0  0  0  0  0  0  0  0  0  0
   -1.6060   -2.0020   -0.4370 C   0  0  0  0  0  0  0  0  0  0  0  0
   -2.0760   -3.1060   -0.6420 O   0  0  0  0  0  0  0  0  0  0  0  0
   -3.8080   -0.8460   -0.3680 C   0  0  0  0  0  0  0  0  0  0  0  0
   -4.5690    0.2930   -0.1970 C   0  0  0  0  0  0  0  0  0  0  0  0
   -3.9260    1.4920    0.1530 C   0  0  0  0  0  0  0  0  0  0  0  0
   -2.5480    1.5660    0.3430 C   0  0  0  0  0  0  0  0  0  0  0  0
   -4.7420    2.5590    0.2960 O   0  0  0  0  0  0  0  0  0  0  0  0
    1.6870   -0.3310    0.4890 C   0  0  0  0  0  0  0  0  0  0  0  0
    2.1530    0.3800   -0.6110 C   0  0  0  0  0  0  0  0  0  0  0  0
    3.5090    0.6770   -0.6990 C   0  0  0  0  0  0  0  0  0  0  0  0
    4.3990    0.2580    0.3030 C   0  0  0  0  0  0  0  0  0  0  0  0
    3.9180   -0.4590    1.4000 C   0  0  0  0  0  0  0  0  0  0  0  0
    2.5630   -0.7450    1.4880 C   0  0  0  0  0  0  0  0  0  0  0  0
    5.7340    0.4810    0.2880 O   0  0  0  0  0  0  0  0  0  0  0  0
    4.0650    1.3430   -1.7480 O   0  0  0  0  0  0  0  0  0  0  0  0
    0.4520   -2.6860   -0.2410 H   0  0  0  0  0  0  0  0  0  0  0  0
    0.1850   -1.4580   -1.4710 H   0  0  0  0  0  0  0  0  0  0  0  0
   -0.0450   -1.0370    1.6180 H   0  0  0  0  0  0  0  0  0  0  0  0
   -4.2930   -1.7910   -0.6440 H   0  0  0  0  0  0  0  0  0  0  0  0
   -5.6540    0.2720   -0.3300 H   0  0  0  0  0  0  0  0  0  0  0  0
   -2.0450    2.4950    0.6230 H   0  0  0  0  0  0  0  0  0  0  0  0
   -4.2180    3.3300    0.5440 H   0  0  0  0  0  0  0  0  0  0  0  0
    1.4590    0.7130   -1.3900 H   0  0  0  0  0  0  0  0  0  0  0  0
    4.6100   -0.7870    2.1820 H   0  0  0  0  0  0  0  0  0  0  0  0
    2.1940   -1.3020    2.3560 H   0  0  0  0  0  0  0  0  0  0  0  0
    5.9640    1.0410   -0.4620 H   0  0  0  0  0  0  0  0  0  0  0  0
    3.3620    1.8060   -2.2170 H   0  0  0  0  0  0  0  0  0  0  0  0
  1 22  1  0
  1  6  1  0
  1 21  1  0
  1  2  1  0
  2  3  1  0
  2 13  1  0
  2 23  1  1
  3  4  1  0
  4  5  2  0
  4 11  1  0
  5  6  1  0
  5  8  1  0
  6  7  2  0
  8 24  1  0
  8  9  2  0
  9 25  1  0
  9 10  1  0
 10 12  1  0
 10 11  2  0
 11 26  1  0
 12 27  1  0
 13 14  2  0
 13 18  1  0
 14 28  1  0
 14 15  1  0
 15 20  1  0
 15 16  2  0
 16 19  1  0
 16 17  1  0
 17 18  2  0
 17 29  1  0
 18 30  1  0
 19 31  1  0
 20 32  1  0
M  END
>  <id>  (839) 
951

>  <scaffolds>  (839) 
['c1ccccc1', 'O=C1CC(c2ccccc2)Oc2ccccc21', 'c1ccc(C2CCc3ccccc3O2)cc1', 'O=C(CCc1ccccc1)c1ccccc1']

>  <name>  (839) 
Butin

>  <formula>  (839) 
C15H12O5

>  <SMILES>  (839) 
C1[C@H](OC2=C(C1=O)C=CC(=C2)O)C3=CC(=C(C=C3)O)O

>  <ChEMBL_id>  (839) 
CHEMBL451168

>  <ZINC_id>  (839) 
ZINC4098238

>  <PubChem_id>  (839) 
92775

>  <DrugBank_id>  (839) 


>  <CAS_no>  (839) 
492-14-8

>  <references>  (839) 
[{'journal': {'name': 'Plant Systematics and Evolution', 'id': 58}, 'title': 'Seed flavonoids of the Podalyrieae and Liparieae (Fabaceae)', 'year': 1998, 'start_page': None, 'volume': None, 'issue': None, 'doi': '10.1007/BF00985218', 'isbn': '', 'despositor': {'code': 'BND', 'first_name': "Bakary N'tji", 'last_name': 'Diallo', 'id': 26}, 'refauthors_set': [{'author': {'first_name': 'D', 'initials': 'DN', 'last_name': 'Nysschen,', 'id': 1015}, 'first_author': True, 'id': 1595}], 'id': 495}]

>  <classifications>  (839) 
[{'classification': 'Flavonoids', 'id': 776}, {'classification': 'Flavonoids (Classyfire)', 'id': 941}]

>  <molecular_mass>  (839) 
272.25

$$$$
SANC00953_minRM1.pdb
     RDKit          3D

 24 24  0  0  0  0  0  0  0  0999 V2000
   -4.0370    1.5520    0.0070 C   0  0  0  0  0  0  0  0  0  0  0  0
   -3.1070    1.1150    0.9720 O   0  0  0  0  0  0  0  0  0  0  0  0
   -2.1660    0.2670    0.4560 C   0  0  0  0  0  0  0  0  0  0  0  0
   -2.4670   -1.0870    0.2350 C   0  0  0  0  0  0  0  0  0  0  0  0
   -1.4690   -1.9660   -0.1850 C   0  0  0  0  0  0  0  0  0  0  0  0
   -0.1780   -1.4890   -0.3700 C   0  0  0  0  0  0  0  0  0  0  0  0
    0.1200   -0.1470   -0.1490 C   0  0  0  0  0  0  0  0  0  0  0  0
   -0.8780    0.7430    0.2540 C   0  0  0  0  0  0  0  0  0  0  0  0
    1.4730    0.3560   -0.3480 C   0  0  0  0  0  0  0  0  0  0  0  0
    2.5490   -0.3250    0.0590 C   0  0  0  0  0  0  0  0  0  0  0  0
    3.8930    0.2230   -0.1850 C   0  0  0  0  0  0  0  0  0  0  0  0
    4.1740    1.0760   -1.0090 O   0  0  0  0  0  0  0  0  0  0  0  0
    4.9430   -0.2390    0.5390 O   0  0  0  0  0  0  0  0  0  0  0  0
   -3.7540   -1.4490    0.4380 O   0  0  0  0  0  0  0  0  0  0  0  0
   -4.6370    0.7400   -0.4320 H   0  0  0  0  0  0  0  0  0  0  0  0
   -4.7040    2.2240    0.5670 H   0  0  0  0  0  0  0  0  0  0  0  0
   -3.5640    2.1170   -0.8140 H   0  0  0  0  0  0  0  0  0  0  0  0
   -1.6890   -3.0220   -0.3660 H   0  0  0  0  0  0  0  0  0  0  0  0
    0.6020   -2.1780   -0.7100 H   0  0  0  0  0  0  0  0  0  0  0  0
   -0.6520    1.8000    0.4280 H   0  0  0  0  0  0  0  0  0  0  0  0
    1.5620    1.3320   -0.8450 H   0  0  0  0  0  0  0  0  0  0  0  0
    2.4760   -1.2900    0.5690 H   0  0  0  0  0  0  0  0  0  0  0  0
    4.6460   -0.8610    1.2100 H   0  0  0  0  0  0  0  0  0  0  0  0
   -3.8270   -2.4050    0.3290 H   0  0  0  0  0  0  0  0  0  0  0  0
  1 17  1  0
  1 15  1  0
  1 16  1  0
  1  2  1  0
  2  3  1  0
  3  4  2  0
  3  8  1  0
  4  5  1  0
  4 14  1  0
  5  6  2  0
  5 18  1  0
  6 19  1  0
  6  7  1  0
  7  9  1  0
  7  8  2  0
  8 20  1  0
  9 21  1  0
  9 10  2  0
 10 11  1  0
 10 22  1  0
 11 12  2  0
 11 13  1  0
 13 23  1  0
 14 24  1  0
M  END
>  <id>  (840) 
953

>  <scaffolds>  (840) 
['c1ccccc1']

>  <name>  (840) 
Ferulic acid

>  <formula>  (840) 
C10H10O4

>  <SMILES>  (840) 
COC1=C(C=CC(=C1)/C=C/C(=O)O)O

>  <ChEMBL_id>  (840) 
SCHEMBL15673

>  <ZINC_id>  (840) 
ZINC58258

>  <PubChem_id>  (840) 
445858

>  <DrugBank_id>  (840) 
DB07767

>  <CAS_no>  (840) 
1135-24-6

>  <references>  (840) 
[{'journal': {'name': 'Planta', 'id': 60}, 'title': 'Physiological role of phenolic biostimulants isolated from brown seaweed Ecklonia maxima on plant growth and development', 'year': 2015, 'start_page': None, 'volume': None, 'issue': None, 'doi': '10.1007/s00425-015-2256-x', 'isbn': '', 'despositor': {'code': 'BND', 'first_name': "Bakary N'tji", 'last_name': 'Diallo', 'id': 26}, 'refauthors_set': [{'author': {'first_name': 'Aremu', 'initials': 'AA', 'last_name': 'Adeyemi', 'id': 1016}, 'first_author': True, 'id': 1596}], 'id': 497}]

>  <classifications>  (840) 
[{'classification': 'Cinnamic acids and derivatives (Classyfire)', 'id': 975}]

>  <molecular_mass>  (840) 
194.18

$$$$
SANC00954_minRM1.pdb
     RDKit          3D

 34 36  0  0  1  0  0  0  0  0999 V2000
   -2.7760    0.6790    1.3470 C   0  0  0  0  0  0  0  0  0  0  0  0
   -4.1380    0.4340    1.2280 C   0  0  0  0  0  0  0  0  0  0  0  0
   -4.5900   -0.3740    0.1890 C   0  0  0  0  0  0  0  0  0  0  0  0
   -3.6870   -0.8970   -0.7470 C   0  0  0  0  0  0  0  0  0  0  0  0
   -2.3210   -0.6550   -0.6230 C   0  0  0  0  0  0  0  0  0  0  0  0
   -1.8750    0.1290    0.4360 C   0  0  0  0  0  0  0  0  0  0  0  0
   -0.4120    0.4260    0.5930 C   0  0  2  0  0  0  0  0  0  0  0  0
    0.0120    1.5050   -0.4330 C   0  0  2  0  0  0  0  0  0  0  0  0
    1.5150    1.7340   -0.2980 C   0  0  0  0  0  0  0  0  0  0  0  0
    2.0080    2.8350   -0.3950 O   0  0  0  0  0  0  0  0  0  0  0  0
    2.2680    0.5010   -0.0860 C   0  0  0  0  0  0  0  0  0  0  0  0
    3.6680    0.4640   -0.1970 C   0  0  0  0  0  0  0  0  0  0  0  0
    4.3910   -0.7210   -0.0520 C   0  0  0  0  0  0  0  0  0  0  0  0
    3.6800   -1.8930    0.2140 C   0  0  0  0  0  0  0  0  0  0  0  0
    2.2900   -1.9100    0.3580 C   0  0  0  0  0  0  0  0  0  0  0  0
    1.6140   -0.7000    0.2090 C   0  0  0  0  0  0  0  0  0  0  0  0
    0.2650   -0.7920    0.3390 O   0  0  0  0  0  0  0  0  0  0  0  0
    4.4330   -3.0060    0.3300 O   0  0  0  0  0  0  0  0  0  0  0  0
    4.2650    1.6380   -0.4710 O   0  0  0  0  0  0  0  0  0  0  0  0
   -0.6000    2.7110   -0.1120 O   0  0  0  0  0  0  0  0  0  0  0  0
   -4.1040   -1.7340   -1.7340 O   0  0  0  0  0  0  0  0  0  0  0  0
   -5.9300   -0.5530    0.0400 O   0  0  0  0  0  0  0  0  0  0  0  0
   -2.4190    1.3070    2.1690 H   0  0  0  0  0  0  0  0  0  0  0  0
   -4.8510    0.8630    1.9390 H   0  0  0  0  0  0  0  0  0  0  0  0
   -1.6240   -1.0930   -1.3460 H   0  0  0  0  0  0  0  0  0  0  0  0
   -0.1670    0.7660    1.6360 H   0  0  0  0  0  0  0  0  0  0  0  0
   -0.2040    1.1610   -1.4820 H   0  0  0  0  0  0  0  0  0  0  0  0
    5.4800   -0.7520   -0.1430 H   0  0  0  0  0  0  0  0  0  0  0  0
    1.7390   -2.8270    0.5780 H   0  0  0  0  0  0  0  0  0  0  0  0
    3.8610   -3.7640    0.5050 H   0  0  0  0  0  0  0  0  0  0  0  0
    5.2210    1.5100   -0.5170 H   0  0  0  0  0  0  0  0  0  0  0  0
   -1.5210    2.6440   -0.3850 H   0  0  0  0  0  0  0  0  0  0  0  0
   -4.8040   -1.2710   -2.2120 H   0  0  0  0  0  0  0  0  0  0  0  0
   -6.0790   -1.5080    0.0310 H   0  0  0  0  0  0  0  0  0  0  0  0
  1  6  2  0
  1  2  1  0
  1 23  1  0
  2  3  2  0
  2 24  1  0
  3  4  1  0
  3 22  1  0
  4 21  1  0
  4  5  2  0
  5 25  1  0
  5  6  1  0
  6  7  1  0
  7  8  1  0
  7 17  1  0
  7 26  1  1
  8 27  1  6
  8  9  1  0
  8 20  1  0
  9 10  2  0
  9 11  1  0
 11 12  2  0
 11 16  1  0
 12 19  1  0
 12 13  1  0
 13 28  1  0
 13 14  2  0
 14 18  1  0
 14 15  1  0
 15 16  2  0
 15 29  1  0
 16 17  1  0
 18 30  1  0
 19 31  1  0
 20 32  1  0
 21 33  1  0
 22 34  1  0
M  END
>  <id>  (841) 
954

>  <scaffolds>  (841) 
['c1ccccc1', 'O=C1CC(c2ccccc2)Oc2ccccc21', 'c1ccc(C2CCc3ccccc3O2)cc1', 'O=C(CCc1ccccc1)c1ccccc1']

>  <name>  (841) 
Taxifolin

>  <formula>  (841) 
C15H12O7

>  <SMILES>  (841) 
C1=CC(=C(C=C1[C@@H]2[C@H](C(=O)C3=C(C=C(C=C3O2)O)O)O)O)O

>  <ChEMBL_id>  (841) 
SCHEMBL39786

>  <ZINC_id>  (841) 
ZINC100018343

>  <PubChem_id>  (841) 
439533

>  <DrugBank_id>  (841) 
DB02224

>  <CAS_no>  (841) 
480-18-2

>  <references>  (841) 
[{'journal': {'name': 'Planta', 'id': 60}, 'title': 'Physiological role of phenolic biostimulants isolated from brown seaweed Ecklonia maxima on plant growth and development', 'year': 2015, 'start_page': None, 'volume': None, 'issue': None, 'doi': '10.1007/s00425-015-2256-x', 'isbn': '', 'despositor': {'code': 'BND', 'first_name': "Bakary N'tji", 'last_name': 'Diallo', 'id': 26}, 'refauthors_set': [{'author': {'first_name': 'Aremu', 'initials': 'AA', 'last_name': 'Adeyemi', 'id': 1016}, 'first_author': True, 'id': 1596}], 'id': 497}]

>  <classifications>  (841) 
[{'classification': 'Flavonoids', 'id': 776}, {'classification': 'Flavonoids (Classyfire)', 'id': 941}]

>  <molecular_mass>  (841) 
304.25

$$$$
SANC00955_minRM1.pdb
     RDKit          3D

 32 34  0  0  1  0  0  0  0  0999 V2000
    5.1000    0.9870   -0.2430 C   0  0  0  0  0  0  0  0  0  0  0  0
    4.1440    1.1500   -1.2380 C   0  0  0  0  0  0  0  0  0  0  0  0
    2.8220    0.7920   -1.0010 C   0  0  0  0  0  0  0  0  0  0  0  0
    2.4580    0.2740    0.2370 C   0  0  0  0  0  0  0  0  0  0  0  0
    3.4120    0.1150    1.2380 C   0  0  0  0  0  0  0  0  0  0  0  0
    4.7330    0.4690    0.9940 C   0  0  0  0  0  0  0  0  0  0  0  0
    1.0380   -0.1350    0.4970 C   0  0  2  0  0  0  0  0  0  0  0  0
    0.6810   -1.3970   -0.3320 C   0  0  2  0  0  0  0  0  0  0  0  0
   -0.7930   -1.6870   -0.1240 C   0  0  0  0  0  0  0  0  0  0  0  0
   -1.2430   -2.8280   -0.0790 O   0  0  0  0  0  0  0  0  0  0  0  0
   -1.6440   -0.5290    0.0030 C   0  0  0  0  0  0  0  0  0  0  0  0
   -3.0440   -0.6640    0.0230 C   0  0  0  0  0  0  0  0  0  0  0  0
   -3.8770    0.4580    0.0680 C   0  0  0  0  0  0  0  0  0  0  0  0
   -3.2760    1.7160    0.1070 C   0  0  0  0  0  0  0  0  0  0  0  0
   -1.8840    1.8990    0.1260 C   0  0  0  0  0  0  0  0  0  0  0  0
   -1.0950    0.7600    0.0800 C   0  0  0  0  0  0  0  0  0  0  0  0
    0.2480    0.9680    0.0810 O   0  0  0  0  0  0  0  0  0  0  0  0
   -3.9930    2.8570    0.1440 O   0  0  0  0  0  0  0  0  0  0  0  0
   -3.6530   -1.8540   -0.0040 O   0  0  0  0  0  0  0  0  0  0  0  0
    1.4980   -2.4650   -0.0030 O   0  0  0  0  0  0  0  0  0  0  0  0
    6.1410    1.2660   -0.4320 H   0  0  0  0  0  0  0  0  0  0  0  0
    4.4310    1.5610   -2.2100 H   0  0  0  0  0  0  0  0  0  0  0  0
    2.0740    0.9310   -1.7880 H   0  0  0  0  0  0  0  0  0  0  0  0
    3.1360   -0.2900    2.2160 H   0  0  0  0  0  0  0  0  0  0  0  0
    5.4850    0.3400    1.7770 H   0  0  0  0  0  0  0  0  0  0  0  0
    0.8520   -0.3260    1.5890 H   0  0  0  0  0  0  0  0  0  0  0  0
    0.8750   -1.2320   -1.4250 H   0  0  0  0  0  0  0  0  0  0  0  0
   -4.9620    0.3280    0.0710 H   0  0  0  0  0  0  0  0  0  0  0  0
   -1.4470    2.8990    0.1740 H   0  0  0  0  0  0  0  0  0  0  0  0
   -4.9350    2.6470    0.1360 H   0  0  0  0  0  0  0  0  0  0  0  0
   -2.9930   -2.5870   -0.0350 H   0  0  0  0  0  0  0  0  0  0  0  0
    1.2440   -2.7910    0.8680 H   0  0  0  0  0  0  0  0  0  0  0  0
  1  2  2  0
  1 21  1  0
  1  6  1  0
  2 22  1  0
  2  3  1  0
  3 23  1  0
  3  4  2  0
  4  7  1  0
  4  5  1  0
  5  6  2  0
  5 24  1  0
  6 25  1  0
  7  8  1  0
  7 17  1  0
  7 26  1  1
  8 27  1  6
  8  9  1  0
  8 20  1  0
  9 10  2  0
  9 11  1  0
 11 12  2  0
 11 16  1  0
 12 19  1  0
 12 13  1  0
 13 28  1  0
 13 14  2  0
 14 15  1  0
 14 18  1  0
 15 16  2  0
 15 29  1  0
 16 17  1  0
 18 30  1  0
 19 31  1  0
 20 32  1  0
M  END
>  <id>  (842) 
955

>  <scaffolds>  (842) 
['c1ccccc1', 'O=C1CC(c2ccccc2)Oc2ccccc21', 'c1ccc(C2CCc3ccccc3O2)cc1', 'O=C(CCc1ccccc1)c1ccccc1']

>  <name>  (842) 
Indole-3-acetic acid

>  <formula>  (842) 
C15H12O5

>  <SMILES>  (842) 
C1=CC=C(C=C1)[C@@H]2[C@H](C(=O)C3=C(C=C(C=C3O2)O)O)O

>  <ChEMBL_id>  (842) 
SCHEMBL1045054

>  <ZINC_id>  (842) 
ZINC14806381

>  <PubChem_id>  (842) 
73202

>  <DrugBank_id>  (842) 


>  <CAS_no>  (842) 
548-82-3

>  <references>  (842) 
[{'journal': {'name': 'Planta', 'id': 60}, 'title': 'Physiological role of phenolic biostimulants isolated from brown seaweed Ecklonia maxima on plant growth and development', 'year': 2015, 'start_page': None, 'volume': None, 'issue': None, 'doi': '10.1007/s00425-015-2256-x', 'isbn': '', 'despositor': {'code': 'BND', 'first_name': "Bakary N'tji", 'last_name': 'Diallo', 'id': 26}, 'refauthors_set': [{'author': {'first_name': 'Aremu', 'initials': 'AA', 'last_name': 'Adeyemi', 'id': 1016}, 'first_author': True, 'id': 1596}], 'id': 497}]

>  <classifications>  (842) 
[{'classification': 'Flavonoids', 'id': 776}, {'classification': 'Flavonoids (Classyfire)', 'id': 941}]

>  <molecular_mass>  (842) 
272.25

$$$$
SANC00956_minRM1.pdb
     RDKit          3D

 20 20  0  0  0  0  0  0  0  0999 V2000
    4.0240   -0.0020   -0.4320 O   0  0  0  0  0  0  0  0  0  0  0  0
    2.6510   -0.1800   -0.5920 C   0  0  0  0  0  0  0  0  0  0  0  0
    1.8860    0.2330    0.6760 C   0  0  0  0  0  0  0  0  0  0  0  0
    0.4230    0.1390    0.4080 C   0  0  0  0  0  0  0  0  0  0  0  0
   -0.2000   -1.1080    0.4340 C   0  0  0  0  0  0  0  0  0  0  0  0
   -1.5560   -1.2260    0.1770 C   0  0  0  0  0  0  0  0  0  0  0  0
   -2.2870   -0.0680   -0.1120 C   0  0  0  0  0  0  0  0  0  0  0  0
   -1.6790    1.1870   -0.1460 C   0  0  0  0  0  0  0  0  0  0  0  0
   -0.3180    1.2790    0.1160 C   0  0  0  0  0  0  0  0  0  0  0  0
   -3.6070   -0.2630   -0.3530 O   0  0  0  0  0  0  0  0  0  0  0  0
    4.3240   -0.6010    0.2590 H   0  0  0  0  0  0  0  0  0  0  0  0
    2.3880   -1.2210   -0.8930 H   0  0  0  0  0  0  0  0  0  0  0  0
    2.3910    0.4710   -1.4550 H   0  0  0  0  0  0  0  0  0  0  0  0
    2.1700   -0.4080    1.5370 H   0  0  0  0  0  0  0  0  0  0  0  0
    2.1850    1.2560    0.9900 H   0  0  0  0  0  0  0  0  0  0  0  0
    0.3830   -2.0060    0.6630 H   0  0  0  0  0  0  0  0  0  0  0  0
   -2.0520   -2.2000    0.1980 H   0  0  0  0  0  0  0  0  0  0  0  0
   -2.2530    2.0890   -0.3730 H   0  0  0  0  0  0  0  0  0  0  0  0
    0.1660    2.2610    0.0890 H   0  0  0  0  0  0  0  0  0  0  0  0
   -4.0180    0.5880   -0.5400 H   0  0  0  0  0  0  0  0  0  0  0  0
  1  2  1  0
  1 11  1  0
  2 13  1  0
  2 12  1  0
  2  3  1  0
  3  4  1  0
  3 15  1  0
  3 14  1  0
  4  9  2  0
  4  5  1  0
  5  6  2  0
  5 16  1  0
  6  7  1  0
  6 17  1  0
  7 10  1  0
  7  8  2  0
  8 18  1  0
  8  9  1  0
  9 19  1  0
 10 20  1  0
M  END
>  <id>  (843) 
956

>  <scaffolds>  (843) 
['c1ccccc1']

>  <name>  (843) 
Tyrosol

>  <formula>  (843) 
C8H10O2

>  <SMILES>  (843) 
OCCc1ccc(cc1)O

>  <ChEMBL_id>  (843) 


>  <ZINC_id>  (843) 


>  <PubChem_id>  (843) 


>  <DrugBank_id>  (843) 


>  <CAS_no>  (843) 
501-94-0

>  <references>  (843) 
[{'journal': {'name': 'Journal of Applied Phycology ', 'id': 61}, 'title': 'Macrocystis angustifolia is a potential source of enzyme inhibitors linked to type 2 diabetes and dementia', 'year': 2013, 'start_page': None, 'volume': None, 'issue': None, 'doi': 'https://doi.org/10.1007/s10811-013-0171-8', 'isbn': '', 'despositor': {'code': 'BND', 'first_name': "Bakary N'tji", 'last_name': 'Diallo', 'id': 26}, 'refauthors_set': [{'author': {'first_name': 'Kannan R. R. ', 'initials': 'KRRR', 'last_name': 'Rengasamy', 'id': 1017}, 'first_author': True, 'id': 1597}], 'id': 498}]

>  <classifications>  (843) 
[{'classification': 'Phenols (Classyfire)', 'id': 970}]

>  <molecular_mass>  (843) 
138.16

$$$$
SANC00957_minRM1.pdb
     RDKit          3D

 48 51  0  0  1  0  0  0  0  0999 V2000
   -3.5690   -3.1890   -1.0900 C   0  0  0  0  0  0  0  0  0  0  0  0
   -3.4030   -1.9800   -0.1670 C   0  0  2  0  0  0  0  0  0  0  0  0
   -4.4730   -0.9620   -0.4030 C   0  0  0  0  0  0  0  0  0  0  0  0
   -4.1940    0.3440   -0.3840 C   0  0  0  0  0  0  0  0  0  0  0  0
   -2.8260    0.7650   -0.1740 C   0  0  0  0  0  0  0  0  0  0  0  0
   -1.8320   -0.1880   -0.2180 C   0  0  0  0  0  0  0  0  0  0  0  0
   -2.0990   -1.4950   -0.4740 O   0  0  0  0  0  0  0  0  0  0  0  0
   -0.4530    0.1220   -0.0750 C   0  0  0  0  0  0  0  0  0  0  0  0
    0.5830   -0.8540   -0.1330 C   0  0  0  0  0  0  0  0  0  0  0  0
    1.9200   -0.4900   -0.0000 C   0  0  0  0  0  0  0  0  0  0  0  0
    2.2410    0.8660    0.2170 C   0  0  0  0  0  0  0  0  0  0  0  0
    3.6530    1.3010    0.4250 C   0  0  0  0  0  0  0  0  0  0  0  0
    4.6770    0.2960   -0.1210 C   0  0  2  0  0  0  0  0  0  0  0  0
    4.3330   -1.1030    0.3980 C   0  0  0  0  0  0  0  0  0  0  0  0
    2.9740   -1.5000   -0.1210 C   0  0  0  0  0  0  0  0  0  0  0  0
    2.7970   -2.6020   -0.6090 O   0  0  0  0  0  0  0  0  0  0  0  0
    6.0970    0.6880    0.3050 C   0  0  0  0  0  0  0  0  0  0  0  0
    4.5600    0.3700   -1.5110 O   0  0  0  0  0  0  0  0  0  0  0  0
    1.2530    1.8190    0.2840 C   0  0  0  0  0  0  0  0  0  0  0  0
   -0.1070    1.4690    0.1320 C   0  0  0  0  0  0  0  0  0  0  0  0
   -1.1150    2.4640    0.2010 C   0  0  0  0  0  0  0  0  0  0  0  0
   -2.4340    2.1150    0.0510 C   0  0  0  0  0  0  0  0  0  0  0  0
   -3.4830    2.9780    0.1050 O   0  0  0  0  0  0  0  0  0  0  0  0
   -3.1990    4.3460    0.2630 C   0  0  0  0  0  0  0  0  0  0  0  0
    0.3400   -2.1610   -0.2780 O   0  0  0  0  0  0  0  0  0  0  0  0
   -3.4060   -2.3950    1.3060 C   0  0  0  0  0  0  0  0  0  0  0  0
   -3.5790   -2.8970   -2.1500 H   0  0  0  0  0  0  0  0  0  0  0  0
   -2.7590   -3.9230   -0.9680 H   0  0  0  0  0  0  0  0  0  0  0  0
   -4.5120   -3.7130   -0.8870 H   0  0  0  0  0  0  0  0  0  0  0  0
   -5.4810   -1.3470   -0.5610 H   0  0  0  0  0  0  0  0  0  0  0  0
   -4.9650    1.1050   -0.5370 H   0  0  0  0  0  0  0  0  0  0  0  0
    3.8190    1.4550    1.5140 H   0  0  0  0  0  0  0  0  0  0  0  0
    3.8290    2.2990   -0.0350 H   0  0  0  0  0  0  0  0  0  0  0  0
    4.3210   -1.1220    1.5070 H   0  0  0  0  0  0  0  0  0  0  0  0
    5.1070   -1.8470    0.1160 H   0  0  0  0  0  0  0  0  0  0  0  0
    6.2160    0.6830    1.3960 H   0  0  0  0  0  0  0  0  0  0  0  0
    6.8560    0.0040   -0.1000 H   0  0  0  0  0  0  0  0  0  0  0  0
    6.3630    1.6960   -0.0460 H   0  0  0  0  0  0  0  0  0  0  0  0
    5.0860   -0.3370   -1.8950 H   0  0  0  0  0  0  0  0  0  0  0  0
    1.5090    2.8690    0.4500 H   0  0  0  0  0  0  0  0  0  0  0  0
   -0.7970    3.4940    0.3720 H   0  0  0  0  0  0  0  0  0  0  0  0
   -2.5930    4.7640   -0.5580 H   0  0  0  0  0  0  0  0  0  0  0  0
   -4.1950    4.8160    0.2430 H   0  0  0  0  0  0  0  0  0  0  0  0
   -2.7170    4.5790    1.2270 H   0  0  0  0  0  0  0  0  0  0  0  0
   -0.6090   -2.3360   -0.4260 H   0  0  0  0  0  0  0  0  0  0  0  0
   -4.3670   -2.8420    1.5920 H   0  0  0  0  0  0  0  0  0  0  0  0
   -3.2380   -1.5370    1.9730 H   0  0  0  0  0  0  0  0  0  0  0  0
   -2.6240   -3.1350    1.5310 H   0  0  0  0  0  0  0  0  0  0  0  0
  1 27  1  0
  1 28  1  0
  1 29  1  0
  2  1  1  6
  2  7  1  0
  2  3  1  0
  2 26  1  0
  3 30  1  0
  3  4  2  0
  4 31  1  0
  4  5  1  0
  5  6  2  0
  5 22  1  0
  6  7  1  0
  6  8  1  0
  8  9  2  0
  8 20  1  0
  9 25  1  0
  9 10  1  0
 10 15  1  0
 10 11  2  0
 11 19  1  0
 11 12  1  0
 12 13  1  0
 12 33  1  0
 12 32  1  0
 13 18  1  6
 13 17  1  0
 13 14  1  0
 14 15  1  0
 14 35  1  0
 14 34  1  0
 15 16  2  0
 17 37  1  0
 17 38  1  0
 17 36  1  0
 18 39  1  0
 19 20  2  0
 19 40  1  0
 20 21  1  0
 21 22  2  0
 21 41  1  0
 22 23  1  0
 23 24  1  0
 24 42  1  0
 24 43  1  0
 24 44  1  0
 25 45  1  0
 26 48  1  0
 26 46  1  0
 26 47  1  0
M  END
>  <id>  (844) 
957

>  <scaffolds>  (844) 
['c1ccccc1', 'C1=Cc2ccccc2OC1', 'c1ccc2ccccc2c1', 'O=C1CCCc2cc3ccccc3cc21', 'c1ccc2c(c1)CCCC2', 'O=C1CCCc2ccccc21']

>  <name>  (844) 
Vismione B

>  <formula>  (844) 
C21H22O5

>  <SMILES>  (844) 
CC1(C=CC2=C(O1)C3=C(C4=C(CC(CC4=O)(C)O)C=C3C=C2OC)O)C

>  <ChEMBL_id>  (844) 
SCHEMBL5024985

>  <ZINC_id>  (844) 


>  <PubChem_id>  (844) 
10247551

>  <DrugBank_id>  (844) 


>  <CAS_no>  (844) 
70322-87-1

>  <references>  (844) 
[{'journal': {'name': 'Journal of Chemical Ecology', 'id': 62}, 'title': 'Differential Sequestration of a Cytotoxic Vismione from the Host Plant Vismia baccifera by Periphoba arcaei and Pyrrhopyge thericles', 'year': 2015, 'start_page': None, 'volume': None, 'issue': None, 'doi': '10.1007/s10886-015-0614-6', 'isbn': '', 'despositor': {'code': 'BND', 'first_name': "Bakary N'tji", 'last_name': 'Diallo', 'id': 26}, 'refauthors_set': [{'author': {'first_name': 'Raudsepp-Hearne', 'initials': 'RC', 'last_name': 'Ciara', 'id': 1018}, 'first_author': True, 'id': 1598}], 'id': 499}]

>  <classifications>  (844) 
[{'classification': 'Naphthopyrans (Classyfire)', 'id': 1008}]

>  <molecular_mass>  (844) 
354.4

$$$$
SANC00958_minRM1.pdb
     RDKit          3D

 47 49  0  0  1  0  0  0  0  0999 V2000
    5.7160   -2.1180   -1.0070 C   0  0  0  0  0  0  0  0  0  0  0  0
    5.5030   -1.5120    0.3760 C   0  0  1  0  0  0  0  0  0  0  0  0
    6.4720   -0.3590    0.6130 C   0  0  0  0  0  0  0  0  0  0  0  0
    4.0920   -1.0370    0.5220 C   0  0  0  0  0  0  0  0  0  0  0  0
    3.5650   -0.1090   -0.2750 C   0  0  0  0  0  0  0  0  0  0  0  0
    2.1880    0.3460   -0.1230 C   0  0  0  0  0  0  0  0  0  0  0  0
    1.1220   -0.5410   -0.0870 C   0  0  0  0  0  0  0  0  0  0  0  0
   -0.2190   -0.0800    0.0520 C   0  0  0  0  0  0  0  0  0  0  0  0
   -1.3390   -0.9540    0.0950 C   0  0  0  0  0  0  0  0  0  0  0  0
   -2.6390   -0.4790    0.2290 C   0  0  0  0  0  0  0  0  0  0  0  0
   -2.8500    0.9180    0.3400 C   0  0  0  0  0  0  0  0  0  0  0  0
   -4.2390    1.4230    0.5250 C   0  0  0  0  0  0  0  0  0  0  0  0
   -5.2740    0.5050   -0.1400 C   0  0  2  0  0  0  0  0  0  0  0  0
   -5.1370   -0.9200    0.4090 C   0  0  0  0  0  0  0  0  0  0  0  0
   -3.7360   -1.4250    0.2720 C   0  0  0  0  0  0  0  0  0  0  0  0
   -3.4990   -2.6370    0.2020 O   0  0  0  0  0  0  0  0  0  0  0  0
   -5.1680    0.5260   -1.5250 O   0  0  0  0  0  0  0  0  0  0  0  0
   -1.7950    1.7800    0.3040 C   0  0  0  0  0  0  0  0  0  0  0  0
   -0.4590    1.3030    0.1570 C   0  0  0  0  0  0  0  0  0  0  0  0
    0.6140    2.2100    0.1150 C   0  0  0  0  0  0  0  0  0  0  0  0
    1.9030    1.7310   -0.0250 C   0  0  0  0  0  0  0  0  0  0  0  0
    3.0130    2.5120   -0.0800 O   0  0  0  0  0  0  0  0  0  0  0  0
    2.8430    3.9060   -0.0080 C   0  0  0  0  0  0  0  0  0  0  0  0
   -1.0560   -2.2590   -0.0050 O   0  0  0  0  0  0  0  0  0  0  0  0
    1.4340   -1.8420   -0.2030 O   0  0  0  0  0  0  0  0  0  0  0  0
    5.6100   -1.3810   -1.8160 H   0  0  0  0  0  0  0  0  0  0  0  0
    6.7190   -2.5550   -1.1110 H   0  0  0  0  0  0  0  0  0  0  0  0
    4.9940   -2.9210   -1.2150 H   0  0  0  0  0  0  0  0  0  0  0  0
    5.7020   -2.3060    1.1430 H   0  0  0  0  0  0  0  0  0  0  0  0
    6.3680    0.4430   -0.1320 H   0  0  0  0  0  0  0  0  0  0  0  0
    7.5190   -0.6900    0.5740 H   0  0  0  0  0  0  0  0  0  0  0  0
    6.3200    0.1050    1.5980 H   0  0  0  0  0  0  0  0  0  0  0  0
    3.5090   -1.4960    1.3270 H   0  0  0  0  0  0  0  0  0  0  0  0
    4.1290    0.3760   -1.0800 H   0  0  0  0  0  0  0  0  0  0  0  0
   -4.4510    1.5110    1.6130 H   0  0  0  0  0  0  0  0  0  0  0  0
   -4.3500    2.4560    0.1310 H   0  0  0  0  0  0  0  0  0  0  0  0
   -6.3130    0.8890    0.0370 H   0  0  0  0  0  0  0  0  0  0  0  0
   -5.8550   -1.6030   -0.0950 H   0  0  0  0  0  0  0  0  0  0  0  0
   -5.4230   -0.9520    1.4820 H   0  0  0  0  0  0  0  0  0  0  0  0
   -4.2750    0.2650   -1.7770 H   0  0  0  0  0  0  0  0  0  0  0  0
   -1.9540    2.8590    0.3890 H   0  0  0  0  0  0  0  0  0  0  0  0
    0.3910    3.2750    0.1970 H   0  0  0  0  0  0  0  0  0  0  0  0
    3.8730    4.2890   -0.0840 H   0  0  0  0  0  0  0  0  0  0  0  0
    2.2500    4.3170   -0.8420 H   0  0  0  0  0  0  0  0  0  0  0  0
    2.4110    4.2430    0.9490 H   0  0  0  0  0  0  0  0  0  0  0  0
   -1.8800   -2.8260    0.0470 H   0  0  0  0  0  0  0  0  0  0  0  0
    0.6340   -2.4010   -0.2030 H   0  0  0  0  0  0  0  0  0  0  0  0
  1 26  1  0
  1 28  1  0
  1 27  1  0
  1  2  1  0
  2  4  1  0
  2  3  1  0
  2 29  1  1
  3 30  1  0
  3 31  1  0
  3 32  1  0
  4  5  2  0
  4 33  1  0
  5 34  1  0
  5  6  1  0
  6  7  2  0
  6 21  1  0
  7 25  1  0
  7  8  1  0
  8  9  2  0
  8 19  1  0
  9 24  1  0
  9 10  1  0
 10 15  1  0
 10 11  2  0
 11 18  1  0
 11 12  1  0
 12 13  1  0
 12 36  1  0
 12 35  1  0
 13 17  1  0
 13 37  1  6
 13 14  1  0
 14 38  1  0
 14 15  1  0
 14 39  1  0
 15 16  2  0
 17 40  1  0
 18 19  2  0
 18 41  1  0
 19 20  1  0
 20 21  2  0
 20 42  1  0
 21 22  1  0
 22 23  1  0
 23 44  1  0
 23 43  1  0
 23 45  1  0
 24 46  1  0
 25 47  1  0
M  END
>  <id>  (845) 
958

>  <scaffolds>  (845) 
['c1ccccc1', 'c1ccc2ccccc2c1', 'O=C1CCCc2cc3ccccc3cc21', 'c1ccc2c(c1)CCCC2', 'O=C1CCCc2ccccc21']

>  <name>  (845) 
Deacetylvismione A

>  <formula>  (845) 
C21H24O5

>  <SMILES>  (845) 
CC(C)/C=C/C1=C(C2=C(C3=C(CC(CC3=O)O)C=C2C=C1OC)O)O

>  <ChEMBL_id>  (845) 
SCHEMBL16227008

>  <ZINC_id>  (845) 


>  <PubChem_id>  (845) 
6440479

>  <DrugBank_id>  (845) 


>  <CAS_no>  (845) 
73211-35-5

>  <references>  (845) 
[{'journal': {'name': 'Journal of Chemical Ecology', 'id': 62}, 'title': 'Differential Sequestration of a Cytotoxic Vismione from the Host Plant Vismia baccifera by Periphoba arcaei and Pyrrhopyge thericles', 'year': 2015, 'start_page': None, 'volume': None, 'issue': None, 'doi': '10.1007/s10886-015-0614-6', 'isbn': '', 'despositor': {'code': 'BND', 'first_name': "Bakary N'tji", 'last_name': 'Diallo', 'id': 26}, 'refauthors_set': [{'author': {'first_name': 'Raudsepp-Hearne', 'initials': 'RC', 'last_name': 'Ciara', 'id': 1018}, 'first_author': True, 'id': 1598}], 'id': 499}]

>  <classifications>  (845) 
[{'classification': 'Anthracenes (Classyfire)', 'id': 980}]

>  <molecular_mass>  (845) 
342.4

$$$$
SANC00959_minRM1.pdb
     RDKit          3D

 47 49  0  0  1  0  0  0  0  0999 V2000
   -5.7090    0.2410    2.3010 C   0  0  0  0  0  0  0  0  0  0  0  0
   -5.3350   -0.4240    1.0230 C   0  0  0  0  0  0  0  0  0  0  0  0
   -5.3120    0.2500   -0.1290 C   0  0  0  0  0  0  0  0  0  0  0  0
   -4.9540   -0.3720   -1.4370 C   0  0  0  0  0  0  0  0  0  0  0  0
   -3.7440   -1.0950   -1.3800 O   0  0  0  0  0  0  0  0  0  0  0  0
   -2.6080   -0.4270   -1.0460 C   0  0  0  0  0  0  0  0  0  0  0  0
   -2.5010    0.9720   -1.0030 C   0  0  0  0  0  0  0  0  0  0  0  0
   -1.2710    1.5210   -0.6780 C   0  0  0  0  0  0  0  0  0  0  0  0
   -0.1430    0.7040   -0.3940 C   0  0  0  0  0  0  0  0  0  0  0  0
   -0.2870   -0.6970   -0.4570 C   0  0  0  0  0  0  0  0  0  0  0  0
   -1.5290   -1.2600   -0.7800 C   0  0  0  0  0  0  0  0  0  0  0  0
    0.8380   -1.5330   -0.1850 C   0  0  0  0  0  0  0  0  0  0  0  0
    2.0490   -0.9990    0.1400 C   0  0  0  0  0  0  0  0  0  0  0  0
    3.2080   -1.8890    0.4390 C   0  0  0  0  0  0  0  0  0  0  0  0
    4.5530   -1.2030    0.1530 C   0  0  1  0  0  0  0  0  0  0  0  0
    4.6360    0.1180    0.9310 C   0  0  0  0  0  0  0  0  0  0  0  0
    3.4840    1.0060    0.5760 C   0  0  0  0  0  0  0  0  0  0  0  0
    3.5990    2.2370    0.6030 O   0  0  0  0  0  0  0  0  0  0  0  0
    2.2140    0.4070    0.2270 C   0  0  0  0  0  0  0  0  0  0  0  0
    1.1320    1.2300   -0.0530 C   0  0  0  0  0  0  0  0  0  0  0  0
    1.2090    2.5680   -0.0120 O   0  0  0  0  0  0  0  0  0  0  0  0
    5.7160   -2.1180    0.5540 C   0  0  0  0  0  0  0  0  0  0  0  0
    4.5630   -0.9690   -1.2220 O   0  0  0  0  0  0  0  0  0  0  0  0
   -1.2330    2.8640   -0.6510 O   0  0  0  0  0  0  0  0  0  0  0  0
   -4.9830   -1.8640    1.1320 C   0  0  0  0  0  0  0  0  0  0  0  0
   -5.8690    1.3250    2.2090 H   0  0  0  0  0  0  0  0  0  0  0  0
   -4.9300    0.1030    3.0670 H   0  0  0  0  0  0  0  0  0  0  0  0
   -6.6400   -0.1810    2.7110 H   0  0  0  0  0  0  0  0  0  0  0  0
   -5.5870    1.3080   -0.1710 H   0  0  0  0  0  0  0  0  0  0  0  0
   -5.6810   -1.1600   -1.7360 H   0  0  0  0  0  0  0  0  0  0  0  0
   -4.9440    0.3680   -2.2690 H   0  0  0  0  0  0  0  0  0  0  0  0
   -3.3420    1.6350   -1.2160 H   0  0  0  0  0  0  0  0  0  0  0  0
   -1.6440   -2.3460   -0.8300 H   0  0  0  0  0  0  0  0  0  0  0  0
    0.7030   -2.6160   -0.2540 H   0  0  0  0  0  0  0  0  0  0  0  0
    3.1590   -2.1990    1.5050 H   0  0  0  0  0  0  0  0  0  0  0  0
    3.1410   -2.8360   -0.1400 H   0  0  0  0  0  0  0  0  0  0  0  0
    5.6050    0.6330    0.7590 H   0  0  0  0  0  0  0  0  0  0  0  0
    4.6130   -0.0700    2.0260 H   0  0  0  0  0  0  0  0  0  0  0  0
    2.1340    2.8780    0.2100 H   0  0  0  0  0  0  0  0  0  0  0  0
    5.7120   -3.0550   -0.0210 H   0  0  0  0  0  0  0  0  0  0  0  0
    5.6780   -2.3930    1.6160 H   0  0  0  0  0  0  0  0  0  0  0  0
    6.6960   -1.6500    0.3840 H   0  0  0  0  0  0  0  0  0  0  0  0
    5.3980   -0.5500   -1.4500 H   0  0  0  0  0  0  0  0  0  0  0  0
   -0.3400    3.1880   -0.4310 H   0  0  0  0  0  0  0  0  0  0  0  0
   -5.4030   -2.4670    0.3130 H   0  0  0  0  0  0  0  0  0  0  0  0
   -5.3350   -2.3230    2.0670 H   0  0  0  0  0  0  0  0  0  0  0  0
   -3.8900   -2.0060    1.1020 H   0  0  0  0  0  0  0  0  0  0  0  0
  1  2  1  0
  1 26  1  0
  1 28  1  0
  1 27  1  0
  2  3  2  0
  2 25  1  0
  3  4  1  0
  3 29  1  0
  4 31  1  0
  4 30  1  0
  4  5  1  0
  5  6  1  0
  6  7  2  0
  6 11  1  0
  7 32  1  0
  7  8  1  0
  8 24  1  0
  8  9  2  0
  9 10  1  0
  9 20  1  0
 10 11  2  0
 10 12  1  0
 11 33  1  0
 12 34  1  0
 12 13  2  0
 13 19  1  0
 13 14  1  0
 14 36  1  0
 14 15  1  0
 14 35  1  0
 15 23  1  6
 15 22  1  0
 15 16  1  0
 16 17  1  0
 16 37  1  0
 16 38  1  0
 17 19  1  0
 17 18  2  0
 19 20  2  0
 20 21  1  0
 21 39  1  0
 22 40  1  0
 22 42  1  0
 22 41  1  0
 23 43  1  0
 24 44  1  0
 25 45  1  0
 25 47  1  0
 25 46  1  0
M  END
>  <id>  (846) 
959

>  <scaffolds>  (846) 
['c1ccccc1', 'c1ccc2ccccc2c1', 'O=C1CCCc2cc3ccccc3cc21', 'c1ccc2c(c1)CCCC2', 'O=C1CCCc2ccccc21']

>  <name>  (846) 
Deacetylvismione H

>  <formula>  (846) 
C20H22O5

>  <SMILES>  (846) 
CC(=CCOC1=CC(=C2C(=C1)C=C3CC(CC(=O)C3=C2O)(C)O)O)C

>  <ChEMBL_id>  (846) 
CHEMBL467619

>  <ZINC_id>  (846) 


>  <PubChem_id>  (846) 
13940837

>  <DrugBank_id>  (846) 


>  <CAS_no>  (846) 
1415764-45-2

>  <references>  (846) 
[{'journal': {'name': 'Journal of Chemical Ecology', 'id': 62}, 'title': 'Differential Sequestration of a Cytotoxic Vismione from the Host Plant Vismia baccifera by Periphoba arcaei and Pyrrhopyge thericles', 'year': 2015, 'start_page': None, 'volume': None, 'issue': None, 'doi': '10.1007/s10886-015-0614-6', 'isbn': '', 'despositor': {'code': 'BND', 'first_name': "Bakary N'tji", 'last_name': 'Diallo', 'id': 26}, 'refauthors_set': [{'author': {'first_name': 'Raudsepp-Hearne', 'initials': 'RC', 'last_name': 'Ciara', 'id': 1018}, 'first_author': True, 'id': 1598}], 'id': 499}]

>  <classifications>  (846) 
[{'classification': 'Anthracenes (Classyfire)', 'id': 980}]

>  <molecular_mass>  (846) 
342.4

$$$$
SANC00960_minRM1.pdb
     RDKit          3D

104107  0  0  1  0  0  0  0  0999 V2000
    4.6040    5.6320   -0.7800 C   0  0  0  0  0  0  0  0  0  0  0  0
    4.4410    4.4400    0.1500 C   0  0  0  0  0  0  0  0  0  0  0  0
    5.5950    3.4490   -0.0110 C   0  0  1  0  0  0  0  0  0  0  0  0
    6.8430    3.9500    0.7060 C   0  0  0  0  0  0  0  0  0  0  0  0
    5.2310    2.0600    0.5540 C   0  0  2  0  0  0  0  0  0  0  0  0
    4.0740    1.4550   -0.2460 C   0  0  0  0  0  0  0  0  0  0  0  0
    3.8780    1.5860   -1.4320 O   0  0  0  0  0  0  0  0  0  0  0  0
    3.3020    0.7140    0.5790 O   0  0  0  0  0  0  0  0  0  0  0  0
    2.1510   -0.0100    0.2400 C   0  0  1  0  0  0  0  0  0  0  0  0
    1.0400    0.8680   -0.3910 C   0  0  2  0  0  0  0  0  0  0  0  0
   -0.2700    0.0870   -0.7510 C   0  0  1  0  0  0  0  0  0  0  0  0
    0.0750   -1.2850   -1.2820 C   0  0  0  0  0  0  0  0  0  0  0  0
   -0.7730   -2.2920   -1.4380 C   0  0  0  0  0  0  0  0  0  0  0  0
    1.5000   -1.4580   -1.7210 C   0  0  1  0  0  0  0  0  0  0  0  0
    2.3920   -1.3540   -0.4580 C   0  0  1  0  0  0  0  0  0  0  0  0
    3.7890   -1.7190   -1.0050 C   0  0  2  0  0  0  0  0  0  0  0  0
    3.4980   -2.8500   -2.0180 C   0  0  0  0  0  0  0  0  0  0  0  0
    2.0310   -2.7530   -2.3560 C   0  0  0  0  0  0  0  0  0  0  0  0
    1.4310   -3.5010   -3.0920 O   0  0  0  0  0  0  0  0  0  0  0  0
    4.7760   -2.1450    0.0080 C   0  0  0  0  0  0  0  0  0  0  0  0
    5.8340   -1.3980    0.4700 C   0  0  0  0  0  0  0  0  0  0  0  0
    6.5800   -2.1170    1.3620 O   0  0  0  0  0  0  0  0  0  0  0  0
    5.9920   -3.3500    1.4660 C   0  0  0  0  0  0  0  0  0  0  0  0
    4.8850   -3.4240    0.6600 C   0  0  0  0  0  0  0  0  0  0  0  0
    1.9600   -2.4560    0.5230 C   0  0  0  0  0  0  0  0  0  0  0  0
    1.8760   -0.5060   -2.6720 O   0  0  0  0  0  0  0  0  0  0  0  0
   -1.4230    0.2110    0.3540 C   0  0  2  0  0  0  0  0  0  0  0  0
   -1.5240   -1.0910    1.2050 C   0  0  2  0  0  0  0  0  0  0  0  0
   -2.7990   -1.9270    1.0580 C   0  0  0  0  0  0  0  0  0  0  0  0
   -4.0110   -1.2160    1.5740 C   0  0  0  0  0  0  0  0  0  0  0  0
   -4.5310   -1.3580    2.6570 O   0  0  0  0  0  0  0  0  0  0  0  0
   -4.6600   -0.4080    0.6670 O   0  0  0  0  0  0  0  0  0  0  0  0
   -4.0520    0.8430    0.4920 C   0  0  2  0  0  0  0  0  0  0  0  0
   -2.7460    0.7170   -0.3420 C   0  0  2  0  0  0  0  0  0  0  0  0
   -3.0700    0.1400   -1.7390 C   0  0  0  0  0  0  0  0  0  0  0  0
   -3.9750   -1.0510   -1.9280 C   0  0  0  0  0  0  0  0  0  0  0  0
   -3.6620   -2.1080   -2.4580 O   0  0  0  0  0  0  0  0  0  0  0  0
   -5.2700   -0.8430   -1.5990 O   0  0  0  0  0  0  0  0  0  0  0  0
   -6.1530   -1.9350   -1.7300 C   0  0  0  0  0  0  0  0  0  0  0  0
   -3.9450    1.5480    1.8480 C   0  0  0  0  0  0  0  0  0  0  0  0
   -5.0740    1.7040   -0.3240 C   0  0  0  0  0  0  0  0  0  0  0  0
   -6.3230    1.4630    0.2860 O   0  0  0  0  0  0  0  0  0  0  0  0
   -7.4130    2.0450   -0.2780 C   0  0  0  0  0  0  0  0  0  0  0  0
   -7.2960    2.7810   -1.2410 O   0  0  0  0  0  0  0  0  0  0  0  0
   -8.6680    1.6670    0.4370 C   0  0  0  0  0  0  0  0  0  0  0  0
   -1.4680   -0.7220    2.5750 O   0  0  0  0  0  0  0  0  0  0  0  0
   -1.0600   -1.6330    3.4980 C   0  0  0  0  0  0  0  0  0  0  0  0
   -0.6620   -2.7320    3.1610 O   0  0  0  0  0  0  0  0  0  0  0  0
   -1.1710   -1.0890    4.8850 C   0  0  0  0  0  0  0  0  0  0  0  0
   -1.0130    1.3640    1.2950 C   0  0  0  0  0  0  0  0  0  0  0  0
    1.5850    1.4340   -1.5570 O   0  0  0  0  0  0  0  0  0  0  0  0
    1.0790    2.5800   -2.0640 C   0  0  0  0  0  0  0  0  0  0  0  0
    0.1030    3.1120   -1.5660 O   0  0  0  0  0  0  0  0  0  0  0  0
    4.9830    2.0740    1.9160 O   0  0  0  0  0  0  0  0  0  0  0  0
    4.6500    5.3350   -1.8380 H   0  0  0  0  0  0  0  0  0  0  0  0
    5.5140    6.2120   -0.5730 H   0  0  0  0  0  0  0  0  0  0  0  0
    3.7620    6.3350   -0.6890 H   0  0  0  0  0  0  0  0  0  0  0  0
    4.3600    4.7940    1.2000 H   0  0  0  0  0  0  0  0  0  0  0  0
    3.4660    3.9480   -0.0560 H   0  0  0  0  0  0  0  0  0  0  0  0
    5.8250    3.3190   -1.1000 H   0  0  0  0  0  0  0  0  0  0  0  0
    7.1850    4.9180    0.3160 H   0  0  0  0  0  0  0  0  0  0  0  0
    7.6910    3.2570    0.5940 H   0  0  0  0  0  0  0  0  0  0  0  0
    6.6870    4.0800    1.7870 H   0  0  0  0  0  0  0  0  0  0  0  0
    6.0990    1.3450    0.4600 H   0  0  0  0  0  0  0  0  0  0  0  0
    1.8090   -0.2020    1.3020 H   0  0  0  0  0  0  0  0  0  0  0  0
    0.8410    1.7020    0.3400 H   0  0  0  0  0  0  0  0  0  0  0  0
   -0.6770    0.6070   -1.6660 H   0  0  0  0  0  0  0  0  0  0  0  0
   -1.8150   -2.2740   -1.1490 H   0  0  0  0  0  0  0  0  0  0  0  0
   -0.5370   -3.2590   -1.8720 H   0  0  0  0  0  0  0  0  0  0  0  0
    4.2070   -0.8440   -1.5640 H   0  0  0  0  0  0  0  0  0  0  0  0
    4.1090   -2.7380   -2.9380 H   0  0  0  0  0  0  0  0  0  0  0  0
    3.7510   -3.8630   -1.6500 H   0  0  0  0  0  0  0  0  0  0  0  0
    6.1800   -0.3850    0.2880 H   0  0  0  0  0  0  0  0  0  0  0  0
    6.4780   -4.0410    2.1430 H   0  0  0  0  0  0  0  0  0  0  0  0
    4.2310   -4.2770    0.5440 H   0  0  0  0  0  0  0  0  0  0  0  0
    2.5850   -2.4650    1.4290 H   0  0  0  0  0  0  0  0  0  0  0  0
    2.0130   -3.4680    0.0970 H   0  0  0  0  0  0  0  0  0  0  0  0
    0.9180   -2.3460    0.8710 H   0  0  0  0  0  0  0  0  0  0  0  0
    1.1620   -0.4570   -3.3170 H   0  0  0  0  0  0  0  0  0  0  0  0
   -0.6310   -1.7440    0.9710 H   0  0  0  0  0  0  0  0  0  0  0  0
   -2.9600   -2.2420    0.0060 H   0  0  0  0  0  0  0  0  0  0  0  0
   -2.6850   -2.8940    1.6010 H   0  0  0  0  0  0  0  0  0  0  0  0
   -2.4910    1.7930   -0.5830 H   0  0  0  0  0  0  0  0  0  0  0  0
   -3.5450    0.9570   -2.3410 H   0  0  0  0  0  0  0  0  0  0  0  0
   -2.1290   -0.0700   -2.2980 H   0  0  0  0  0  0  0  0  0  0  0  0
   -6.2970   -2.2330   -2.7820 H   0  0  0  0  0  0  0  0  0  0  0  0
   -5.8330   -2.8190   -1.1550 H   0  0  0  0  0  0  0  0  0  0  0  0
   -7.0990   -1.5550   -1.3160 H   0  0  0  0  0  0  0  0  0  0  0  0
   -4.9160    1.5540    2.3710 H   0  0  0  0  0  0  0  0  0  0  0  0
   -3.2460    1.0700    2.5500 H   0  0  0  0  0  0  0  0  0  0  0  0
   -3.6380    2.6000    1.7490 H   0  0  0  0  0  0  0  0  0  0  0  0
   -4.8060    2.7850   -0.2680 H   0  0  0  0  0  0  0  0  0  0  0  0
   -5.1000    1.4830   -1.4140 H   0  0  0  0  0  0  0  0  0  0  0  0
   -8.6100    1.9010    1.5110 H   0  0  0  0  0  0  0  0  0  0  0  0
   -9.5380    2.1980    0.0230 H   0  0  0  0  0  0  0  0  0  0  0  0
   -8.8610    0.5860    0.3530 H   0  0  0  0  0  0  0  0  0  0  0  0
   -0.4310   -1.5580    5.5510 H   0  0  0  0  0  0  0  0  0  0  0  0
   -1.0250   -0.0000    4.9380 H   0  0  0  0  0  0  0  0  0  0  0  0
   -2.1710   -1.3040    5.2950 H   0  0  0  0  0  0  0  0  0  0  0  0
   -0.0480    1.1880    1.8000 H   0  0  0  0  0  0  0  0  0  0  0  0
   -1.6970    1.5600    2.1310 H   0  0  0  0  0  0  0  0  0  0  0  0
   -0.9150    2.3260    0.7630 H   0  0  0  0  0  0  0  0  0  0  0  0
    1.6910    2.8780   -2.9320 H   0  0  0  0  0  0  0  0  0  0  0  0
    4.2020    2.6110    2.0880 H   0  0  0  0  0  0  0  0  0  0  0  0
  1 55  1  0
  1 57  1  0
  1 56  1  0
  1  2  1  0
  2 59  1  0
  2  3  1  0
  2 58  1  0
  3 60  1  6
  3  5  1  0
  3  4  1  0
  4 61  1  0
  4 62  1  0
  4 63  1  0
  5  6  1  0
  5 64  1  1
  5 54  1  0
  6  7  2  0
  6  8  1  0
  8  9  1  0
  9 15  1  0
  9 10  1  0
  9 65  1  1
 10 51  1  0
 10 11  1  0
 10 66  1  1
 11 67  1  6
 11 12  1  0
 11 27  1  0
 12 14  1  0
 12 13  2  0
 13 69  1  0
 13 68  1  0
 14 26  1  6
 14 18  1  0
 14 15  1  0
 15 16  1  0
 15 25  1  1
 16 17  1  0
 16 70  1  6
 16 20  1  0
 17 71  1  0
 17 18  1  0
 17 72  1  0
 18 19  2  0
 20 21  2  0
 20 24  1  0
 21 73  1  0
 21 22  1  0
 22 23  1  0
 23 24  2  0
 23 74  1  0
 24 75  1  0
 25 77  1  0
 25 78  1  0
 25 76  1  0
 26 79  1  0
 27 34  1  0
 27 28  1  0
 27 50  1  1
 28 80  1  6
 28 29  1  0
 28 46  1  0
 29 81  1  0
 29 30  1  0
 29 82  1  0
 30 32  1  0
 30 31  2  0
 32 33  1  0
 33 34  1  0
 33 41  1  6
 33 40  1  0
 34 35  1  0
 34 83  1  6
 35 84  1  0
 35 85  1  0
 35 36  1  0
 36 37  2  0
 36 38  1  0
 38 39  1  0
 39 86  1  0
 39 88  1  0
 39 87  1  0
 40 91  1  0
 40 89  1  0
 40 90  1  0
 41 93  1  0
 41 92  1  0
 41 42  1  0
 42 43  1  0
 43 44  2  0
 43 45  1  0
 45 95  1  0
 45 96  1  0
 45 94  1  0
 46 47  1  0
 47 48  2  0
 47 49  1  0
 49 98  1  0
 49 99  1  0
 49 97  1  0
 50102  1  0
 50100  1  0
 50101  1  0
 51 52  1  0
 52103  1  0
 52 53  2  0
 54104  1  0
M  END
>  <id>  (847) 
960

>  <scaffolds>  (847) 
['c1ccoc1', 'C1CCCCC1', 'C=C1C(C2CCOC(=O)CC2)CCC2C1C(=O)CC2c1ccoc1']

>  <name>  (847) 
Prieurianin

>  <formula>  (847) 
C38H50O16

>  <SMILES>  (847) 
C[C@@]12[C@@H](OC([C@@H]([C@@H](CC)C)O)=O)[C@H](OC=O)[C@@](C(=C)[C@@]1(O)C(=O)C[C@]2(C=3C=COC3)[H])([C@]4(C)[C@@H](CC(OC)=O)[C@](COC(C)=O)(C)OC(=O)C[C@@H]4OC(C)=O)[H]

>  <ChEMBL_id>  (847) 
CHEMBL1989748

>  <ZINC_id>  (847) 


>  <PubChem_id>  (847) 
329486

>  <DrugBank_id>  (847) 


>  <CAS_no>  (847) 
57672-91-0

>  <references>  (847) 
[{'journal': {'name': 'Phytochemistry', 'id': 10}, 'title': 'Limonoids from Turraea floribunda (Meliaceae)', 'year': 2004, 'start_page': 2031, 'volume': 65, 'issue': None, 'doi': '10.1016/j.phytochem.2004.06.019', 'isbn': '', 'despositor': {'code': 'AMU', 'first_name': 'Arnold', 'last_name': 'Amusengeri', 'id': 25}, 'refauthors_set': [{'author': {'first_name': 'Kathryn', 'initials': 'K', 'last_name': 'McFarland', 'id': 936}, 'first_author': True, 'id': 1519}, {'author': {'first_name': 'Dulcie', 'initials': 'DA', 'last_name': 'Mulholland', 'id': 525}, 'first_author': None, 'id': 1520}, {'author': {'first_name': 'Leigh-Anne', 'initials': 'L', 'last_name': 'Fraser', 'id': 937}, 'first_author': None, 'id': 1521}], 'id': 429}]

>  <classifications>  (847) 
[{'classification': 'Phenol lipids', 'id': 899}, {'classification': 'Phenol lipids (Classyfire)', 'id': 951}]

>  <molecular_mass>  (847) 
762.8

$$$$
SANC00961_minRM1.pdb
     RDKit          3D

 24 26  0  0  0  0  0  0  0  0999 V2000
    2.3130    2.7470    0.0000 C   0  0  0  0  0  0  0  0  0  0  0  0
    0.9660    2.3300   -0.0010 O   0  0  0  0  0  0  0  0  0  0  0  0
    0.7270    0.9990   -0.0000 C   0  0  0  0  0  0  0  0  0  0  0  0
   -0.6460    0.6250   -0.0000 C   0  0  0  0  0  0  0  0  0  0  0  0
   -1.7060    1.5980   -0.0010 C   0  0  0  0  0  0  0  0  0  0  0  0
   -2.9830    1.1840   -0.0000 C   0  0  0  0  0  0  0  0  0  0  0  0
   -3.3020   -0.2320    0.0000 C   0  0  0  0  0  0  0  0  0  0  0  0
   -4.3980   -0.7570    0.0000 O   0  0  0  0  0  0  0  0  0  0  0  0
   -2.2720   -1.1600    0.0010 O   0  0  0  0  0  0  0  0  0  0  0  0
   -0.9880   -0.7310    0.0000 C   0  0  0  0  0  0  0  0  0  0  0  0
   -0.0450   -1.7850    0.0010 C   0  0  0  0  0  0  0  0  0  0  0  0
    1.2590   -1.3720    0.0000 C   0  0  0  0  0  0  0  0  0  0  0  0
    1.6540   -0.0150   -0.0000 C   0  0  0  0  0  0  0  0  0  0  0  0
    3.0290    0.0540   -0.0010 O   0  0  0  0  0  0  0  0  0  0  0  0
    3.4980   -1.2900   -0.0010 C   0  0  0  0  0  0  0  0  0  0  0  0
    2.3700   -2.1630    0.0000 O   0  0  0  0  0  0  0  0  0  0  0  0
    2.8620    2.4270    0.9010 H   0  0  0  0  0  0  0  0  0  0  0  0
    2.8630    2.4270   -0.8990 H   0  0  0  0  0  0  0  0  0  0  0  0
    2.2340    3.8450    0.0010 H   0  0  0  0  0  0  0  0  0  0  0  0
   -1.4580    2.6660   -0.0010 H   0  0  0  0  0  0  0  0  0  0  0  0
   -3.8350    1.8700   -0.0010 H   0  0  0  0  0  0  0  0  0  0  0  0
   -0.3440   -2.8340    0.0010 H   0  0  0  0  0  0  0  0  0  0  0  0
    4.1070   -1.4740    0.9120 H   0  0  0  0  0  0  0  0  0  0  0  0
    4.1060   -1.4750   -0.9140 H   0  0  0  0  0  0  0  0  0  0  0  0
  1 18  1  0
  1  2  1  0
  1 19  1  0
  1 17  1  0
  2  3  1  0
  3 13  2  0
  3  4  1  0
  4  5  1  0
  4 10  2  0
  5 20  1  0
  5  6  2  0
  6 21  1  0
  6  7  1  0
  7  8  2  0
  7  9  1  0
  9 10  1  0
 10 11  1  0
 11 12  2  0
 11 22  1  0
 12 13  1  0
 12 16  1  0
 13 14  1  0
 14 15  1  0
 15 24  1  0
 15 16  1  0
 15 23  1  0
M  END
>  <id>  (848) 
961

>  <scaffolds>  (848) 
['c1ccccc1', 'O=c1ccc2ccccc2o1', 'O=c1ccc2cc3c(cc2o1)OCO3', 'c1ccc2c(c1)OCO2']

>  <name>  (848) 
 5-Methoxy-6,7-(methylenedioxy)coumarin

>  <formula>  (848) 
C11H8O5

>  <SMILES>  (848) 
COC1=C2C=CC(=O)OC2=CC3=C1OCO3

>  <ChEMBL_id>  (848) 
CHEMBL596222

>  <ZINC_id>  (848) 


>  <PubChem_id>  (848) 
11310556

>  <DrugBank_id>  (848) 


>  <CAS_no>  (848) 
22357-13-7

>  <references>  (848) 
[{'journal': {'name': 'Phytochemistry', 'id': 10}, 'title': 'Bitter guaianolides from Eriocephalus punctulatus', 'year': 1992, 'start_page': None, 'volume': None, 'issue': None, 'doi': '10.1016/0031-9422(92)80391-Q', 'isbn': '', 'despositor': {'code': 'BND', 'first_name': "Bakary N'tji", 'last_name': 'Diallo', 'id': 26}, 'refauthors_set': [{'author': {'first_name': 'Davies-Coleman', 'initials': 'DM', 'last_name': 'Michael', 'id': 1020}, 'first_author': True, 'id': 1600}], 'id': 501}]

>  <classifications>  (848) 
[{'classification': 'Coumarins', 'id': 916}, {'classification': 'Coumarins and derivatives (Classyfire)', 'id': 965}]

>  <molecular_mass>  (848) 
220.18

$$$$
SANC00962_minRM1.pdb
     RDKit          3D

 44 46  0  0  1  0  0  0  0  0999 V2000
   -3.5570    1.9460   -0.2300 C   0  0  0  0  0  0  0  0  0  0  0  0
   -3.1480    0.6130    0.2460 C   0  0  0  0  0  0  0  0  0  0  0  0
   -3.9340   -0.4590    0.3740 C   0  0  0  0  0  0  0  0  0  0  0  0
   -3.1810   -1.6320    0.9070 C   0  0  0  0  0  0  0  0  0  0  0  0
   -1.6880   -1.2250    0.8090 C   0  0  2  0  0  0  0  0  0  0  0  0
   -1.7510    0.3210    0.7210 C   0  0  1  0  0  0  0  0  0  0  0  0
   -0.6830    0.9630   -0.1500 C   0  0  2  0  0  0  0  0  0  0  0  0
    0.7600    0.5400    0.2500 C   0  0  1  0  0  0  0  0  0  0  0  0
    1.1980   -0.5980   -0.6720 C   0  0  2  0  0  0  0  0  0  0  0  0
    0.5540   -1.9240   -0.2680 C   0  0  0  0  0  0  0  0  0  0  0  0
   -0.9900   -1.9940   -0.3410 C   0  0  2  0  0  0  0  0  0  0  0  0
   -1.5270   -1.6420   -1.7290 C   0  0  0  0  0  0  0  0  0  0  0  0
   -1.3040   -3.3630   -0.2240 O   0  0  0  0  0  0  0  0  0  0  0  0
    2.5970   -0.7500   -0.7480 O   0  0  0  0  0  0  0  0  0  0  0  0
    3.3380   -1.1180    0.3280 C   0  0  0  0  0  0  0  0  0  0  0  0
    2.8690   -1.1520    1.4500 O   0  0  0  0  0  0  0  0  0  0  0  0
    4.7480   -1.4200   -0.0680 C   0  0  0  0  0  0  0  0  0  0  0  0
    1.5130    1.8250    0.1300 C   0  0  0  0  0  0  0  0  0  0  0  0
    2.8090    2.0920    0.1310 C   0  0  0  0  0  0  0  0  0  0  0  0
    0.4980    2.8980    0.0800 C   0  0  0  0  0  0  0  0  0  0  0  0
    0.6120    4.1030    0.0970 O   0  0  0  0  0  0  0  0  0  0  0  0
   -0.7620    2.3710    0.0230 O   0  0  0  0  0  0  0  0  0  0  0  0
   -4.6430    2.0190   -0.3910 H   0  0  0  0  0  0  0  0  0  0  0  0
   -3.0770    2.2020   -1.1870 H   0  0  0  0  0  0  0  0  0  0  0  0
   -3.2850    2.7360    0.4870 H   0  0  0  0  0  0  0  0  0  0  0  0
   -4.9940   -0.5280    0.1450 H   0  0  0  0  0  0  0  0  0  0  0  0
   -3.4720   -1.8280    1.9600 H   0  0  0  0  0  0  0  0  0  0  0  0
   -3.4490   -2.5630    0.3710 H   0  0  0  0  0  0  0  0  0  0  0  0
   -1.1610   -1.4980    1.7580 H   0  0  0  0  0  0  0  0  0  0  0  0
   -1.6620    0.7390    1.7600 H   0  0  0  0  0  0  0  0  0  0  0  0
   -0.8930    0.7840   -1.2390 H   0  0  0  0  0  0  0  0  0  0  0  0
    0.7970    0.2150    1.3210 H   0  0  0  0  0  0  0  0  0  0  0  0
    0.9940   -0.3530   -1.7490 H   0  0  0  0  0  0  0  0  0  0  0  0
    0.8700   -2.2240    0.7540 H   0  0  0  0  0  0  0  0  0  0  0  0
    0.9720   -2.7210   -0.9250 H   0  0  0  0  0  0  0  0  0  0  0  0
   -2.6080   -1.8350   -1.8100 H   0  0  0  0  0  0  0  0  0  0  0  0
   -1.3860   -0.5870   -1.9990 H   0  0  0  0  0  0  0  0  0  0  0  0
   -1.0430   -2.2400   -2.5160 H   0  0  0  0  0  0  0  0  0  0  0  0
   -1.0880   -3.6610    0.6650 H   0  0  0  0  0  0  0  0  0  0  0  0
    5.2300   -0.5540   -0.5470 H   0  0  0  0  0  0  0  0  0  0  0  0
    4.7930   -2.2510   -0.7880 H   0  0  0  0  0  0  0  0  0  0  0  0
    5.3560   -1.7010    0.8040 H   0  0  0  0  0  0  0  0  0  0  0  0
    3.1880    3.1120    0.0620 H   0  0  0  0  0  0  0  0  0  0  0  0
    3.6040    1.3600    0.2060 H   0  0  0  0  0  0  0  0  0  0  0  0
  1 24  1  0
  1 23  1  0
  1  2  1  0
  1 25  1  0
  2  3  2  0
  2  6  1  0
  3 26  1  0
  3  4  1  0
  4 28  1  0
  4  5  1  0
  4 27  1  0
  5 11  1  0
  5  6  1  0
  5 29  1  1
  6  7  1  0
  6 30  1  1
  7 31  1  6
  7 22  1  0
  7  8  1  0
  8  9  1  0
  8 18  1  0
  8 32  1  1
  9 33  1  6
  9 14  1  0
  9 10  1  0
 10 35  1  0
 10 11  1  0
 10 34  1  0
 11 12  1  0
 11 13  1  1
 12 38  1  0
 12 37  1  0
 12 36  1  0
 13 39  1  0
 14 15  1  0
 15 17  1  0
 15 16  2  0
 17 41  1  0
 17 40  1  0
 17 42  1  0
 18 20  1  0
 18 19  2  0
 19 43  1  0
 19 44  1  0
 20 22  1  0
 20 21  2  0
M  END
>  <id>  (849) 
962

>  <scaffolds>  (849) 
['O=C1CCCO1', 'C=C1C(=O)OC2C1CCCC1CC=CC12']

>  <name>  (849) 
cumambrin A

>  <formula>  (849) 
C17H22O5

>  <SMILES>  (849) 
CC1=CC[C@@H]2[C@H]1[C@@H]3[C@@H]([C@H](C[C@@]2(C)O)OC(=O)C)C(=C)C(=O)O3

>  <ChEMBL_id>  (849) 
CHEMBL190755

>  <ZINC_id>  (849) 
ZINC4027543

>  <PubChem_id>  (849) 
174867

>  <DrugBank_id>  (849) 


>  <CAS_no>  (849) 
20482-33-1

>  <references>  (849) 
[{'journal': {'name': 'Phytochemistry', 'id': 10}, 'title': 'Bitter guaianolides from Eriocephalus punctulatus', 'year': 1992, 'start_page': None, 'volume': None, 'issue': None, 'doi': '10.1016/0031-9422(92)80391-Q', 'isbn': '', 'despositor': {'code': 'BND', 'first_name': "Bakary N'tji", 'last_name': 'Diallo', 'id': 26}, 'refauthors_set': [{'author': {'first_name': 'Davies-Coleman', 'initials': 'DM', 'last_name': 'Michael', 'id': 1020}, 'first_author': True, 'id': 1600}], 'id': 501}]

>  <classifications>  (849) 
[{'classification': 'Phenol lipids', 'id': 899}, {'classification': 'Phenol lipids (Classyfire)', 'id': 951}]

>  <molecular_mass>  (849) 
306.4

$$$$
SANC00963_minRM1.pdb
     RDKit          3D

 27 27  0  0  1  0  0  0  0  0999 V2000
    2.7110   -1.1100    0.8730 C   0  0  0  0  0  0  0  0  0  0  0  0
    2.3140   -0.6510   -0.3920 O   0  0  0  0  0  0  0  0  0  0  0  0
    0.9710   -0.3150   -0.5800 C   0  0  1  0  0  0  0  0  0  0  0  0
   -0.0420   -1.1520    0.2220 C   0  0  1  0  0  0  0  0  0  0  0  0
   -1.4890   -0.8260   -0.2570 C   0  0  2  0  0  0  0  0  0  0  0  0
   -1.6430    0.6720   -0.6370 C   0  0  2  0  0  0  0  0  0  0  0  0
   -0.6560    1.5210    0.1930 C   0  0  1  0  0  0  0  0  0  0  0  0
    0.7820    1.2020   -0.2950 C   0  0  1  0  0  0  0  0  0  0  0  0
    1.6070    1.6500    0.7360 O   0  0  0  0  0  0  0  0  0  0  0  0
   -0.9570    2.8520   -0.1040 O   0  0  0  0  0  0  0  0  0  0  0  0
   -2.9660    0.9920   -0.3420 O   0  0  0  0  0  0  0  0  0  0  0  0
   -2.2760   -1.1770    0.8390 O   0  0  0  0  0  0  0  0  0  0  0  0
    0.2410   -2.4850   -0.0770 O   0  0  0  0  0  0  0  0  0  0  0  0
    2.3460   -0.5230    1.7300 H   0  0  0  0  0  0  0  0  0  0  0  0
    3.8100   -1.0370    0.8430 H   0  0  0  0  0  0  0  0  0  0  0  0
    2.4430   -2.1670    1.0390 H   0  0  0  0  0  0  0  0  0  0  0  0
    0.8350   -0.5120   -1.6770 H   0  0  0  0  0  0  0  0  0  0  0  0
    0.0630   -0.9450    1.3240 H   0  0  0  0  0  0  0  0  0  0  0  0
   -1.7500   -1.4460   -1.1600 H   0  0  0  0  0  0  0  0  0  0  0  0
   -1.4320    0.8120   -1.7330 H   0  0  0  0  0  0  0  0  0  0  0  0
   -0.7840    1.3080    1.2900 H   0  0  0  0  0  0  0  0  0  0  0  0
    0.9900    1.7650   -1.2490 H   0  0  0  0  0  0  0  0  0  0  0  0
    2.5130    1.6540    0.4100 H   0  0  0  0  0  0  0  0  0  0  0  0
   -0.4210    3.4020    0.4750 H   0  0  0  0  0  0  0  0  0  0  0  0
   -3.1120    1.9180   -0.5590 H   0  0  0  0  0  0  0  0  0  0  0  0
   -3.2040   -1.0650    0.6110 H   0  0  0  0  0  0  0  0  0  0  0  0
   -0.3350   -3.0280    0.4730 H   0  0  0  0  0  0  0  0  0  0  0  0
  1  2  1  0
  1 15  1  0
  1 16  1  0
  1 14  1  0
  2  3  1  0
  3 17  1  6
  3  8  1  0
  3  4  1  0
  4  5  1  0
  4 13  1  0
  4 18  1  1
  5 19  1  6
  5  6  1  0
  5 12  1  0
  6 20  1  6
  6 11  1  0
  6  7  1  0
  7  8  1  0
  7 10  1  0
  7 21  1  1
  8 22  1  6
  8  9  1  0
  9 23  1  0
 10 24  1  0
 11 25  1  0
 12 26  1  0
 13 27  1  0
M  END
>  <id>  (850) 
963

>  <scaffolds>  (850) 
['C1CCCCC1']

>  <name>  (850) 
8-isobutyloxycumambrin-B

>  <formula>  (850) 
C7H14O6

>  <SMILES>  (850) 
COC1[C@@H]([C@H](C([C@@H]([C@H]1O)O)O)O)O

>  <ChEMBL_id>  (850) 
CHEMBL501109

>  <ZINC_id>  (850) 
ZINC238742017

>  <PubChem_id>  (850) 
151108

>  <DrugBank_id>  (850) 


>  <CAS_no>  (850) 
642-38-6

>  <references>  (850) 
[{'journal': {'name': 'Phytochemistry', 'id': 10}, 'title': 'Bitter guaianolides from Eriocephalus punctulatus', 'year': 1992, 'start_page': None, 'volume': None, 'issue': None, 'doi': '10.1016/0031-9422(92)80391-Q', 'isbn': '', 'despositor': {'code': 'BND', 'first_name': "Bakary N'tji", 'last_name': 'Diallo', 'id': 26}, 'refauthors_set': [{'author': {'first_name': 'Davies-Coleman', 'initials': 'DM', 'last_name': 'Michael', 'id': 1020}, 'first_author': True, 'id': 1600}], 'id': 501}]

>  <classifications>  (850) 
[{'classification': 'Organooxygen compounds (Classyfire)', 'id': 954}]

>  <molecular_mass>  (850) 
194.18

$$$$
SANC00964_minRM1.pdb
     RDKit          3D

 87 91  0  0  1  0  0  0  0  0999 V2000
    4.5010    3.4550    0.7210 C   0  0  0  0  0  0  0  0  0  0  0  0
    3.2470    2.6790    0.5440 C   0  0  0  0  0  0  0  0  0  0  0  0
    3.3350    1.3110    0.3100 C   0  0  0  0  0  0  0  0  0  0  0  0
    2.1740    0.5740    0.0980 C   0  0  0  0  0  0  0  0  0  0  0  0
    0.8930    1.1500    0.0800 C   0  0  0  0  0  0  0  0  0  0  0  0
    0.8410    2.5030    0.4320 C   0  0  0  0  0  0  0  0  0  0  0  0
    1.9900    3.2840    0.6280 C   0  0  0  0  0  0  0  0  0  0  0  0
    1.8290    4.7100    0.9290 C   0  0  0  0  0  0  0  0  0  0  0  0
    2.7020    5.5510    0.7970 O   0  0  0  0  0  0  0  0  0  0  0  0
    0.4960    5.0700    1.4210 C   0  0  0  0  0  0  0  0  0  0  0  0
   -0.5240    4.2200    1.2540 C   0  0  0  0  0  0  0  0  0  0  0  0
   -0.4130    3.0240    0.6060 O   0  0  0  0  0  0  0  0  0  0  0  0
   -1.9250    4.4600    1.7070 C   0  0  0  0  0  0  0  0  0  0  0  0
   -2.6380    5.2510    0.6290 C   0  0  0  0  0  0  0  0  0  0  0  0
   -3.1150    4.6910   -0.3380 O   0  0  0  0  0  0  0  0  0  0  0  0
   -2.7050    6.7320    0.8250 C   0  0  0  0  0  0  0  0  0  0  0  0
   -0.2700    0.2390   -0.2170 C   0  0  1  0  0  0  0  0  0  0  0  0
   -1.6530    0.8980   -0.3810 C   0  0  1  0  0  0  0  0  0  0  0  0
   -1.9470    1.3860   -1.8220 C   0  0  2  0  0  0  0  0  0  0  0  0
   -1.5270    0.3390   -2.8770 C   0  0  1  0  0  0  0  0  0  0  0  0
   -0.1060   -0.1850   -2.5960 C   0  0  2  0  0  0  0  0  0  0  0  0
    0.0260   -0.6290   -1.2760 O   0  0  0  0  0  0  0  0  0  0  0  0
    0.9690    0.8350   -3.0260 C   0  0  0  0  0  0  0  0  0  0  0  0
    2.1530    0.1830   -3.3610 O   0  0  0  0  0  0  0  0  0  0  0  0
   -2.4560   -0.6930   -2.9320 O   0  0  0  0  0  0  0  0  0  0  0  0
   -1.1690    2.5110   -2.0830 O   0  0  0  0  0  0  0  0  0  0  0  0
   -2.6430   -0.0880   -0.1530 O   0  0  0  0  0  0  0  0  0  0  0  0
   -2.9870   -0.3930    1.1260 C   0  0  0  0  0  0  0  0  0  0  0  0
   -2.4010    0.1300    2.0600 O   0  0  0  0  0  0  0  0  0  0  0  0
   -4.0780   -1.3680    1.2280 C   0  0  0  0  0  0  0  0  0  0  0  0
   -4.7860   -1.8040    0.1820 C   0  0  0  0  0  0  0  0  0  0  0  0
   -5.8730   -2.7640    0.3460 C   0  0  0  0  0  0  0  0  0  0  0  0
   -7.0470   -2.5890   -0.3860 C   0  0  0  0  0  0  0  0  0  0  0  0
   -8.0950   -3.4870   -0.2350 C   0  0  0  0  0  0  0  0  0  0  0  0
   -7.9690   -4.5660    0.6340 C   0  0  0  0  0  0  0  0  0  0  0  0
   -6.7930   -4.7470    1.3510 C   0  0  0  0  0  0  0  0  0  0  0  0
   -5.7440   -3.8470    1.2110 C   0  0  0  0  0  0  0  0  0  0  0  0
    2.2390   -0.7690   -0.1640 O   0  0  0  0  0  0  0  0  0  0  0  0
    2.9300   -1.5360    0.7970 C   0  0  1  0  0  0  0  0  0  0  0  0
    2.2380   -2.9360    0.7810 C   0  0  1  0  0  0  0  0  0  0  0  0
    2.8840   -3.8920   -0.2540 C   0  0  2  0  0  0  0  0  0  0  0  0
    4.4390   -3.8940   -0.1760 C   0  0  1  0  0  0  0  0  0  0  0  0
    4.9650   -2.7020    0.6530 C   0  0  2  0  0  0  0  0  0  0  0  0
    4.2390   -1.5530    0.2930 O   0  0  0  0  0  0  0  0  0  0  0  0
    6.4310   -2.3680    0.2760 C   0  0  0  0  0  0  0  0  0  0  0  0
    7.2080   -3.5180    0.2080 O   0  0  0  0  0  0  0  0  0  0  0  0
    4.8760   -5.0260    0.5140 O   0  0  0  0  0  0  0  0  0  0  0  0
    2.4520   -3.5800   -1.5350 O   0  0  0  0  0  0  0  0  0  0  0  0
    2.4490   -3.5210    2.0290 O   0  0  0  0  0  0  0  0  0  0  0  0
    4.5100    4.0210    1.6660 H   0  0  0  0  0  0  0  0  0  0  0  0
    5.4070    2.8310    0.7270 H   0  0  0  0  0  0  0  0  0  0  0  0
    4.6340    4.1870   -0.0930 H   0  0  0  0  0  0  0  0  0  0  0  0
    4.3170    0.8290    0.2700 H   0  0  0  0  0  0  0  0  0  0  0  0
    0.3780    6.0340    1.9190 H   0  0  0  0  0  0  0  0  0  0  0  0
   -2.4670    3.5120    1.9250 H   0  0  0  0  0  0  0  0  0  0  0  0
   -1.9200    5.0000    2.6780 H   0  0  0  0  0  0  0  0  0  0  0  0
   -1.6970    7.1650    0.9150 H   0  0  0  0  0  0  0  0  0  0  0  0
   -3.2550    6.9910    1.7420 H   0  0  0  0  0  0  0  0  0  0  0  0
   -3.2060    7.2500   -0.0070 H   0  0  0  0  0  0  0  0  0  0  0  0
   -0.3070   -0.4930    0.6420 H   0  0  0  0  0  0  0  0  0  0  0  0
   -1.7690    1.7570    0.3380 H   0  0  0  0  0  0  0  0  0  0  0  0
   -3.0480    1.5990   -1.9270 H   0  0  0  0  0  0  0  0  0  0  0  0
   -1.5930    0.7840   -3.9060 H   0  0  0  0  0  0  0  0  0  0  0  0
    0.0560   -1.1510   -3.1530 H   0  0  0  0  0  0  0  0  0  0  0  0
    0.6780    1.3520   -3.9670 H   0  0  0  0  0  0  0  0  0  0  0  0
    1.1270    1.6400   -2.2760 H   0  0  0  0  0  0  0  0  0  0  0  0
    2.5140   -0.2130   -2.5620 H   0  0  0  0  0  0  0  0  0  0  0  0
   -2.3320   -1.2750   -2.1740 H   0  0  0  0  0  0  0  0  0  0  0  0
   -1.6230    3.2730   -1.7110 H   0  0  0  0  0  0  0  0  0  0  0  0
   -4.2790   -1.6930    2.2560 H   0  0  0  0  0  0  0  0  0  0  0  0
   -4.6030   -1.4600   -0.8450 H   0  0  0  0  0  0  0  0  0  0  0  0
   -7.1470   -1.7440   -1.0740 H   0  0  0  0  0  0  0  0  0  0  0  0
   -9.0200   -3.3480   -0.8020 H   0  0  0  0  0  0  0  0  0  0  0  0
   -8.7960   -5.2740    0.7500 H   0  0  0  0  0  0  0  0  0  0  0  0
   -6.6920   -5.6000    2.0290 H   0  0  0  0  0  0  0  0  0  0  0  0
   -4.8160   -4.0050    1.7700 H   0  0  0  0  0  0  0  0  0  0  0  0
    2.9280   -1.0800    1.8280 H   0  0  0  0  0  0  0  0  0  0  0  0
    1.1460   -2.8170    0.5340 H   0  0  0  0  0  0  0  0  0  0  0  0
    2.4780   -4.9280   -0.0970 H   0  0  0  0  0  0  0  0  0  0  0  0
    4.8690   -3.8500   -1.2160 H   0  0  0  0  0  0  0  0  0  0  0  0
    4.8940   -2.9120    1.7560 H   0  0  0  0  0  0  0  0  0  0  0  0
    6.5140   -1.9190   -0.7380 H   0  0  0  0  0  0  0  0  0  0  0  0
    6.8450   -1.6160    0.9870 H   0  0  0  0  0  0  0  0  0  0  0  0
    7.1380   -3.9840    1.0490 H   0  0  0  0  0  0  0  0  0  0  0  0
    4.8720   -5.7600   -0.1080 H   0  0  0  0  0  0  0  0  0  0  0  0
    2.7030   -2.6720   -1.7430 H   0  0  0  0  0  0  0  0  0  0  0  0
    1.6930   -3.3010    2.5810 H   0  0  0  0  0  0  0  0  0  0  0  0
  1 52  1  0
  1  2  1  0
  1 51  1  0
  1 50  1  0
  2  3  2  0
  2  7  1  0
  3  4  1  0
  3 53  1  0
  4 38  1  0
  4  5  2  0
  5 17  1  0
  5  6  1  0
  6 12  1  0
  6  7  2  0
  7  8  1  0
  8  9  2  0
  8 10  1  0
 10 11  2  0
 10 54  1  0
 11 12  1  0
 11 13  1  0
 13 14  1  0
 13 55  1  0
 13 56  1  0
 14 15  2  0
 14 16  1  0
 16 59  1  0
 16 57  1  0
 16 58  1  0
 17 22  1  0
 17 18  1  0
 17 60  1  1
 18 19  1  0
 18 27  1  0
 18 61  1  1
 19 20  1  0
 19 26  1  0
 19 62  1  1
 20 63  1  6
 20 25  1  0
 20 21  1  0
 21 64  1  6
 21 23  1  0
 21 22  1  0
 23 65  1  0
 23 24  1  0
 23 66  1  0
 24 67  1  0
 25 68  1  0
 26 69  1  0
 27 28  1  0
 28 30  1  0
 28 29  2  0
 30 31  2  0
 30 70  1  0
 31 71  1  0
 31 32  1  0
 32 33  2  0
 32 37  1  0
 33 72  1  0
 33 34  1  0
 34 73  1  0
 34 35  2  0
 35 74  1  0
 35 36  1  0
 36 37  2  0
 36 75  1  0
 37 76  1  0
 38 39  1  0
 39 44  1  0
 39 40  1  0
 39 77  1  1
 40 41  1  0
 40 78  1  6
 40 49  1  0
 41 48  1  0
 41 42  1  0
 41 79  1  1
 42 80  1  6
 42 47  1  0
 42 43  1  0
 43 45  1  0
 43 44  1  0
 43 81  1  1
 45 82  1  0
 45 46  1  0
 45 83  1  0
 46 84  1  0
 47 85  1  0
 48 86  1  0
 49 87  1  0
M  END
>  <id>  (851) 
964

>  <scaffolds>  (851) 
['c1ccccc1', 'C1CCOCC1', 'c1ccc(OC2CCCCO2)cc1', 'O=C(C=Cc1ccccc1)OC1CCCOC1c1cccc2c(=O)ccoc12', 'O=C(C=Cc1ccccc1)OC1CCCOC1c1c(OC2CCCCO2)ccc2c(=O)ccoc12', 'O=c1ccoc2ccccc12', 'O=C(C=Cc1ccccc1)OCCc1ccccc1', 'O=c1ccoc2c(C3CCCCO3)cccc12']

>  <name>  (851) 
Aloeresin E

>  <formula>  (851) 
C34H38O15

>  <SMILES>  (851) 
CC1=CC(=C(C2=C1C(=O)C=C(O2)CC(=O)C)[C@H]3[C@@H]([C@H]([C@@H]([C@H](O3)CO)O)O)OC(=O)/C=C/C4=CC=CC=C4)O[C@H]5[C@@H]([C@H]([C@@H]([C@H](O5)CO)O)O)O

>  <ChEMBL_id>  (851) 


>  <ZINC_id>  (851) 


>  <PubChem_id>  (851) 
102247458

>  <DrugBank_id>  (851) 


>  <CAS_no>  (851) 
182754-64-9

>  <references>  (851) 
[{'journal': {'name': 'Phytochemistry', 'id': 10}, 'title': 'Aloeresins E and F, two chromone derivatives from Aloe peglerae', 'year': 1996, 'start_page': None, 'volume': None, 'issue': None, 'doi': '10.1016/0031-9422(96)00302-0', 'isbn': '', 'despositor': {'code': 'BND', 'first_name': "Bakary N'tji", 'last_name': 'Diallo', 'id': 26}, 'refauthors_set': [{'author': {'first_name': 'Va', 'initials': 'VH', 'last_name': 'Heerden', 'id': 1021}, 'first_author': True, 'id': 1601}], 'id': 502}]

>  <classifications>  (851) 
[{'classification': 'Organooxygen compounds (Classyfire)', 'id': 954}]

>  <molecular_mass>  (851) 
686.7

$$$$
SANC00965_minRM1.pdb
     RDKit          3D

 66 69  0  0  1  0  0  0  0  0999 V2000
   -6.0540   -1.3180    0.9010 C   0  0  0  0  0  0  0  0  0  0  0  0
   -4.6930   -0.7290    0.8510 C   0  0  0  0  0  0  0  0  0  0  0  0
   -4.4780    0.4910    1.4630 C   0  0  0  0  0  0  0  0  0  0  0  0
   -3.2190    1.1070    1.3790 C   0  0  0  0  0  0  0  0  0  0  0  0
   -2.1680    0.5570    0.6300 C   0  0  0  0  0  0  0  0  0  0  0  0
   -2.3730   -0.7600    0.1960 C   0  0  0  0  0  0  0  0  0  0  0  0
   -3.6210   -1.3920    0.2290 C   0  0  0  0  0  0  0  0  0  0  0  0
   -3.7630   -2.7160   -0.3760 C   0  0  0  0  0  0  0  0  0  0  0  0
   -4.8270   -3.2790   -0.5780 O   0  0  0  0  0  0  0  0  0  0  0  0
   -2.4990   -3.3570   -0.7470 C   0  0  0  0  0  0  0  0  0  0  0  0
   -1.3430   -2.6910   -0.6450 C   0  0  0  0  0  0  0  0  0  0  0  0
   -1.2430   -1.3960   -0.2350 O   0  0  0  0  0  0  0  0  0  0  0  0
    0.0010   -3.2560   -0.9610 C   0  0  0  0  0  0  0  0  0  0  0  0
    0.3360   -4.2660    0.1190 C   0  0  0  0  0  0  0  0  0  0  0  0
    0.6630   -3.9030    1.2300 O   0  0  0  0  0  0  0  0  0  0  0  0
    0.2510   -5.7110   -0.2670 C   0  0  0  0  0  0  0  0  0  0  0  0
   -0.8750    1.3160    0.4520 C   0  0  1  0  0  0  0  0  0  0  0  0
   -0.1870    1.1170   -0.9240 C   0  0  1  0  0  0  0  0  0  0  0  0
    0.1030    2.3730   -1.8030 C   0  0  2  0  0  0  0  0  0  0  0  0
   -0.1810    3.7340   -1.1250 C   0  0  1  0  0  0  0  0  0  0  0  0
   -1.3950    3.6010   -0.1940 C   0  0  2  0  0  0  0  0  0  0  0  0
   -1.0960    2.6580    0.8010 O   0  0  0  0  0  0  0  0  0  0  0  0
   -2.6830    3.3230   -0.9970 C   0  0  0  0  0  0  0  0  0  0  0  0
   -3.7620    4.0260   -0.4700 O   0  0  0  0  0  0  0  0  0  0  0  0
    0.9320    4.2070   -0.4560 O   0  0  0  0  0  0  0  0  0  0  0  0
   -0.7540    2.3360   -2.9060 O   0  0  0  0  0  0  0  0  0  0  0  0
    1.0150    0.3910   -0.7720 O   0  0  0  0  0  0  0  0  0  0  0  0
    2.0570    0.9590   -0.1070 C   0  0  0  0  0  0  0  0  0  0  0  0
    1.9050    2.0140    0.4940 O   0  0  0  0  0  0  0  0  0  0  0  0
    3.3040    0.1980   -0.2200 C   0  0  0  0  0  0  0  0  0  0  0  0
    4.3580    0.5800    0.5110 C   0  0  0  0  0  0  0  0  0  0  0  0
    5.6690   -0.0460    0.4150 C   0  0  0  0  0  0  0  0  0  0  0  0
    5.8160   -1.4010    0.1310 C   0  0  0  0  0  0  0  0  0  0  0  0
    7.0880   -1.9530    0.0360 C   0  0  0  0  0  0  0  0  0  0  0  0
    8.2120   -1.1600    0.2260 C   0  0  0  0  0  0  0  0  0  0  0  0
    8.0670    0.1910    0.5220 C   0  0  0  0  0  0  0  0  0  0  0  0
    6.8000    0.7480    0.6210 C   0  0  0  0  0  0  0  0  0  0  0  0
   -3.1300    2.2520    2.0770 O   0  0  0  0  0  0  0  0  0  0  0  0
   -6.4740   -1.4470   -0.1100 H   0  0  0  0  0  0  0  0  0  0  0  0
   -6.7770   -0.7050    1.4600 H   0  0  0  0  0  0  0  0  0  0  0  0
   -6.0570   -2.3110    1.3790 H   0  0  0  0  0  0  0  0  0  0  0  0
   -5.2750    0.9920    2.0220 H   0  0  0  0  0  0  0  0  0  0  0  0
   -2.5430   -4.3870   -1.1080 H   0  0  0  0  0  0  0  0  0  0  0  0
   -0.0100   -3.7140   -1.9720 H   0  0  0  0  0  0  0  0  0  0  0  0
    0.7930   -2.4740   -1.0130 H   0  0  0  0  0  0  0  0  0  0  0  0
   -0.6910   -5.9460   -0.7820 H   0  0  0  0  0  0  0  0  0  0  0  0
    1.0710   -5.9810   -0.9490 H   0  0  0  0  0  0  0  0  0  0  0  0
    0.3180   -6.3840    0.6020 H   0  0  0  0  0  0  0  0  0  0  0  0
   -0.2030    0.9720    1.2900 H   0  0  0  0  0  0  0  0  0  0  0  0
   -0.7820    0.3970   -1.5480 H   0  0  0  0  0  0  0  0  0  0  0  0
    1.1790    2.3670   -2.1370 H   0  0  0  0  0  0  0  0  0  0  0  0
   -0.3620    4.5300   -1.8980 H   0  0  0  0  0  0  0  0  0  0  0  0
   -1.5030    4.5360    0.4220 H   0  0  0  0  0  0  0  0  0  0  0  0
   -2.6130    3.7330   -2.0300 H   0  0  0  0  0  0  0  0  0  0  0  0
   -2.8770    2.2340   -1.1160 H   0  0  0  0  0  0  0  0  0  0  0  0
   -4.0260    3.6250    0.3620 H   0  0  0  0  0  0  0  0  0  0  0  0
    1.1680    3.5960    0.2630 H   0  0  0  0  0  0  0  0  0  0  0  0
   -0.3650    1.7490   -3.5610 H   0  0  0  0  0  0  0  0  0  0  0  0
    3.3210   -0.6340   -0.9290 H   0  0  0  0  0  0  0  0  0  0  0  0
    4.2830    1.4220    1.2170 H   0  0  0  0  0  0  0  0  0  0  0  0
    4.9400   -2.0410   -0.0010 H   0  0  0  0  0  0  0  0  0  0  0  0
    7.2040   -3.0170   -0.1890 H   0  0  0  0  0  0  0  0  0  0  0  0
    9.2120   -1.5970    0.1480 H   0  0  0  0  0  0  0  0  0  0  0  0
    8.9510    0.8160    0.6790 H   0  0  0  0  0  0  0  0  0  0  0  0
    6.6930    1.8120    0.8550 H   0  0  0  0  0  0  0  0  0  0  0  0
   -2.2170    2.6060    2.0670 H   0  0  0  0  0  0  0  0  0  0  0  0
  1 39  1  0
  1  2  1  0
  1 41  1  0
  1 40  1  0
  2  7  2  0
  2  3  1  0
  3  4  2  0
  3 42  1  0
  4  5  1  0
  4 38  1  0
  5  6  2  0
  5 17  1  0
  6 12  1  0
  6  7  1  0
  7  8  1  0
  8 10  1  0
  8  9  2  0
 10 43  1  0
 10 11  2  0
 11 13  1  0
 11 12  1  0
 13 44  1  0
 13 45  1  0
 13 14  1  0
 14 16  1  0
 14 15  2  0
 16 47  1  0
 16 46  1  0
 16 48  1  0
 17 18  1  0
 17 22  1  0
 17 49  1  1
 18 19  1  0
 18 50  1  6
 18 27  1  0
 19 26  1  0
 19 51  1  6
 19 20  1  0
 20 52  1  6
 20 25  1  0
 20 21  1  0
 21 23  1  0
 21 53  1  1
 21 22  1  0
 23 54  1  0
 23 55  1  0
 23 24  1  0
 24 56  1  0
 25 57  1  0
 26 58  1  0
 27 28  1  0
 28 30  1  0
 28 29  2  0
 30 59  1  0
 30 31  2  0
 31 32  1  0
 31 60  1  0
 32 33  2  0
 32 37  1  0
 33 61  1  0
 33 34  1  0
 34 62  1  0
 34 35  2  0
 35 63  1  0
 35 36  1  0
 36 37  2  0
 36 64  1  0
 37 65  1  0
 38 66  1  0
M  END
>  <id>  (852) 
965

>  <scaffolds>  (852) 
['c1ccccc1', 'C1CCOCC1', 'O=C(C=Cc1ccccc1)OC1CCCOC1c1cccc2c(=O)ccoc12', 'O=c1ccoc2ccccc12', 'O=C(C=Cc1ccccc1)OCCc1ccccc1', 'O=c1ccoc2c(C3CCCCO3)cccc12']

>  <name>  (852) 
Aloeresin F

>  <formula>  (852) 
C28H28O10

>  <SMILES>  (852) 
CC1=CC(=C(C2=C1C(=O)C=C(O2)CC(=O)C)[C@H]3[C@@H]([C@H]([C@@H]([C@H](O3)CO)O)O)OC(=O)/C=C/C4=CC=CC=C4)O

>  <ChEMBL_id>  (852) 


>  <ZINC_id>  (852) 


>  <PubChem_id>  (852) 
11813365

>  <DrugBank_id>  (852) 


>  <CAS_no>  (852) 
182754-88-7

>  <references>  (852) 
[{'journal': {'name': 'Phytochemistry', 'id': 10}, 'title': 'Aloeresins E and F, two chromone derivatives from Aloe peglerae', 'year': 1996, 'start_page': None, 'volume': None, 'issue': None, 'doi': '10.1016/0031-9422(96)00302-0', 'isbn': '', 'despositor': {'code': 'BND', 'first_name': "Bakary N'tji", 'last_name': 'Diallo', 'id': 26}, 'refauthors_set': [{'author': {'first_name': 'Va', 'initials': 'VH', 'last_name': 'Heerden', 'id': 1021}, 'first_author': True, 'id': 1601}], 'id': 502}]

>  <classifications>  (852) 
[{'classification': 'Organooxygen compounds (Classyfire)', 'id': 954}]

>  <molecular_mass>  (852) 
524.5

$$$$
SANC00966_minRM1.pdb
     RDKit          3D

 38 40  0  0  1  0  0  0  0  0999 V2000
   -2.2070   -2.4180    0.3080 C   0  0  0  0  0  0  0  0  0  0  0  0
   -2.0140   -1.0250   -0.2760 C   0  0  1  0  0  0  0  0  0  0  0  0
   -3.1810   -0.1200    0.1700 C   0  0  1  0  0  0  0  0  0  0  0  0
   -3.0460    1.2640   -0.4750 C   0  0  0  0  0  0  0  0  0  0  0  0
   -1.7320    1.8970   -0.0470 C   0  0  0  0  0  0  0  0  0  0  0  0
   -0.5570    1.0130   -0.4560 C   0  0  2  0  0  0  0  0  0  0  0  0
   -0.6690   -0.4050    0.1460 C   0  0  2  0  0  0  0  0  0  0  0  0
    0.4730   -1.2870   -0.4140 C   0  0  0  0  0  0  0  0  0  0  0  0
    1.7630   -0.6150   -0.2130 C   0  0  0  0  0  0  0  0  0  0  0  0
    1.8640    0.7490   -0.0730 C   0  0  0  0  0  0  0  0  0  0  0  0
    0.7520    1.6870   -0.0790 C   0  0  0  0  0  0  0  0  0  0  0  0
    0.8660    2.8720    0.1600 O   0  0  0  0  0  0  0  0  0  0  0  0
    3.1660    1.1340    0.0930 O   0  0  0  0  0  0  0  0  0  0  0  0
    3.9040   -0.0180    0.0520 C   0  0  0  0  0  0  0  0  0  0  0  0
    3.0980   -1.1210   -0.1320 C   0  0  0  0  0  0  0  0  0  0  0  0
    3.5040   -2.5280   -0.2290 C   0  0  0  0  0  0  0  0  0  0  0  0
   -0.5480   -0.3480    1.6650 C   0  0  0  0  0  0  0  0  0  0  0  0
   -4.4180   -0.6870   -0.1300 O   0  0  0  0  0  0  0  0  0  0  0  0
   -1.3500   -3.0810    0.1180 H   0  0  0  0  0  0  0  0  0  0  0  0
   -3.0860   -2.9210   -0.1220 H   0  0  0  0  0  0  0  0  0  0  0  0
   -2.3680   -2.4090    1.3960 H   0  0  0  0  0  0  0  0  0  0  0  0
   -2.0320   -1.1070   -1.3960 H   0  0  0  0  0  0  0  0  0  0  0  0
   -3.2140   -0.0330    1.2900 H   0  0  0  0  0  0  0  0  0  0  0  0
   -3.1130    1.2010   -1.5810 H   0  0  0  0  0  0  0  0  0  0  0  0
   -3.9030    1.9080   -0.1840 H   0  0  0  0  0  0  0  0  0  0  0  0
   -1.6310    2.9050   -0.5050 H   0  0  0  0  0  0  0  0  0  0  0  0
   -1.7200    2.0980    1.0450 H   0  0  0  0  0  0  0  0  0  0  0  0
   -0.5410    0.9270   -1.5760 H   0  0  0  0  0  0  0  0  0  0  0  0
    0.3340   -1.4880   -1.4990 H   0  0  0  0  0  0  0  0  0  0  0  0
    0.4760   -2.2950    0.0560 H   0  0  0  0  0  0  0  0  0  0  0  0
    4.9730    0.1130    0.1680 H   0  0  0  0  0  0  0  0  0  0  0  0
    2.9730   -3.1530    0.5060 H   0  0  0  0  0  0  0  0  0  0  0  0
    4.5810   -2.6680   -0.0540 H   0  0  0  0  0  0  0  0  0  0  0  0
    3.2810   -2.9440   -1.2240 H   0  0  0  0  0  0  0  0  0  0  0  0
    0.2790    0.2900    2.0090 H   0  0  0  0  0  0  0  0  0  0  0  0
   -1.4580    0.0360    2.1510 H   0  0  0  0  0  0  0  0  0  0  0  0
   -0.3630   -1.3370    2.1110 H   0  0  0  0  0  0  0  0  0  0  0  0
   -4.4750   -0.8160   -1.0820 H   0  0  0  0  0  0  0  0  0  0  0  0
  1  2  1  0
  1 20  1  0
  1 19  1  0
  1 21  1  0
  2 22  1  6
  2  7  1  0
  2  3  1  0
  3  4  1  0
  3 18  1  0
  3 23  1  1
  4 24  1  0
  4 25  1  0
  4  5  1  0
  5 26  1  0
  5  6  1  0
  5 27  1  0
  6 28  1  6
  6 11  1  0
  6  7  1  0
  7  8  1  0
  7 17  1  1
  8 29  1  0
  8  9  1  0
  8 30  1  0
  9 15  1  0
  9 10  2  0
 10 11  1  0
 10 13  1  0
 11 12  2  0
 13 14  1  0
 14 15  2  0
 14 31  1  0
 15 16  1  0
 16 34  1  0
 16 33  1  0
 16 32  1  0
 17 35  1  0
 17 37  1  0
 17 36  1  0
 18 38  1  0
M  END
>  <id>  (853) 
966

>  <scaffolds>  (853) 
['c1ccoc1', 'C1CCCCC1', 'O=C1c2occc2CC2CCCCC12']

>  <name>  (853) 
Euryopsonol

>  <formula>  (853) 
C15H20O3

>  <SMILES>  (853) 
C[C@H]1[C@@H](CC[C@@H]2[C@@]1(CC3=C(C2=O)OC=C3C)C)O

>  <ChEMBL_id>  (853) 


>  <ZINC_id>  (853) 


>  <PubChem_id>  (853) 
101289748

>  <DrugBank_id>  (853) 


>  <CAS_no>  (853) 
15401-89-5

>  <references>  (853) 
[{'journal': {'name': 'Tetrahedron', 'id': 4}, 'title': 'The structure of euryopsonol', 'year': 1967, 'start_page': None, 'volume': None, 'issue': None, 'doi': '10.1016/0040-4020(67)80078-4', 'isbn': '', 'despositor': {'code': 'BND', 'first_name': "Bakary N'tji", 'last_name': 'Diallo', 'id': 26}, 'refauthors_set': [{'author': {'first_name': 'Rivett', 'initials': 'RD', 'last_name': 'D.', 'id': 1022}, 'first_author': True, 'id': 1602}], 'id': 503}]

>  <classifications>  (853) 
[{'classification': 'Phenol lipids', 'id': 899}, {'classification': 'Phenol lipids (Classyfire)', 'id': 951}]

>  <molecular_mass>  (853) 
248.32

$$$$
SANC00967_minRM1.pdb
     RDKit          3D

 16 16  0  0  0  0  0  0  0  0999 V2000
   -1.1190   -1.2350    0.3390 C   0  0  0  0  0  0  0  0  0  0  0  0
   -1.8030   -0.0550   -0.3320 C   0  0  0  0  0  0  0  0  0  0  0  0
   -1.1470    1.2410    0.1470 C   0  0  0  0  0  0  0  0  0  0  0  0
    0.3060    1.1960    0.0150 N   0  0  0  0  0  0  0  0  0  0  0  0
    1.0400    0.0240   -0.0510 C   0  0  0  0  0  0  0  0  0  0  0  0
    2.2690    0.0990   -0.0880 O   0  0  0  0  0  0  0  0  0  0  0  0
    0.3280   -1.3040   -0.1240 C   0  0  0  0  0  0  0  0  0  0  0  0
   -1.1780   -1.1500    1.4450 H   0  0  0  0  0  0  0  0  0  0  0  0
   -1.6440   -2.1850    0.1060 H   0  0  0  0  0  0  0  0  0  0  0  0
   -1.7510   -0.1450   -1.4380 H   0  0  0  0  0  0  0  0  0  0  0  0
   -2.8880   -0.0350   -0.1030 H   0  0  0  0  0  0  0  0  0  0  0  0
   -1.4310    1.4450    1.2100 H   0  0  0  0  0  0  0  0  0  0  0  0
   -1.5460    2.1130   -0.4250 H   0  0  0  0  0  0  0  0  0  0  0  0
    0.8040    2.0810    0.0510 H   0  0  0  0  0  0  0  0  0  0  0  0
    0.3930   -1.6650   -1.1740 H   0  0  0  0  0  0  0  0  0  0  0  0
    0.8970   -2.0560    0.4650 H   0  0  0  0  0  0  0  0  0  0  0  0
  1  2  1  0
  1  7  1  0
  1  9  1  0
  1  8  1  0
  2 10  1  0
  2 11  1  0
  2  3  1  0
  3 13  1  0
  3  4  1  0
  3 12  1  0
  4  5  1  0
  4 14  1  0
  5  7  1  0
  5  6  2  0
  7 15  1  0
  7 16  1  0
M  END
>  <id>  (854) 
967

>  <scaffolds>  (854) 
['C1CCNCC1', 'O=C1CCCCN1']

>  <name>  (854) 
2-Piperidone

>  <formula>  (854) 
C5H9NO

>  <SMILES>  (854) 
C1CCNC(=O)C1


>  <ChEMBL_id>  (854) 
CHEMBL12193

>  <ZINC_id>  (854) 
ZINC3860817

>  <PubChem_id>  (854) 
12665

>  <DrugBank_id>  (854) 


>  <CAS_no>  (854) 
27154-43-4

>  <references>  (854) 
[{'journal': {'name': 'Biochemical Systematics and Ecology', 'id': 24}, 'title': 'Chemotaxonomic value of alkaloids in the genus Dichilus', 'year': 1988, 'start_page': None, 'volume': None, 'issue': None, 'doi': '10.1016/0305-1978(88)90046-4', 'isbn': '', 'despositor': {'code': 'BND', 'first_name': "Bakary N'tji", 'last_name': 'Diallo', 'id': 26}, 'refauthors_set': [{'author': {'first_name': 'Rivett', 'initials': 'RD', 'last_name': 'D.', 'id': 1022}, 'first_author': True, 'id': 1603}], 'id': 504}]

>  <classifications>  (854) 
[{'classification': 'Piperidines (Classyfire)', 'id': 999}]

>  <molecular_mass>  (854) 
99.13

$$$$
SANC00968_minRM1.pdb
     RDKit          3D

 38 41  0  0  1  0  0  0  0  0999 V2000
   -2.4310   -1.5930   -1.3720 C   0  0  0  0  0  0  0  0  0  0  0  0
   -3.7290   -0.9130   -0.9720 C   0  0  0  0  0  0  0  0  0  0  0  0
   -3.4570    0.5530   -0.6190 C   0  0  0  0  0  0  0  0  0  0  0  0
   -2.2480    0.7760    0.2210 N   0  0  0  0  0  0  0  0  0  0  0  0
   -1.1900    1.5390   -0.4870 C   0  0  0  0  0  0  0  0  0  0  0  0
    0.0150    1.7740    0.4530 C   0  0  1  0  0  0  0  0  0  0  0  0
   -0.3170    1.3390    1.8730 C   0  0  0  0  0  0  0  0  0  0  0  0
   -0.5790   -0.1620    1.8050 C   0  0  1  0  0  0  0  0  0  0  0  0
   -1.7250   -0.4840    0.8080 C   0  0  2  0  0  0  0  0  0  0  0  0
   -1.3820   -1.5350   -0.2600 C   0  0  0  0  0  0  0  0  0  0  0  0
    0.7710   -0.8360    1.5440 C   0  0  0  0  0  0  0  0  0  0  0  0
    1.5470   -0.2120    0.4470 N   0  0  0  0  0  0  0  0  0  0  0  0
    1.2060    1.0220   -0.0790 C   0  0  0  0  0  0  0  0  0  0  0  0
    1.9330    1.5700   -1.1030 C   0  0  0  0  0  0  0  0  0  0  0  0
    3.0560    0.8830   -1.6340 C   0  0  0  0  0  0  0  0  0  0  0  0
    3.4270   -0.3120   -1.1230 C   0  0  0  0  0  0  0  0  0  0  0  0
    2.6960   -0.9180   -0.0290 C   0  0  0  0  0  0  0  0  0  0  0  0
    2.9890   -1.9840    0.5080 O   0  0  0  0  0  0  0  0  0  0  0  0
   -2.6230   -2.6470   -1.6660 H   0  0  0  0  0  0  0  0  0  0  0  0
   -2.0380   -1.1250   -2.3010 H   0  0  0  0  0  0  0  0  0  0  0  0
   -4.4760   -0.9730   -1.7910 H   0  0  0  0  0  0  0  0  0  0  0  0
   -4.2160   -1.4500   -0.1310 H   0  0  0  0  0  0  0  0  0  0  0  0
   -4.3060    0.9730   -0.0330 H   0  0  0  0  0  0  0  0  0  0  0  0
   -3.4350    1.1580   -1.5560 H   0  0  0  0  0  0  0  0  0  0  0  0
   -0.8590    1.0870   -1.4540 H   0  0  0  0  0  0  0  0  0  0  0  0
   -1.6280    2.5230   -0.7760 H   0  0  0  0  0  0  0  0  0  0  0  0
    0.2660    2.8670    0.4580 H   0  0  0  0  0  0  0  0  0  0  0  0
    0.5080    1.5800    2.5750 H   0  0  0  0  0  0  0  0  0  0  0  0
   -1.1870    1.8980    2.2760 H   0  0  0  0  0  0  0  0  0  0  0  0
   -0.9190   -0.5230    2.8120 H   0  0  0  0  0  0  0  0  0  0  0  0
   -2.5710   -0.8880    1.4330 H   0  0  0  0  0  0  0  0  0  0  0  0
   -1.2830   -2.5300    0.2240 H   0  0  0  0  0  0  0  0  0  0  0  0
   -0.3960   -1.3510   -0.7300 H   0  0  0  0  0  0  0  0  0  0  0  0
    1.3980   -0.7940    2.4700 H   0  0  0  0  0  0  0  0  0  0  0  0
    0.6520   -1.9290    1.3540 H   0  0  0  0  0  0  0  0  0  0  0  0
    1.6600    2.5400   -1.5220 H   0  0  0  0  0  0  0  0  0  0  0  0
    3.6120    1.3420   -2.4580 H   0  0  0  0  0  0  0  0  0  0  0  0
    4.2860   -0.8750   -1.4980 H   0  0  0  0  0  0  0  0  0  0  0  0
  1 20  1  0
  1 19  1  0
  1  2  1  0
  1 10  1  0
  2 21  1  0
  2  3  1  0
  2 22  1  0
  3 24  1  0
  3 23  1  0
  4  3  1  0
  4  5  1  0
  4  9  1  0
  5 25  1  0
  5 26  1  0
  5  6  1  0
  6 13  1  0
  6 27  1  1
  6  7  1  0
  7  8  1  0
  7 29  1  0
  7 28  1  0
  8  9  1  0
  8 11  1  0
  8 30  1  1
  9 10  1  0
  9 31  1  1
 10 33  1  0
 10 32  1  0
 11 12  1  0
 11 35  1  0
 11 34  1  0
 12 13  1  0
 12 17  1  0
 13 14  2  0
 14 15  1  0
 14 36  1  0
 15 37  1  0
 15 16  2  0
 16 38  1  0
 16 17  1  0
 17 18  2  0
M  END
>  <id>  (855) 
968

>  <scaffolds>  (855) 
['C1CCNCC1', 'O=c1cccc2n1CC1CC2CN2CCCCC12']

>  <name>  (855) 
Thermopsine

>  <formula>  (855) 
C15H20N2O

>  <SMILES>  (855) 
C1CCN2C[C@H]3C[C@@H]([C@@H]2C1)CN4C3=CC=CC4=O

>  <ChEMBL_id>  (855) 
SCHEMBL14476112

>  <ZINC_id>  (855) 
ZINC1583786

>  <PubChem_id>  (855) 
638234

>  <DrugBank_id>  (855) 


>  <CAS_no>  (855) 
486-90-8

>  <references>  (855) 
[{'journal': {'name': 'Biochemical Systematics and Ecology', 'id': 24}, 'title': 'Chemotaxonomic value of alkaloids in the genus Dichilus', 'year': 1988, 'start_page': None, 'volume': None, 'issue': None, 'doi': '10.1016/0305-1978(88)90046-4', 'isbn': '', 'despositor': {'code': 'BND', 'first_name': "Bakary N'tji", 'last_name': 'Diallo', 'id': 26}, 'refauthors_set': [{'author': {'first_name': 'Rivett', 'initials': 'RD', 'last_name': 'D.', 'id': 1022}, 'first_author': True, 'id': 1603}], 'id': 504}]

>  <classifications>  (855) 
[{'classification': 'Alkaloids', 'id': 898}, {'classification': 'Lupin alkaloids (Classyfire)', 'id': 1001}]

>  <molecular_mass>  (855) 
244.33

$$$$
SANC00969_minRM1.pdb
     RDKit          3D

 33 34  0  0  0  0  0  0  0  0999 V2000
   -2.8480   -2.1610   -1.1710 C   0  0  0  0  0  0  0  0  0  0  0  0
   -3.1830   -0.9080   -0.4080 C   0  0  0  0  0  0  0  0  0  0  0  0
   -4.3420   -0.6210   -0.1290 O   0  0  0  0  0  0  0  0  0  0  0  0
   -2.1400   -0.0500   -0.0150 N   0  0  0  0  0  0  0  0  0  0  0  0
   -2.4530    1.2510    0.6170 C   0  0  0  0  0  0  0  0  0  0  0  0
   -1.4700    2.3190    0.1320 C   0  0  0  0  0  0  0  0  0  0  0  0
   -0.0450    1.9110    0.4850 C   0  0  0  0  0  0  0  0  0  0  0  0
    0.2030    0.5030    0.0800 C   0  0  0  0  0  0  0  0  0  0  0  0
   -0.7790   -0.3800   -0.1700 C   0  0  0  0  0  0  0  0  0  0  0  0
    1.6100    0.0830   -0.0340 C   0  0  0  0  0  0  0  0  0  0  0  0
    2.3610    0.7100   -0.8720 N   0  0  0  0  0  0  0  0  0  0  0  0
    3.7700    0.3390   -0.9950 C   0  0  0  0  0  0  0  0  0  0  0  0
    4.1700   -0.9950   -0.3580 C   0  0  0  0  0  0  0  0  0  0  0  0
    3.5250   -1.1090    1.0160 C   0  0  0  0  0  0  0  0  0  0  0  0
    2.0100   -1.0520    0.8680 C   0  0  0  0  0  0  0  0  0  0  0  0
   -2.3190   -2.8970   -0.5480 H   0  0  0  0  0  0  0  0  0  0  0  0
   -3.7660   -2.6600   -1.5240 H   0  0  0  0  0  0  0  0  0  0  0  0
   -2.2410   -1.9640   -2.0660 H   0  0  0  0  0  0  0  0  0  0  0  0
   -3.4990    1.5680    0.3930 H   0  0  0  0  0  0  0  0  0  0  0  0
   -2.4090    1.1440    1.7260 H   0  0  0  0  0  0  0  0  0  0  0  0
   -1.5710    2.4780   -0.9620 H   0  0  0  0  0  0  0  0  0  0  0  0
   -1.7250    3.2990    0.5860 H   0  0  0  0  0  0  0  0  0  0  0  0
    0.1420    2.0180    1.5760 H   0  0  0  0  0  0  0  0  0  0  0  0
    0.6820    2.5990    0.0030 H   0  0  0  0  0  0  0  0  0  0  0  0
   -0.5430   -1.4020   -0.4970 H   0  0  0  0  0  0  0  0  0  0  0  0
    3.9990    0.3430   -2.0850 H   0  0  0  0  0  0  0  0  0  0  0  0
    4.3670    1.1780   -0.5670 H   0  0  0  0  0  0  0  0  0  0  0  0
    3.8670   -1.8460   -1.0030 H   0  0  0  0  0  0  0  0  0  0  0  0
    5.2740   -1.0760   -0.2900 H   0  0  0  0  0  0  0  0  0  0  0  0
    3.8330   -2.0470    1.5230 H   0  0  0  0  0  0  0  0  0  0  0  0
    3.8850   -0.2990    1.6850 H   0  0  0  0  0  0  0  0  0  0  0  0
    1.6180   -2.0070    0.4570 H   0  0  0  0  0  0  0  0  0  0  0  0
    1.5210   -0.9500    1.8600 H   0  0  0  0  0  0  0  0  0  0  0  0
  1 18  1  0
  1 17  1  0
  1 16  1  0
  1  2  1  0
  2  3  2  0
  2  4  1  0
  4  9  1  0
  4  5  1  0
  5  6  1  0
  5 19  1  0
  5 20  1  0
  6 21  1  0
  6  7  1  0
  6 22  1  0
  7 24  1  0
  7  8  1  0
  7 23  1  0
  8  9  2  0
  8 10  1  0
  9 25  1  0
 10 11  2  0
 10 15  1  0
 11 12  1  0
 12 26  1  0
 12 27  1  0
 12 13  1  0
 13 28  1  0
 13 29  1  0
 13 14  1  0
 14 15  1  0
 14 30  1  0
 14 31  1  0
 15 32  1  0
 15 33  1  0
M  END
>  <id>  (856) 
969

>  <scaffolds>  (856) 
['C1=NCCCC1', 'C1=C(C2=NCCCC2)CCCN1']

>  <name>  (856) 
N-Acetylhystrine

>  <formula>  (856) 
C12H18N2O

>  <SMILES>  (856) 
CC(=O)N1CCCC(=C1)C2=NCCCC2

>  <ChEMBL_id>  (856) 


>  <ZINC_id>  (856) 


>  <PubChem_id>  (856) 
93270

>  <DrugBank_id>  (856) 


>  <CAS_no>  (856) 
52195-93-4

>  <references>  (856) 
[{'journal': {'name': 'Biochemical Systematics and Ecology', 'id': 24}, 'title': 'Chemotaxonomic value of alkaloids in the genus Dichilus', 'year': 1988, 'start_page': None, 'volume': None, 'issue': None, 'doi': '10.1016/0305-1978(88)90046-4', 'isbn': '', 'despositor': {'code': 'BND', 'first_name': "Bakary N'tji", 'last_name': 'Diallo', 'id': 26}, 'refauthors_set': [{'author': {'first_name': 'Rivett', 'initials': 'RD', 'last_name': 'D.', 'id': 1022}, 'first_author': True, 'id': 1603}], 'id': 504}]

>  <classifications>  (856) 
[{'classification': 'Pyridine', 'id': 922}, {'classification': 'Pyridines and derivatives (Classyfire)', 'id': 1000}]

>  <molecular_mass>  (856) 
206.28

$$$$
SANC00970_minRM1.pdb
     RDKit          3D

 35 36  0  0  1  0  0  0  0  0999 V2000
   -4.3310    1.0550   -0.4880 C   0  0  0  0  0  0  0  0  0  0  0  0
   -2.8500    1.2580   -0.3050 C   0  0  0  0  0  0  0  0  0  0  0  0
   -2.3590    2.3820   -0.2990 O   0  0  0  0  0  0  0  0  0  0  0  0
   -2.0360    0.1220   -0.1370 N   0  0  0  0  0  0  0  0  0  0  0  0
   -2.6170   -1.2320   -0.1410 C   0  0  0  0  0  0  0  0  0  0  0  0
   -1.6840   -2.2340    0.5410 C   0  0  0  0  0  0  0  0  0  0  0  0
   -0.3120   -2.1980   -0.1180 C   0  0  0  0  0  0  0  0  0  0  0  0
    0.2020   -0.8030   -0.1290 C   0  0  0  0  0  0  0  0  0  0  0  0
   -0.6260    0.2550   -0.1150 C   0  0  0  0  0  0  0  0  0  0  0  0
    1.6930   -0.6210   -0.1360 C   0  0  1  0  0  0  0  0  0  0  0  0
    2.1280    0.2920   -1.3000 C   0  0  0  0  0  0  0  0  0  0  0  0
    3.6380    0.4910   -1.2560 C   0  0  0  0  0  0  0  0  0  0  0  0
    4.0510    1.0750    0.0900 C   0  0  0  0  0  0  0  0  0  0  0  0
    3.5720    0.1570    1.2210 C   0  0  0  0  0  0  0  0  0  0  0  0
    2.1230   -0.1110    1.1860 N   0  0  0  0  0  0  0  0  0  0  0  0
   -4.8160    0.7100    0.4370 H   0  0  0  0  0  0  0  0  0  0  0  0
   -4.5710    0.3420   -1.2890 H   0  0  0  0  0  0  0  0  0  0  0  0
   -4.8240    2.0030   -0.7580 H   0  0  0  0  0  0  0  0  0  0  0  0
   -3.6010   -1.2440    0.3840 H   0  0  0  0  0  0  0  0  0  0  0  0
   -2.8340   -1.5510   -1.1890 H   0  0  0  0  0  0  0  0  0  0  0  0
   -1.5970   -2.0140    1.6270 H   0  0  0  0  0  0  0  0  0  0  0  0
   -2.1250   -3.2510    0.4910 H   0  0  0  0  0  0  0  0  0  0  0  0
   -0.3540   -2.5910   -1.1570 H   0  0  0  0  0  0  0  0  0  0  0  0
    0.3790   -2.8840    0.4170 H   0  0  0  0  0  0  0  0  0  0  0  0
   -0.2510    1.2900   -0.0870 H   0  0  0  0  0  0  0  0  0  0  0  0
    2.1970   -1.6190   -0.2750 H   0  0  0  0  0  0  0  0  0  0  0  0
    1.6160    1.2760   -1.2690 H   0  0  0  0  0  0  0  0  0  0  0  0
    1.8160   -0.1520   -2.2670 H   0  0  0  0  0  0  0  0  0  0  0  0
    4.1670   -0.4670   -1.4430 H   0  0  0  0  0  0  0  0  0  0  0  0
    3.9660    1.1540   -2.0840 H   0  0  0  0  0  0  0  0  0  0  0  0
    5.1510    1.2090    0.1400 H   0  0  0  0  0  0  0  0  0  0  0  0
    3.6400    2.0990    0.2140 H   0  0  0  0  0  0  0  0  0  0  0  0
    3.8330    0.5880    2.2150 H   0  0  0  0  0  0  0  0  0  0  0  0
    4.1130   -0.8170    1.1830 H   0  0  0  0  0  0  0  0  0  0  0  0
    1.5950    0.7350    1.4430 H   0  0  0  0  0  0  0  0  0  0  0  0
  1 17  1  0
  1 18  1  0
  1  2  1  0
  1 16  1  0
  2  3  2  0
  2  4  1  0
  4  5  1  0
  4  9  1  0
  5 20  1  0
  5 19  1  0
  5  6  1  0
  6  7  1  0
  6 22  1  0
  6 21  1  0
  7 23  1  0
  7  8  1  0
  7 24  1  0
  8 10  1  0
  8  9  2  0
  9 25  1  0
 10 11  1  0
 10 26  1  6
 10 15  1  0
 11 28  1  0
 11 27  1  0
 11 12  1  0
 12 30  1  0
 12 29  1  0
 12 13  1  0
 13 31  1  0
 13 32  1  0
 13 14  1  0
 14 34  1  0
 14 15  1  0
 14 33  1  0
 15 35  1  0
M  END
>  <id>  (857) 
970

>  <scaffolds>  (857) 
['C1CCNCC1', 'C1=C(C2CCCCN2)CCCN1']

>  <name>  (857) 
Ammodendrine

>  <formula>  (857) 
C12H20N2O

>  <SMILES>  (857) 
CC(=O)N1CCCC(=C1)[C@H]2CCCCN2

>  <ChEMBL_id>  (857) 
CHEMBL464777

>  <ZINC_id>  (857) 
ZINC4098568

>  <PubChem_id>  (857) 
442625

>  <DrugBank_id>  (857) 


>  <CAS_no>  (857) 
494-15-5

>  <references>  (857) 
[{'journal': {'name': 'Biochemical Systematics and Ecology', 'id': 24}, 'title': 'Chemotaxonomic value of alkaloids in the genus Dichilus', 'year': 1988, 'start_page': None, 'volume': None, 'issue': None, 'doi': '10.1016/0305-1978(88)90046-4', 'isbn': '', 'despositor': {'code': 'BND', 'first_name': "Bakary N'tji", 'last_name': 'Diallo', 'id': 26}, 'refauthors_set': [{'author': {'first_name': 'Rivett', 'initials': 'RD', 'last_name': 'D.', 'id': 1022}, 'first_author': True, 'id': 1603}], 'id': 504}]

>  <classifications>  (857) 
[{'classification': 'Pyridines and derivatives (Classyfire)', 'id': 1000}]

>  <molecular_mass>  (857) 
208.3

$$$$
SANC00971_minRM1.pdb
     RDKit          3D

 29 30  0  0  1  0  0  0  0  0999 V2000
    2.1940   -1.9400   -0.4650 C   0  0  0  0  0  0  0  0  0  0  0  0
    2.9240   -0.9360    0.4260 C   0  0  0  0  0  0  0  0  0  0  0  0
    1.9970    0.1540    0.9810 C   0  0  0  0  0  0  0  0  0  0  0  0
    1.0430    0.6000   -0.0420 N   0  0  0  0  0  0  0  0  0  0  0  0
    0.2190   -0.4310   -0.6910 C   0  0  1  0  0  0  0  0  0  0  0  0
    0.6840   -1.8440   -0.3030 C   0  0  0  0  0  0  0  0  0  0  0  0
   -1.2260   -0.2670   -0.2850 C   0  0  0  0  0  0  0  0  0  0  0  0
   -2.1960   -0.4200   -1.1310 N   0  0  0  0  0  0  0  0  0  0  0  0
   -3.4820   -0.2290   -0.4210 C   0  0  0  0  0  0  0  0  0  0  0  0
   -3.1600    0.0750    1.0600 C   0  0  0  0  0  0  0  0  0  0  0  0
   -1.6240    0.0620    1.1320 C   0  0  0  0  0  0  0  0  0  0  0  0
    0.9000    1.9330   -0.4230 C   0  0  0  0  0  0  0  0  0  0  0  0
    1.5610    2.8180    0.1070 O   0  0  0  0  0  0  0  0  0  0  0  0
    2.4680   -1.7860   -1.5310 H   0  0  0  0  0  0  0  0  0  0  0  0
    2.5360   -2.9740   -0.2480 H   0  0  0  0  0  0  0  0  0  0  0  0
    3.7640   -0.4730   -0.1340 H   0  0  0  0  0  0  0  0  0  0  0  0
    3.4180   -1.4500    1.2770 H   0  0  0  0  0  0  0  0  0  0  0  0
    1.4380   -0.2190    1.8730 H   0  0  0  0  0  0  0  0  0  0  0  0
    2.5990    1.0100    1.3660 H   0  0  0  0  0  0  0  0  0  0  0  0
    0.3130   -0.3180   -1.8110 H   0  0  0  0  0  0  0  0  0  0  0  0
    0.3810   -2.1120    0.7310 H   0  0  0  0  0  0  0  0  0  0  0  0
    0.1650   -2.5900   -0.9420 H   0  0  0  0  0  0  0  0  0  0  0  0
   -4.1040   -1.1400   -0.5490 H   0  0  0  0  0  0  0  0  0  0  0  0
   -4.0500    0.5880   -0.9160 H   0  0  0  0  0  0  0  0  0  0  0  0
   -3.6130   -0.6690    1.7410 H   0  0  0  0  0  0  0  0  0  0  0  0
   -3.5830    1.0450    1.3840 H   0  0  0  0  0  0  0  0  0  0  0  0
   -1.2340   -0.6800    1.8540 H   0  0  0  0  0  0  0  0  0  0  0  0
   -1.2040    1.0320    1.4620 H   0  0  0  0  0  0  0  0  0  0  0  0
    0.1500    2.1190   -1.2200 H   0  0  0  0  0  0  0  0  0  0  0  0
  1 14  1  0
  1  6  1  0
  1 15  1  0
  1  2  1  0
  2 16  1  0
  2  3  1  0
  2 17  1  0
  3  4  1  0
  3 19  1  0
  3 18  1  0
  4  5  1  0
  4 12  1  0
  5 20  1  6
  5  6  1  0
  5  7  1  0
  6 22  1  0
  6 21  1  0
  7  8  2  0
  7 11  1  0
  8  9  1  0
  9 24  1  0
  9 23  1  0
  9 10  1  0
 10 11  1  0
 10 26  1  0
 10 25  1  0
 11 28  1  0
 11 27  1  0
 12 29  1  0
 12 13  2  0
M  END
>  <id>  (858) 
971

>  <scaffolds>  (858) 
['C1CCNCC1', 'C1CCC(C2=NCCC2)NC1']

>  <name>  (858) 
Smipine

>  <formula>  (858) 
C10H16N2O

>  <SMILES>  (858) 
C1CCN(C(C1)C2=NCCC2)C=O

>  <ChEMBL_id>  (858) 


>  <ZINC_id>  (858) 


>  <PubChem_id>  (858) 
94549

>  <DrugBank_id>  (858) 


>  <CAS_no>  (858) 
52196-11-9

>  <references>  (858) 
[{'journal': {'name': 'Biochemical Systematics and Ecology', 'id': 24}, 'title': 'Chemotaxonomic value of alkaloids in the genus Dichilus', 'year': 1988, 'start_page': None, 'volume': None, 'issue': None, 'doi': '10.1016/0305-1978(88)90046-4', 'isbn': '', 'despositor': {'code': 'BND', 'first_name': "Bakary N'tji", 'last_name': 'Diallo', 'id': 26}, 'refauthors_set': [{'author': {'first_name': 'Rivett', 'initials': 'RD', 'last_name': 'D.', 'id': 1022}, 'first_author': True, 'id': 1603}], 'id': 504}]

>  <classifications>  (858) 
[{'classification': 'Piperidine', 'id': 923}, {'classification': 'Piperidines (Classyfire)', 'id': 999}]

>  <molecular_mass>  (858) 
180.25

$$$$
SANC00972_minRM1.pdb
     RDKit          3D

 38 39  0  0  1  0  0  0  0  0999 V2000
   -3.2790   -2.0310    0.1610 C   0  0  0  0  0  0  0  0  0  0  0  0
   -3.2910   -0.6200   -0.3650 C   0  0  0  0  0  0  0  0  0  0  0  0
   -4.3070   -0.1300   -0.8490 O   0  0  0  0  0  0  0  0  0  0  0  0
   -2.1140    0.1420   -0.2980 N   0  0  0  0  0  0  0  0  0  0  0  0
   -2.1350    1.5790   -0.6420 C   0  0  0  0  0  0  0  0  0  0  0  0
   -1.3270    2.3600    0.3960 C   0  0  0  0  0  0  0  0  0  0  0  0
    0.1150    1.8670    0.3970 C   0  0  0  0  0  0  0  0  0  0  0  0
    0.1800    0.3790    0.4420 C   0  0  0  0  0  0  0  0  0  0  0  0
   -0.8820   -0.3900    0.1420 C   0  0  0  0  0  0  0  0  0  0  0  0
    1.4610   -0.2430    0.9340 C   0  0  1  0  0  0  0  0  0  0  0  0
    1.6630   -1.6770    0.4100 C   0  0  0  0  0  0  0  0  0  0  0  0
    1.9310   -1.6720   -1.0880 C   0  0  0  0  0  0  0  0  0  0  0  0
    3.1490   -0.8140   -1.3990 C   0  0  0  0  0  0  0  0  0  0  0  0
    2.9330    0.5960   -0.8460 C   0  0  0  0  0  0  0  0  0  0  0  0
    2.6170    0.6420    0.6030 N   0  0  0  0  0  0  0  0  0  0  0  0
    3.8020    0.3280    1.4350 C   0  0  0  0  0  0  0  0  0  0  0  0
   -2.9080   -2.0950    1.1940 H   0  0  0  0  0  0  0  0  0  0  0  0
   -2.6740   -2.7020   -0.4670 H   0  0  0  0  0  0  0  0  0  0  0  0
   -4.2970   -2.4520    0.1700 H   0  0  0  0  0  0  0  0  0  0  0  0
   -3.1760    1.9740   -0.6980 H   0  0  0  0  0  0  0  0  0  0  0  0
   -1.7130    1.7200   -1.6650 H   0  0  0  0  0  0  0  0  0  0  0  0
   -1.7810    2.2600    1.4040 H   0  0  0  0  0  0  0  0  0  0  0  0
   -1.3720    3.4460    0.1740 H   0  0  0  0  0  0  0  0  0  0  0  0
    0.6490    2.2350   -0.5070 H   0  0  0  0  0  0  0  0  0  0  0  0
    0.6690    2.3120    1.2510 H   0  0  0  0  0  0  0  0  0  0  0  0
   -0.8160   -1.4870    0.2090 H   0  0  0  0  0  0  0  0  0  0  0  0
    1.3630   -0.2800    2.0570 H   0  0  0  0  0  0  0  0  0  0  0  0
    0.7760   -2.3060    0.6440 H   0  0  0  0  0  0  0  0  0  0  0  0
    2.4920   -2.1770    0.9530 H   0  0  0  0  0  0  0  0  0  0  0  0
    2.0790   -2.7080   -1.4600 H   0  0  0  0  0  0  0  0  0  0  0  0
    1.0440   -1.3010   -1.6440 H   0  0  0  0  0  0  0  0  0  0  0  0
    4.0730   -1.2720   -0.9880 H   0  0  0  0  0  0  0  0  0  0  0  0
    3.3300   -0.7710   -2.4930 H   0  0  0  0  0  0  0  0  0  0  0  0
    3.8210    1.2380   -1.0490 H   0  0  0  0  0  0  0  0  0  0  0  0
    2.0950    1.0960   -1.3880 H   0  0  0  0  0  0  0  0  0  0  0  0
    4.2480   -0.6780    1.3220 H   0  0  0  0  0  0  0  0  0  0  0  0
    3.5580    0.4460    2.5050 H   0  0  0  0  0  0  0  0  0  0  0  0
    4.6070    1.0540    1.2220 H   0  0  0  0  0  0  0  0  0  0  0  0
  1 18  1  0
  1  2  1  0
  1 19  1  0
  1 17  1  0
  2  3  2  0
  2  4  1  0
  4  5  1  0
  4  9  1  0
  5 21  1  0
  5 20  1  0
  5  6  1  0
  6 23  1  0
  6  7  1  0
  6 22  1  0
  7 24  1  0
  7  8  1  0
  7 25  1  0
  8  9  2  0
  8 10  1  0
  9 26  1  0
 10 11  1  0
 10 15  1  0
 10 27  1  1
 11 12  1  0
 11 28  1  0
 11 29  1  0
 12 31  1  0
 12 30  1  0
 12 13  1  0
 13 33  1  0
 13 32  1  0
 13 14  1  0
 14 35  1  0
 14 34  1  0
 14 15  1  0
 15 16  1  0
 16 38  1  0
 16 36  1  0
 16 37  1  0
M  END
>  <id>  (859) 
972

>  <scaffolds>  (859) 
['C1CCNCC1', 'C1=C(C2CCCCN2)CCCN1']

>  <name>  (859) 
N'-Methylammodendrine

>  <formula>  (859) 
C13H22N2O

>  <SMILES>  (859) 
CC(=O)N1CCCC(=C1)[C@H]2CCCCN2C

>  <ChEMBL_id>  (859) 
CHEMBL464465

>  <ZINC_id>  (859) 


>  <PubChem_id>  (859) 
171125

>  <DrugBank_id>  (859) 


>  <CAS_no>  (859) 
52196-10-8

>  <references>  (859) 
[{'journal': {'name': 'Biochemical Systematics and Ecology', 'id': 24}, 'title': 'Chemotaxonomic value of alkaloids in the genus Dichilus', 'year': 1988, 'start_page': None, 'volume': None, 'issue': None, 'doi': '10.1016/0305-1978(88)90046-4', 'isbn': '', 'despositor': {'code': 'BND', 'first_name': "Bakary N'tji", 'last_name': 'Diallo', 'id': 26}, 'refauthors_set': [{'author': {'first_name': 'Rivett', 'initials': 'RD', 'last_name': 'D.', 'id': 1022}, 'first_author': True, 'id': 1603}], 'id': 504}]

>  <classifications>  (859) 
[{'classification': 'Pyridine', 'id': 922}, {'classification': 'Pyridines and derivatives (Classyfire)', 'id': 1000}]

>  <molecular_mass>  (859) 
222.33

$$$$
SANC00973_minRM1.pdb
     RDKit          3D

 50 53  0  0  1  0  0  0  0  0999 V2000
    0.0990   -1.0990    2.6550 C   0  0  0  0  0  0  0  0  0  0  0  0
    0.1160   -0.1770    1.4050 C   0  0  1  0  0  0  0  0  0  0  0  0
    0.1790    1.2630    1.9340 C   0  0  0  0  0  0  0  0  0  0  0  0
    0.8080    2.2370    0.9570 C   0  0  0  0  0  0  0  0  0  0  0  0
    2.2150    1.7620    0.6260 C   0  0  0  0  0  0  0  0  0  0  0  0
    2.1220    0.4820   -0.2110 C   0  0  1  0  0  0  0  0  0  0  0  0
    1.3490   -0.5990    0.5750 C   0  0  2  0  0  0  0  0  0  0  0  0
    2.0980   -0.9450    1.3480 H   0  0  0  0  0  0  0  0  0  0  0  0
    1.0100   -1.8260   -0.2730 C   0  0  0  0  0  0  0  0  0  0  0  0
   -0.1490   -1.6730   -1.2520 C   0  0  0  0  0  0  0  0  0  0  0  0
   -1.3630   -0.9650   -0.6710 C   0  0  2  0  0  0  0  0  0  0  0  0
   -1.1870   -0.4410    0.7320 C   0  0  0  0  0  0  0  0  0  0  0  0
   -2.3800   -0.4250    1.3480 C   0  0  0  0  0  0  0  0  0  0  0  0
   -4.0950    0.0820   -0.3480 C   0  0  0  0  0  0  0  0  0  0  0  0
   -3.4380   -1.0300    0.4630 C   0  0  1  0  0  0  0  0  0  0  0  0
   -4.1900   -1.6190    1.0320 H   0  0  0  0  0  0  0  0  0  0  0  0
   -2.5870   -1.8970   -0.4850 C   0  0  0  0  0  0  0  0  0  0  0  0
   -3.0590    0.8860   -1.0660 C   0  0  0  0  0  0  0  0  0  0  0  0
   -3.2330    2.1880   -1.2790 C   0  0  0  0  0  0  0  0  0  0  0  0
   -1.8480    0.1770   -1.5840 C   0  0  0  0  0  0  0  0  0  0  0  0
    1.5520    0.8310   -1.5780 C   0  0  0  0  0  0  0  0  0  0  0  0
    3.5570   -0.0020   -0.4440 C   0  0  0  0  0  0  0  0  0  0  0  0
    4.0760   -1.0050    0.0120 O   0  0  0  0  0  0  0  0  0  0  0  0
    4.3940    0.7450   -1.2090 O   0  0  0  0  0  0  0  0  0  0  0  0
    1.0620   -1.1120    3.1870 H   0  0  0  0  0  0  0  0  0  0  0  0
   -0.1350   -2.1430    2.4050 H   0  0  0  0  0  0  0  0  0  0  0  0
   -0.6490   -0.7870    3.3980 H   0  0  0  0  0  0  0  0  0  0  0  0
    0.7480    1.3000    2.8910 H   0  0  0  0  0  0  0  0  0  0  0  0
   -0.8350    1.6150    2.2200 H   0  0  0  0  0  0  0  0  0  0  0  0
    0.1870    2.3420    0.0410 H   0  0  0  0  0  0  0  0  0  0  0  0
    0.8340    3.2590    1.3910 H   0  0  0  0  0  0  0  0  0  0  0  0
    2.8050    1.5870    1.5520 H   0  0  0  0  0  0  0  0  0  0  0  0
    2.7760    2.5610    0.0970 H   0  0  0  0  0  0  0  0  0  0  0  0
    0.7890   -2.6770    0.4090 H   0  0  0  0  0  0  0  0  0  0  0  0
    1.9130   -2.1660   -0.8260 H   0  0  0  0  0  0  0  0  0  0  0  0
   -0.4370   -2.6820   -1.6240 H   0  0  0  0  0  0  0  0  0  0  0  0
    0.2060   -1.1760   -2.1830 H   0  0  0  0  0  0  0  0  0  0  0  0
   -2.6260   -0.0670    2.3410 H   0  0  0  0  0  0  0  0  0  0  0  0
   -4.8130   -0.3350   -1.0860 H   0  0  0  0  0  0  0  0  0  0  0  0
   -4.7150    0.7210    0.3170 H   0  0  0  0  0  0  0  0  0  0  0  0
   -3.0930   -2.1640   -1.4280 H   0  0  0  0  0  0  0  0  0  0  0  0
   -2.3110   -2.8630   -0.0200 H   0  0  0  0  0  0  0  0  0  0  0  0
   -4.1030    2.7450   -0.9460 H   0  0  0  0  0  0  0  0  0  0  0  0
   -2.5230    2.8180   -1.8060 H   0  0  0  0  0  0  0  0  0  0  0  0
   -1.0280    0.9090   -1.7510 H   0  0  0  0  0  0  0  0  0  0  0  0
   -2.0800   -0.2190   -2.5970 H   0  0  0  0  0  0  0  0  0  0  0  0
    1.5060   -0.0310   -2.2620 H   0  0  0  0  0  0  0  0  0  0  0  0
    2.1420    1.6060   -2.0980 H   0  0  0  0  0  0  0  0  0  0  0  0
    0.5320    1.2420   -1.4940 H   0  0  0  0  0  0  0  0  0  0  0  0
    3.9200    1.4750   -1.6250 H   0  0  0  0  0  0  0  0  0  0  0  0
  1 26  1  0
  1 25  1  0
  1 27  1  0
  2  1  1  1
  2  7  1  0
  2 12  1  0
  2  3  1  0
  3  4  1  0
  3 29  1  0
  3 28  1  0
  4 30  1  0
  4  5  1  0
  4 31  1  0
  5  6  1  0
  5 33  1  0
  5 32  1  0
  6 21  1  0
  6 22  1  6
  6  7  1  0
  7  9  1  0
  7  8  1  1
  9 10  1  0
  9 35  1  0
  9 34  1  0
 10 37  1  0
 10 36  1  0
 11 10  1  6
 11 20  1  0
 11 17  1  0
 11 12  1  0
 12 13  2  0
 13 15  1  0
 13 38  1  0
 14 39  1  0
 14 18  1  0
 14 40  1  0
 14 15  1  0
 15 17  1  0
 15 16  1  1
 17 41  1  0
 17 42  1  0
 18 20  1  0
 18 19  2  0
 19 44  1  0
 19 43  1  0
 20 46  1  0
 20 45  1  0
 21 47  1  0
 21 48  1  0
 21 49  1  0
 22 24  1  0
 22 23  2  0
 24 50  1  0
M  END
>  <id>  (860) 
973

>  <scaffolds>  (860) 
['C1=CCCCC1', 'C1CCCCC1', 'C=C1CCCC2CCCCC12', 'C1=C2CCCCC2CCC1', 'C=C1CC23CCC4CCCCC4C2=CCC1C3', 'C1CCC2CCCCC2C1']

>  <name>  (860) 
Grandiflorenic acid

>  <formula>  (860) 
C20H28O2

>  <SMILES>  (860) 
C[C@@]12CCC[C@@]([C@H]1CC[C@]34C2=CC[C@@H](C3)C(=C)C4)(C)C(=O)O

>  <ChEMBL_id>  (860) 


>  <ZINC_id>  (860) 
ZINC100059658

>  <PubChem_id>  (860) 
12310342

>  <DrugBank_id>  (860) 


>  <CAS_no>  (860) 
22338-67-6

>  <references>  (860) 
[{'journal': {'name': 'Biochemical Systematics and Ecology', 'id': 24}, 'title': 'A chemotaxonomic survey of kaurene derivatives in the genus Alepidea (Apiaceae)', 'year': 1995, 'start_page': None, 'volume': None, 'issue': None, 'doi': '10.1016/0305-1978(95)00064-X', 'isbn': '', 'despositor': {'code': 'BND', 'first_name': "Bakary N'tji", 'last_name': 'Diallo', 'id': 26}, 'refauthors_set': [{'author': {'first_name': 'Holzapfel', 'initials': 'HC', 'last_name': 'Cedric', 'id': 1023}, 'first_author': True, 'id': 1604}], 'id': 505}]

>  <classifications>  (860) 
[{'classification': 'Diterpene', 'id': 771}, {'classification': 'Phenol lipids (Classyfire)', 'id': 951}]

>  <molecular_mass>  (860) 
300.4

$$$$
SANC00974_minRM1.pdb
     RDKit          3D

 34 36  0  0  0  0  0  0  0  0999 V2000
    0.9050    3.3690   -0.6510 C   0  0  0  0  0  0  0  0  0  0  0  0
    0.9610    2.4350    0.4070 O   0  0  0  0  0  0  0  0  0  0  0  0
    0.1110    1.3790    0.2330 C   0  0  0  0  0  0  0  0  0  0  0  0
    0.6310    0.1320    0.1290 C   0  0  0  0  0  0  0  0  0  0  0  0
   -0.1370   -0.9950    0.0530 O   0  0  0  0  0  0  0  0  0  0  0  0
   -1.4940   -0.8590    0.0780 C   0  0  0  0  0  0  0  0  0  0  0  0
   -2.2080   -2.0470   -0.0080 C   0  0  0  0  0  0  0  0  0  0  0  0
   -3.6060   -1.9480    0.0200 C   0  0  0  0  0  0  0  0  0  0  0  0
   -4.2830   -0.7310    0.1250 C   0  0  0  0  0  0  0  0  0  0  0  0
   -3.5220    0.4370    0.2080 C   0  0  0  0  0  0  0  0  0  0  0  0
   -2.1140    0.3870    0.1830 C   0  0  0  0  0  0  0  0  0  0  0  0
   -1.3290    1.6000    0.2700 C   0  0  0  0  0  0  0  0  0  0  0  0
   -1.8760    2.7010    0.3590 O   0  0  0  0  0  0  0  0  0  0  0  0
   -4.1930    1.5870    0.3080 O   0  0  0  0  0  0  0  0  0  0  0  0
   -4.2550   -3.1280   -0.0660 O   0  0  0  0  0  0  0  0  0  0  0  0
    2.0480   -0.2120    0.1040 C   0  0  0  0  0  0  0  0  0  0  0  0
    2.5360   -1.0950   -0.8560 C   0  0  0  0  0  0  0  0  0  0  0  0
    3.8860   -1.4090   -0.8890 C   0  0  0  0  0  0  0  0  0  0  0  0
    4.7350   -0.8300    0.0570 C   0  0  0  0  0  0  0  0  0  0  0  0
    4.2550    0.0510    1.0330 C   0  0  0  0  0  0  0  0  0  0  0  0
    2.9040    0.3550    1.0510 C   0  0  0  0  0  0  0  0  0  0  0  0
    6.0660   -1.0720    0.1040 O   0  0  0  0  0  0  0  0  0  0  0  0
    0.9450    2.9110   -1.6530 H   0  0  0  0  0  0  0  0  0  0  0  0
    0.0190    4.0200   -0.5940 H   0  0  0  0  0  0  0  0  0  0  0  0
    1.8060    3.9830   -0.5030 H   0  0  0  0  0  0  0  0  0  0  0  0
   -1.7100   -3.0160   -0.0880 H   0  0  0  0  0  0  0  0  0  0  0  0
   -5.3740   -0.6710    0.1460 H   0  0  0  0  0  0  0  0  0  0  0  0
   -3.5690    2.3550    0.3690 H   0  0  0  0  0  0  0  0  0  0  0  0
   -5.2070   -2.9750   -0.0330 H   0  0  0  0  0  0  0  0  0  0  0  0
    1.8570   -1.5420   -1.5900 H   0  0  0  0  0  0  0  0  0  0  0  0
    4.2660   -2.0990   -1.6470 H   0  0  0  0  0  0  0  0  0  0  0  0
    4.9380    0.4880    1.7660 H   0  0  0  0  0  0  0  0  0  0  0  0
    2.5130    1.0340    1.8170 H   0  0  0  0  0  0  0  0  0  0  0  0
    6.2980   -1.6940   -0.5950 H   0  0  0  0  0  0  0  0  0  0  0  0
  1 23  1  0
  1 24  1  0
  1 25  1  0
  1  2  1  0
  2  3  1  0
  3  4  2  0
  3 12  1  0
  4  5  1  0
  4 16  1  0
  5  6  1  0
  6  7  2  0
  6 11  1  0
  7 26  1  0
  7  8  1  0
  8 15  1  0
  8  9  2  0
  9 27  1  0
  9 10  1  0
 10 11  2  0
 10 14  1  0
 11 12  1  0
 12 13  2  0
 14 28  1  0
 15 29  1  0
 16 17  2  0
 16 21  1  0
 17 30  1  0
 17 18  1  0
 18 31  1  0
 18 19  2  0
 19 22  1  0
 19 20  1  0
 20 21  2  0
 20 32  1  0
 21 33  1  0
 22 34  1  0
M  END
>  <id>  (861) 
974

>  <scaffolds>  (861) 
['c1ccccc1', 'O=c1cc(-c2ccccc2)oc2ccccc12', 'O=c1ccoc2ccccc12']

>  <name>  (861) 
Kaempferol 3-methyl ether

>  <formula>  (861) 
C16H12O6

>  <SMILES>  (861) 
COC1=C(OC2=CC(=CC(=C2C1=O)O)O)C3=CC=C(C=C3)O

>  <ChEMBL_id>  (861) 
SCHEMBL4637442

>  <ZINC_id>  (861) 
ZINC5732268

>  <PubChem_id>  (861) 
5280862

>  <DrugBank_id>  (861) 


>  <CAS_no>  (861) 
1592-70-7

>  <references>  (861) 
[{'journal': {'name': 'Biochemical Systematics and Ecology', 'id': 24}, 'title': 'Chemical constituents from Elytropappus rhinocerotis (L.f.) Less.', 'year': 2017, 'start_page': None, 'volume': None, 'issue': None, 'doi': 'https://doi.org/10.1016/j.bse.2017.10.002', 'isbn': '', 'despositor': {'code': 'BND', 'first_name': "Bakary N'tji", 'last_name': 'Diallo', 'id': 26}, 'refauthors_set': [{'author': {'first_name': 'Mshengu', 'initials': 'MB', 'last_name': 'Bongiwe', 'id': 1024}, 'first_author': True, 'id': 1605}], 'id': 506}]

>  <classifications>  (861) 
[{'classification': 'Flavonoids', 'id': 776}, {'classification': 'Flavonoids (Classyfire)', 'id': 941}]

>  <molecular_mass>  (861) 
300.26

$$$$
SANC00975_minRM1.pdb
     RDKit          3D

 33 35  0  0  0  0  0  0  0  0999 V2000
    6.8040    0.1410    0.3130 C   0  0  0  0  0  0  0  0  0  0  0  0
    5.8460   -0.7820   -0.1410 O   0  0  0  0  0  0  0  0  0  0  0  0
    4.5370   -0.4230   -0.0510 C   0  0  0  0  0  0  0  0  0  0  0  0
    3.6660   -1.3180   -0.6920 C   0  0  0  0  0  0  0  0  0  0  0  0
    2.3080   -1.0620   -0.6770 C   0  0  0  0  0  0  0  0  0  0  0  0
    1.8170    0.0760   -0.0320 C   0  0  0  0  0  0  0  0  0  0  0  0
    2.6870    0.9440    0.6200 C   0  0  0  0  0  0  0  0  0  0  0  0
    4.0550    0.7030    0.6150 C   0  0  0  0  0  0  0  0  0  0  0  0
    0.3910    0.3890   -0.0540 C   0  0  0  0  0  0  0  0  0  0  0  0
   -0.1200    1.6230   -0.2290 C   0  0  0  0  0  0  0  0  0  0  0  0
   -1.5590    1.8220   -0.2380 C   0  0  0  0  0  0  0  0  0  0  0  0
   -2.1090    2.9170   -0.3750 O   0  0  0  0  0  0  0  0  0  0  0  0
   -2.3450    0.6160   -0.0780 C   0  0  0  0  0  0  0  0  0  0  0  0
   -3.7540    0.6600   -0.0960 C   0  0  0  0  0  0  0  0  0  0  0  0
   -4.5110   -0.5050    0.0470 C   0  0  0  0  0  0  0  0  0  0  0  0
   -3.8280   -1.7110    0.2110 C   0  0  0  0  0  0  0  0  0  0  0  0
   -2.4280   -1.8030    0.2390 C   0  0  0  0  0  0  0  0  0  0  0  0
   -1.7190   -0.6170    0.0910 C   0  0  0  0  0  0  0  0  0  0  0  0
   -0.3600   -0.7390    0.1230 O   0  0  0  0  0  0  0  0  0  0  0  0
   -4.6170   -2.7980    0.3420 O   0  0  0  0  0  0  0  0  0  0  0  0
   -4.4270    1.8040   -0.2500 O   0  0  0  0  0  0  0  0  0  0  0  0
    6.7410    1.1220   -0.1870 H   0  0  0  0  0  0  0  0  0  0  0  0
    7.7620   -0.3320    0.0440 H   0  0  0  0  0  0  0  0  0  0  0  0
    6.7780    0.2880    1.4050 H   0  0  0  0  0  0  0  0  0  0  0  0
    4.0620   -2.2040   -1.1980 H   0  0  0  0  0  0  0  0  0  0  0  0
    1.6210   -1.7520   -1.1800 H   0  0  0  0  0  0  0  0  0  0  0  0
    2.3000    1.8210    1.1520 H   0  0  0  0  0  0  0  0  0  0  0  0
    4.7130    1.4010    1.1360 H   0  0  0  0  0  0  0  0  0  0  0  0
    0.5190    2.4950   -0.3870 H   0  0  0  0  0  0  0  0  0  0  0  0
   -5.6030   -0.4700    0.0300 H   0  0  0  0  0  0  0  0  0  0  0  0
   -1.9080   -2.7530    0.3730 H   0  0  0  0  0  0  0  0  0  0  0  0
   -4.0680   -3.5840    0.4500 H   0  0  0  0  0  0  0  0  0  0  0  0
   -3.8010    2.5680   -0.3420 H   0  0  0  0  0  0  0  0  0  0  0  0
  1 22  1  0
  1  2  1  0
  1 23  1  0
  1 24  1  0
  2  3  1  0
  3  4  2  0
  3  8  1  0
  4 25  1  0
  4  5  1  0
  5 26  1  0
  5  6  2  0
  6  9  1  0
  6  7  1  0
  7  8  2  0
  7 27  1  0
  8 28  1  0
  9 10  2  0
  9 19  1  0
 10 29  1  0
 10 11  1  0
 11 12  2  0
 11 13  1  0
 13 14  2  0
 13 18  1  0
 14 21  1  0
 14 15  1  0
 15 30  1  0
 15 16  2  0
 16 17  1  0
 16 20  1  0
 17 18  2  0
 17 31  1  0
 18 19  1  0
 20 32  1  0
 21 33  1  0
M  END
>  <id>  (862) 
975

>  <scaffolds>  (862) 
['c1ccccc1', 'O=c1cc(-c2ccccc2)oc2ccccc12', 'O=c1ccoc2ccccc12']

>  <name>  (862) 
Buddleoflavonol

>  <formula>  (862) 
C16H12O5

>  <SMILES>  (862) 
COC1=CC=C(C=C1)C2=CC(=O)C3=C(C=C(C=C3O2)O)O

>  <ChEMBL_id>  (862) 
SCHEMBL107712

>  <ZINC_id>  (862) 
ZINC3871358

>  <PubChem_id>  (862) 
5280442

>  <DrugBank_id>  (862) 


>  <CAS_no>  (862) 
480-44-4

>  <references>  (862) 
[{'journal': {'name': 'Biochemical Systematics and Ecology', 'id': 24}, 'title': 'Chemical constituents from Elytropappus rhinocerotis (L.f.) Less.', 'year': 2017, 'start_page': None, 'volume': None, 'issue': None, 'doi': 'https://doi.org/10.1016/j.bse.2017.10.002', 'isbn': '', 'despositor': {'code': 'BND', 'first_name': "Bakary N'tji", 'last_name': 'Diallo', 'id': 26}, 'refauthors_set': [{'author': {'first_name': 'Mshengu', 'initials': 'MB', 'last_name': 'Bongiwe', 'id': 1024}, 'first_author': True, 'id': 1605}], 'id': 506}]

>  <classifications>  (862) 
[{'classification': 'Flavonoids', 'id': 776}, {'classification': 'Flavonoids (Classyfire)', 'id': 941}]

>  <molecular_mass>  (862) 
284.26

$$$$
SANC00976_minRM1.pdb
     RDKit          3D

 83 87  0  0  1  0  0  0  0  0999 V2000
   -3.4820    2.9780    0.9700 C   0  0  0  0  0  0  0  0  0  0  0  0
   -4.6090    2.2180    0.2800 C   0  0  2  0  0  0  0  0  0  0  0  0
   -5.3320    1.3120    1.2680 C   0  0  0  0  0  0  0  0  0  0  0  0
   -4.4860    0.1100    1.6440 C   0  0  0  0  0  0  0  0  0  0  0  0
   -4.0720   -0.7200    0.4240 C   0  0  2  0  0  0  0  0  0  0  0  0
   -3.2580   -1.9500    0.8870 C   0  0  0  0  0  0  0  0  0  0  0  0
   -1.8640   -2.0190    0.2870 C   0  0  0  0  0  0  0  0  0  0  0  0
   -1.1170   -0.6910    0.4460 C   0  0  2  0  0  0  0  0  0  0  0  0
   -1.8830    0.3970   -0.2510 C   0  0  0  0  0  0  0  0  0  0  0  0
   -1.2340    1.4740   -0.6990 C   0  0  0  0  0  0  0  0  0  0  0  0
    0.2310    1.7010   -0.6080 C   0  0  0  0  0  0  0  0  0  0  0  0
    1.0170    0.5530    0.0240 C   0  0  1  0  0  0  0  0  0  0  0  0
    0.3000   -0.7870   -0.2130 C   0  0  1  0  0  0  0  0  0  0  0  0
    1.1170   -1.9090    0.4320 C   0  0  0  0  0  0  0  0  0  0  0  0
    2.5710   -1.8860   -0.0310 C   0  0  0  0  0  0  0  0  0  0  0  0
    3.2250   -0.5650    0.3660 C   0  0  2  0  0  0  0  0  0  0  0  0
    2.5140    0.5770   -0.3910 C   0  0  2  0  0  0  0  0  0  0  0  0
    3.1100    1.9160    0.0700 C   0  0  0  0  0  0  0  0  0  0  0  0
    4.6220    1.9410   -0.1550 C   0  0  2  0  0  0  0  0  0  0  0  0
    5.3010    0.8050    0.6450 C   0  0  1  0  0  0  0  0  0  0  0  0
    4.7630   -0.5910    0.2310 C   0  0  2  0  0  0  0  0  0  0  0  0
    5.2540   -0.9640   -1.1610 C   0  0  0  0  0  0  0  0  0  0  0  0
    5.3600   -1.5960    1.2670 C   0  0  0  0  0  0  0  0  0  0  0  0
    5.3200   -2.9240    0.8510 O   0  0  0  0  0  0  0  0  0  0  0  0
    6.6760    0.7940    0.3920 O   0  0  0  0  0  0  0  0  0  0  0  0
    5.1740    3.1710    0.2070 O   0  0  0  0  0  0  0  0  0  0  0  0
    2.6750    0.4820   -1.9020 C   0  0  0  0  0  0  0  0  0  0  0  0
    0.1220   -1.1060   -1.6970 C   0  0  0  0  0  0  0  0  0  0  0  0
   -3.3260    0.1480   -0.6020 C   0  0  2  0  0  0  0  0  0  0  0  0
   -4.1150    1.4300   -0.9380 C   0  0  1  0  0  0  0  0  0  0  0  0
   -5.2930    1.1290   -1.8650 C   0  0  0  0  0  0  0  0  0  0  0  0
   -1.0260   -0.3550    1.9380 C   0  0  0  0  0  0  0  0  0  0  0  0
   -5.3300   -1.3170   -0.1860 C   0  0  0  0  0  0  0  0  0  0  0  0
   -6.4340   -1.4290    0.3250 O   0  0  0  0  0  0  0  0  0  0  0  0
   -5.1420   -1.8740   -1.4050 O   0  0  0  0  0  0  0  0  0  0  0  0
   -2.6730    2.3300    1.3340 H   0  0  0  0  0  0  0  0  0  0  0  0
   -3.0150    3.7200    0.3060 H   0  0  0  0  0  0  0  0  0  0  0  0
   -3.8450    3.5420    1.8440 H   0  0  0  0  0  0  0  0  0  0  0  0
   -5.3430    2.9900   -0.0820 H   0  0  0  0  0  0  0  0  0  0  0  0
   -5.6010    1.8790    2.1870 H   0  0  0  0  0  0  0  0  0  0  0  0
   -6.3200    1.0030    0.8680 H   0  0  0  0  0  0  0  0  0  0  0  0
   -3.5760    0.4330    2.1980 H   0  0  0  0  0  0  0  0  0  0  0  0
   -5.0430   -0.5220    2.3710 H   0  0  0  0  0  0  0  0  0  0  0  0
   -3.1950   -1.9900    1.9960 H   0  0  0  0  0  0  0  0  0  0  0  0
   -3.7880   -2.9010    0.6510 H   0  0  0  0  0  0  0  0  0  0  0  0
   -1.3040   -2.8520    0.7650 H   0  0  0  0  0  0  0  0  0  0  0  0
   -1.9180   -2.3140   -0.7860 H   0  0  0  0  0  0  0  0  0  0  0  0
   -1.7650    2.2770   -1.2300 H   0  0  0  0  0  0  0  0  0  0  0  0
    0.4010    2.6440   -0.0400 H   0  0  0  0  0  0  0  0  0  0  0  0
    0.6080    1.9240   -1.6350 H   0  0  0  0  0  0  0  0  0  0  0  0
    1.0080    0.7290    1.1380 H   0  0  0  0  0  0  0  0  0  0  0  0
    1.0810   -1.8540    1.5400 H   0  0  0  0  0  0  0  0  0  0  0  0
    0.6740   -2.9010    0.1950 H   0  0  0  0  0  0  0  0  0  0  0  0
    2.6310   -2.0500   -1.1300 H   0  0  0  0  0  0  0  0  0  0  0  0
    3.0910   -2.7610    0.4070 H   0  0  0  0  0  0  0  0  0  0  0  0
    3.0240   -0.4010    1.4620 H   0  0  0  0  0  0  0  0  0  0  0  0
    2.6580    2.7700   -0.4770 H   0  0  0  0  0  0  0  0  0  0  0  0
    2.8730    2.1120    1.1370 H   0  0  0  0  0  0  0  0  0  0  0  0
    4.8750    1.8730   -1.2470 H   0  0  0  0  0  0  0  0  0  0  0  0
    5.1120    0.9660    1.7450 H   0  0  0  0  0  0  0  0  0  0  0  0
    5.0770   -0.1760   -1.9090 H   0  0  0  0  0  0  0  0  0  0  0  0
    6.3410   -1.1400   -1.1840 H   0  0  0  0  0  0  0  0  0  0  0  0
    4.7800   -1.8740   -1.5530 H   0  0  0  0  0  0  0  0  0  0  0  0
    6.3960   -1.3080    1.5590 H   0  0  0  0  0  0  0  0  0  0  0  0
    4.7760   -1.6000    2.2130 H   0  0  0  0  0  0  0  0  0  0  0  0
    6.0030   -3.0540    0.1860 H   0  0  0  0  0  0  0  0  0  0  0  0
    7.0230    1.6780    0.5500 H   0  0  0  0  0  0  0  0  0  0  0  0
    4.8980    3.3880    1.1030 H   0  0  0  0  0  0  0  0  0  0  0  0
    2.5320   -0.5430   -2.2840 H   0  0  0  0  0  0  0  0  0  0  0  0
    1.9550    1.1250   -2.4360 H   0  0  0  0  0  0  0  0  0  0  0  0
    3.6760    0.7960   -2.2490 H   0  0  0  0  0  0  0  0  0  0  0  0
    1.0600   -1.4290   -2.1790 H   0  0  0  0  0  0  0  0  0  0  0  0
   -0.5880   -1.9350   -1.8630 H   0  0  0  0  0  0  0  0  0  0  0  0
   -0.2560   -0.2660   -2.2940 H   0  0  0  0  0  0  0  0  0  0  0  0
   -3.2240   -0.4390   -1.5590 H   0  0  0  0  0  0  0  0  0  0  0  0
   -3.4340    2.1060   -1.5280 H   0  0  0  0  0  0  0  0  0  0  0  0
   -5.6720    2.0470   -2.3410 H   0  0  0  0  0  0  0  0  0  0  0  0
   -5.0230    0.4540   -2.6900 H   0  0  0  0  0  0  0  0  0  0  0  0
   -6.1620    0.6840   -1.3620 H   0  0  0  0  0  0  0  0  0  0  0  0
   -0.2740    0.4180    2.1650 H   0  0  0  0  0  0  0  0  0  0  0  0
   -0.7750   -1.2260    2.5600 H   0  0  0  0  0  0  0  0  0  0  0  0
   -1.9730    0.0470    2.3360 H   0  0  0  0  0  0  0  0  0  0  0  0
   -5.9580   -2.2730   -1.7380 H   0  0  0  0  0  0  0  0  0  0  0  0
  1  2  1  0
  1 37  1  0
  1 36  1  0
  1 38  1  0
  2 30  1  0
  2 39  1  6
  2  3  1  0
  3 41  1  0
  3  4  1  0
  3 40  1  0
  4  5  1  0
  4 42  1  0
  4 43  1  0
  5 29  1  0
  5 33  1  6
  5  6  1  0
  6  7  1  0
  6 45  1  0
  6 44  1  0
  7 47  1  0
  7  8  1  0
  7 46  1  0
  8  9  1  0
  8 13  1  0
  8 32  1  1
  9 10  2  0
  9 29  1  0
 10 48  1  0
 10 11  1  0
 11 50  1  0
 11 49  1  0
 11 12  1  0
 12 17  1  0
 12 13  1  0
 12 51  1  1
 13 28  1  6
 13 14  1  0
 14 15  1  0
 14 53  1  0
 14 52  1  0
 15 54  1  0
 15 16  1  0
 15 55  1  0
 16 17  1  0
 16 21  1  0
 16 56  1  1
 17 27  1  6
 17 18  1  0
 18 57  1  0
 18 19  1  0
 18 58  1  0
 19 59  1  6
 19 26  1  0
 19 20  1  0
 20 21  1  0
 20 25  1  0
 20 60  1  1
 21 22  1  6
 21 23  1  0
 22 61  1  0
 22 63  1  0
 22 62  1  0
 23 24  1  0
 23 64  1  0
 23 65  1  0
 24 66  1  0
 25 67  1  0
 26 68  1  0
 27 70  1  0
 27 69  1  0
 27 71  1  0
 28 74  1  0
 28 72  1  0
 28 73  1  0
 29 75  1  6
 29 30  1  0
 30 31  1  0
 30 76  1  6
 31 78  1  0
 31 77  1  0
 31 79  1  0
 32 80  1  0
 32 82  1  0
 32 81  1  0
 33 35  1  0
 33 34  2  0
 35 83  1  0
M  END
>  <id>  (863) 
976

>  <scaffolds>  (863) 
['C1=C2C3CCCCC3CCC2C2CCC3CCCCC3C2C1', 'C1=CCCCC1', 'C1=CCC2CCCCC2C1', 'C1CCCCC1', 'C=C1CCCC2CCCCC12', 'C1=C2CCCCC2CCC1', 'C1=C2C3CCCCC3CCC2C2CCCCC2C1', 'C1CCC2CCCCC2C1']

>  <name>  (863) 
Asiatic acid

>  <formula>  (863) 
C30H48O5

>  <SMILES>  (863) 
C[C@@H]1CC[C@@]2(CC[C@@]3(C(=CC[C@H]4[C@]3(CC[C@@H]5[C@@]4(C[C@H]([C@@H]([C@@]5(C)CO)O)O)C)C)[C@@H]2[C@H]1C)C)C(=O)O

>  <ChEMBL_id>  (863) 
SCHEMBL3285999

>  <ZINC_id>  (863) 
ZINC8221271

>  <PubChem_id>  (863) 
119034

>  <DrugBank_id>  (863) 


>  <CAS_no>  (863) 
464-92-6

>  <references>  (863) 
[{'journal': {'name': 'Food and Chemical Toxicology', 'id': 63}, 'title': 'Growth inhibition and induction of apoptosis in human cancerous HeLa cells by Maytenus procumbens', 'year': 2013, 'start_page': None, 'volume': None, 'issue': None, 'doi': '10.1016/j.fct.2012.09.005', 'isbn': '', 'despositor': {'code': 'BND', 'first_name': "Bakary N'tji", 'last_name': 'Diallo', 'id': 26}, 'refauthors_set': [{'author': {'first_name': 'Momtaz', 'initials': 'MS', 'last_name': 'S.', 'id': 1026}, 'first_author': True, 'id': 1607}], 'id': 508}]

>  <classifications>  (863) 
[{'classification': 'Phenol lipids (Classyfire)', 'id': 951}]

>  <molecular_mass>  (863) 
488.7

$$$$
SANC00977_minRM1.pdb
     RDKit          3D

 84 88  0  0  1  0  0  0  0  0999 V2000
    5.0040   -1.2650   -0.7060 C   0  0  0  0  0  0  0  0  0  0  0  0
    5.0650   -1.0960    0.7860 C   0  0  0  0  0  0  0  0  0  0  0  0
    5.6430   -1.9070    1.4850 O   0  0  0  0  0  0  0  0  0  0  0  0
    4.4020    0.1420    1.3610 C   0  0  2  0  0  0  0  0  0  0  0  0
    4.2060   -0.0440    2.8720 C   0  0  0  0  0  0  0  0  0  0  0  0
    3.0120    0.3750    0.7190 C   0  0  1  0  0  0  0  0  0  0  0  0
    2.4630    1.7340    1.1440 C   0  0  0  0  0  0  0  0  0  0  0  0
    1.5040    2.3620    0.1460 C   0  0  0  0  0  0  0  0  0  0  0  0
    0.6050    1.3900   -0.6230 C   0  0  2  0  0  0  0  0  0  0  0  0
   -0.5970    0.9490    0.2800 C   0  0  1  0  0  0  0  0  0  0  0  0
   -1.4420    2.1280    0.7920 C   0  0  0  0  0  0  0  0  0  0  0  0
   -2.5400    2.5850   -0.1540 C   0  0  0  0  0  0  0  0  0  0  0  0
   -3.5380    1.4810   -0.5280 C   0  0  2  0  0  0  0  0  0  0  0  0
   -4.7700    1.5830    0.3900 C   0  0  0  0  0  0  0  0  0  0  0  0
   -5.6200    0.3230    0.3070 C   0  0  0  0  0  0  0  0  0  0  0  0
   -4.8820   -0.8740    0.9200 C   0  0  1  0  0  0  0  0  0  0  0  0
   -3.3640   -0.6730    0.8340 C   0  0  0  0  0  0  0  0  0  0  0  0
   -2.9420    0.0630   -0.4460 C   0  0  2  0  0  0  0  0  0  0  0  0
   -1.4460    0.0100   -0.5140 C   0  0  0  0  0  0  0  0  0  0  0  0
   -0.8340   -0.9500   -1.2090 C   0  0  0  0  0  0  0  0  0  0  0  0
    0.6510   -1.1300   -1.1140 C   0  0  2  0  0  0  0  0  0  0  0  0
    1.4140    0.2120   -1.2480 C   0  0  2  0  0  0  0  0  0  0  0  0
    2.9110    0.1660   -0.7970 C   0  0  1  0  0  0  0  0  0  0  0  0
    3.6610    1.2320   -1.6040 C   0  0  0  0  0  0  0  0  0  0  0  0
    3.5480   -1.1900   -1.1380 C   0  0  0  0  0  0  0  0  0  0  0  0
    1.0670   -1.9300   -2.2040 O   0  0  0  0  0  0  0  0  0  0  0  0
    0.8330   -3.3010   -2.0400 C   0  0  0  0  0  0  0  0  0  0  0  0
   -5.2810   -1.0310    2.3870 C   0  0  0  0  0  0  0  0  0  0  0  0
   -5.2930   -2.1560    0.1580 C   0  0  0  0  0  0  0  0  0  0  0  0
   -4.7920   -3.3140    0.7490 O   0  0  0  0  0  0  0  0  0  0  0  0
   -3.9940    1.7450   -1.9710 C   0  0  0  0  0  0  0  0  0  0  0  0
   -0.1040    0.1990    1.5240 C   0  0  0  0  0  0  0  0  0  0  0  0
    0.0420    2.1790   -1.8210 C   0  0  0  0  0  0  0  0  0  0  0  0
    5.4010    1.2820    1.1660 C   0  0  0  0  0  0  0  0  0  0  0  0
    5.4490   -2.2370   -1.0170 H   0  0  0  0  0  0  0  0  0  0  0  0
    5.6470   -0.5160   -1.2090 H   0  0  0  0  0  0  0  0  0  0  0  0
    3.7790    0.8450    3.3550 H   0  0  0  0  0  0  0  0  0  0  0  0
    5.1560   -0.2460    3.3920 H   0  0  0  0  0  0  0  0  0  0  0  0
    3.5480   -0.8920    3.1100 H   0  0  0  0  0  0  0  0  0  0  0  0
    2.3450   -0.4200    1.1620 H   0  0  0  0  0  0  0  0  0  0  0  0
    1.9570    1.6370    2.1340 H   0  0  0  0  0  0  0  0  0  0  0  0
    3.2800    2.4640    1.3460 H   0  0  0  0  0  0  0  0  0  0  0  0
    2.0910    2.9790   -0.5750 H   0  0  0  0  0  0  0  0  0  0  0  0
    0.8810    3.1260    0.6690 H   0  0  0  0  0  0  0  0  0  0  0  0
   -1.9110    1.8760    1.7690 H   0  0  0  0  0  0  0  0  0  0  0  0
   -0.7810    2.9910    1.0420 H   0  0  0  0  0  0  0  0  0  0  0  0
   -2.0910    3.0450   -1.0610 H   0  0  0  0  0  0  0  0  0  0  0  0
   -3.0760    3.4490    0.3000 H   0  0  0  0  0  0  0  0  0  0  0  0
   -5.3780    2.4730    0.1220 H   0  0  0  0  0  0  0  0  0  0  0  0
   -4.4700    1.7740    1.4420 H   0  0  0  0  0  0  0  0  0  0  0  0
   -6.5960    0.4820    0.8130 H   0  0  0  0  0  0  0  0  0  0  0  0
   -5.9070    0.1270   -0.7480 H   0  0  0  0  0  0  0  0  0  0  0  0
   -2.9970   -0.1260    1.7280 H   0  0  0  0  0  0  0  0  0  0  0  0
   -2.8430   -1.6570    0.8950 H   0  0  0  0  0  0  0  0  0  0  0  0
   -3.3520   -0.5290   -1.3100 H   0  0  0  0  0  0  0  0  0  0  0  0
   -1.3860   -1.6420   -1.8510 H   0  0  0  0  0  0  0  0  0  0  0  0
    0.8720   -1.6150   -0.1200 H   0  0  0  0  0  0  0  0  0  0  0  0
    1.4680    0.3840   -2.3610 H   0  0  0  0  0  0  0  0  0  0  0  0
    3.1600    2.2110   -1.6300 H   0  0  0  0  0  0  0  0  0  0  0  0
    3.7900    0.9400   -2.6580 H   0  0  0  0  0  0  0  0  0  0  0  0
    4.6720    1.4370   -1.2230 H   0  0  0  0  0  0  0  0  0  0  0  0
    3.4720   -1.3970   -2.2270 H   0  0  0  0  0  0  0  0  0  0  0  0
    3.0170   -2.0310   -0.6450 H   0  0  0  0  0  0  0  0  0  0  0  0
    1.1930   -3.7540   -2.9760 H   0  0  0  0  0  0  0  0  0  0  0  0
   -0.2300   -3.5670   -1.9130 H   0  0  0  0  0  0  0  0  0  0  0  0
    1.3910   -3.7470   -1.1980 H   0  0  0  0  0  0  0  0  0  0  0  0
   -4.6950   -1.8100    2.8980 H   0  0  0  0  0  0  0  0  0  0  0  0
   -6.3380   -1.3140    2.5030 H   0  0  0  0  0  0  0  0  0  0  0  0
   -5.1410   -0.1030    2.9590 H   0  0  0  0  0  0  0  0  0  0  0  0
   -6.3950   -2.3000    0.1730 H   0  0  0  0  0  0  0  0  0  0  0  0
   -5.0040   -2.0980   -0.9170 H   0  0  0  0  0  0  0  0  0  0  0  0
   -3.8340   -3.2150    0.8240 H   0  0  0  0  0  0  0  0  0  0  0  0
   -4.8200    1.0920   -2.2880 H   0  0  0  0  0  0  0  0  0  0  0  0
   -4.3520    2.7760   -2.1120 H   0  0  0  0  0  0  0  0  0  0  0  0
   -3.1830    1.5910   -2.6980 H   0  0  0  0  0  0  0  0  0  0  0  0
    0.6400   -0.5850    1.3030 H   0  0  0  0  0  0  0  0  0  0  0  0
   -0.9180   -0.3130    2.0590 H   0  0  0  0  0  0  0  0  0  0  0  0
    0.3660    0.8740    2.2590 H   0  0  0  0  0  0  0  0  0  0  0  0
   -0.6810    1.5910   -2.4060 H   0  0  0  0  0  0  0  0  0  0  0  0
    0.8240    2.4910   -2.5320 H   0  0  0  0  0  0  0  0  0  0  0  0
   -0.4610    3.1130   -1.5270 H   0  0  0  0  0  0  0  0  0  0  0  0
    5.6500    1.4680    0.1110 H   0  0  0  0  0  0  0  0  0  0  0  0
    5.0130    2.2350    1.5620 H   0  0  0  0  0  0  0  0  0  0  0  0
    6.3520    1.0880    1.6840 H   0  0  0  0  0  0  0  0  0  0  0  0
  1 36  1  0
  1 25  1  0
  1 35  1  0
  1  2  1  0
  2  4  1  0
  2  3  2  0
  4  6  1  0
  4 34  1  1
  4  5  1  0
  5 39  1  0
  5 37  1  0
  5 38  1  0
  6 23  1  0
  6  7  1  0
  6 40  1  1
  7  8  1  0
  7 42  1  0
  7 41  1  0
  8  9  1  0
  8 43  1  0
  8 44  1  0
  9 33  1  6
  9 22  1  0
  9 10  1  0
 10 19  1  0
 10 11  1  0
 10 32  1  1
 11 12  1  0
 11 46  1  0
 11 45  1  0
 12 47  1  0
 12 13  1  0
 12 48  1  0
 13 31  1  6
 13 18  1  0
 13 14  1  0
 14 49  1  0
 14 15  1  0
 14 50  1  0
 15 52  1  0
 15 51  1  0
 15 16  1  0
 16 29  1  6
 16 17  1  0
 16 28  1  0
 17 18  1  0
 17 54  1  0
 17 53  1  0
 18 55  1  6
 18 19  1  0
 19 20  2  0
 20 56  1  0
 20 21  1  0
 21 26  1  0
 21 22  1  0
 21 57  1  1
 22 58  1  6
 22 23  1  0
 23 24  1  6
 23 25  1  0
 24 60  1  0
 24 59  1  0
 24 61  1  0
 25 62  1  0
 25 63  1  0
 26 27  1  0
 27 64  1  0
 27 65  1  0
 27 66  1  0
 28 68  1  0
 28 67  1  0
 28 69  1  0
 29 71  1  0
 29 70  1  0
 29 30  1  0
 30 72  1  0
 31 75  1  0
 31 73  1  0
 31 74  1  0
 32 76  1  0
 32 77  1  0
 32 78  1  0
 33 80  1  0
 33 79  1  0
 33 81  1  0
 34 82  1  0
 34 83  1  0
 34 84  1  0
M  END
>  <id>  (864) 
977

>  <scaffolds>  (864) 
['C1=C2C3CCCCC3CCC2C2CCC3CCCCC3C2C1', 'C1=CCCCC1', 'C1=CCC2CCCCC2C1', 'C1CCCCC1', 'C=C1CCCC2CCCCC12', 'O=C1CCC2C(CCC3C4CCC5CCCCC5C4=CCC23)C1', 'C1=C2CCCCC2CCC1', 'C1=C2C3CCCCC3CCC2C2CCCCC2C1', 'C1CCC2CCCCC2C1']

>  <name>  (864) 
30-hydroxy-11[alpha]-methoxy-18[beta]-olean-12-en-3-one

>  <formula>  (864) 
C31H50O3

>  <SMILES>  (864) 
C5C(=O)C(C)(C4CC[C@@]3([C@]2(CC[C@@]1(CC[C@@](CC1C2=C[C@H](C3[C@]4(C)C5)OC)(C)CO[H])C)C)C)C

>  <ChEMBL_id>  (864) 


>  <ZINC_id>  (864) 


>  <PubChem_id>  (864) 


>  <DrugBank_id>  (864) 


>  <CAS_no>  (864) 
1456776-39-8

>  <references>  (864) 
[{'journal': {'name': 'Food and Chemical Toxicology', 'id': 63}, 'title': 'Growth inhibition and induction of apoptosis in human cancerous HeLa cells by Maytenus procumbens', 'year': 2013, 'start_page': None, 'volume': None, 'issue': None, 'doi': '10.1016/j.fct.2012.09.005', 'isbn': '', 'despositor': {'code': 'BND', 'first_name': "Bakary N'tji", 'last_name': 'Diallo', 'id': 26}, 'refauthors_set': [{'author': {'first_name': 'Momtaz', 'initials': 'MS', 'last_name': 'S.', 'id': 1026}, 'first_author': True, 'id': 1607}], 'id': 508}]

>  <classifications>  (864) 
[{'classification': 'Phenol lipids (Classyfire)', 'id': 951}]

>  <molecular_mass>  (864) 
470.73

$$$$
SANC00978_minRM1.pdb
     RDKit          3D

 32 34  0  0  0  0  0  0  0  0999 V2000
    5.9840   -0.6460   -0.0040 C   0  0  0  0  0  0  0  0  0  0  0  0
    4.7000   -1.2140    0.0240 O   0  0  0  0  0  0  0  0  0  0  0  0
    3.6350   -0.3590    0.0200 C   0  0  0  0  0  0  0  0  0  0  0  0
    2.4000   -1.0160   -0.0120 C   0  0  0  0  0  0  0  0  0  0  0  0
    1.2340   -0.2610   -0.0060 C   0  0  0  0  0  0  0  0  0  0  0  0
    1.3260    1.1280    0.0270 C   0  0  0  0  0  0  0  0  0  0  0  0
    0.2390    1.9600    0.0430 O   0  0  0  0  0  0  0  0  0  0  0  0
   -0.9970    1.3910   -0.0200 C   0  0  0  0  0  0  0  0  0  0  0  0
   -2.0420    2.3250   -0.0180 C   0  0  0  0  0  0  0  0  0  0  0  0
   -3.3390    1.8600   -0.0800 C   0  0  0  0  0  0  0  0  0  0  0  0
   -3.6000    0.4870   -0.1420 C   0  0  0  0  0  0  0  0  0  0  0  0
   -4.8840    0.0610   -0.3070 O   0  0  0  0  0  0  0  0  0  0  0  0
   -2.5510   -0.4410   -0.1490 C   0  0  0  0  0  0  0  0  0  0  0  0
   -2.6580   -1.7800   -0.2880 O   0  0  0  0  0  0  0  0  0  0  0  0
   -3.8730   -2.4090    0.0450 C   0  0  0  0  0  0  0  0  0  0  0  0
   -1.2190    0.0180   -0.0710 C   0  0  0  0  0  0  0  0  0  0  0  0
   -0.0870   -0.9120   -0.0320 C   0  0  0  0  0  0  0  0  0  0  0  0
   -0.2110   -2.1230   -0.0080 O   0  0  0  0  0  0  0  0  0  0  0  0
    2.5560    1.7870    0.0560 C   0  0  0  0  0  0  0  0  0  0  0  0
    3.7200    1.0340    0.0530 C   0  0  0  0  0  0  0  0  0  0  0  0
    6.2160   -0.0500    0.8940 H   0  0  0  0  0  0  0  0  0  0  0  0
    6.6490   -1.5230   -0.0250 H   0  0  0  0  0  0  0  0  0  0  0  0
    6.1750   -0.0380   -0.9040 H   0  0  0  0  0  0  0  0  0  0  0  0
    2.3520   -2.1120   -0.0380 H   0  0  0  0  0  0  0  0  0  0  0  0
   -1.8290    3.3970    0.0250 H   0  0  0  0  0  0  0  0  0  0  0  0
   -4.1740    2.5700   -0.0870 H   0  0  0  0  0  0  0  0  0  0  0  0
   -5.3720    0.3690    0.4670 H   0  0  0  0  0  0  0  0  0  0  0  0
   -4.6250   -2.3170   -0.7560 H   0  0  0  0  0  0  0  0  0  0  0  0
   -3.5810   -3.4680    0.1330 H   0  0  0  0  0  0  0  0  0  0  0  0
   -4.3050   -2.0790    1.0020 H   0  0  0  0  0  0  0  0  0  0  0  0
    2.6000    2.8800    0.0810 H   0  0  0  0  0  0  0  0  0  0  0  0
    4.6780    1.5600    0.0790 H   0  0  0  0  0  0  0  0  0  0  0  0
  1 23  1  0
  1 22  1  0
  1  2  1  0
  1 21  1  0
  2  3  1  0
  3  4  2  0
  3 20  1  0
  4 24  1  0
  4  5  1  0
  5 17  1  0
  5  6  2  0
  6  7  1  0
  6 19  1  0
  7  8  1  0
  8 16  2  0
  8  9  1  0
  9 10  2  0
  9 25  1  0
 10 11  1  0
 10 26  1  0
 11 12  1  0
 11 13  2  0
 12 27  1  0
 13 14  1  0
 13 16  1  0
 14 15  1  0
 15 28  1  0
 15 29  1  0
 15 30  1  0
 16 17  1  0
 17 18  2  0
 19 20  2  0
 19 31  1  0
 20 32  1  0
M  END
>  <id>  (865) 
978

>  <scaffolds>  (865) 
['c1ccccc1', 'O=c1c2ccccc2oc2ccccc12', 'O=c1ccoc2ccccc12']

>  <name>  (865) 
1,7-Dimethoxy-2-hydroxyxanthone

>  <formula>  (865) 
C15H12O5

>  <SMILES>  (865) 
COC1=CC2=C(OC3=CC=C(O)C(OC)=C3C2=O)C=C1

>  <ChEMBL_id>  (865) 


>  <ZINC_id>  (865) 


>  <PubChem_id>  (865) 


>  <DrugBank_id>  (865) 


>  <CAS_no>  (865) 
132757-14-3

>  <references>  (865) 
[{'journal': {'name': 'Fitoterapia', 'id': 35}, 'title': 'Xanthone isolated from Securidaca longependunculata with activity against erectile dysfunction', 'year': 2004, 'start_page': None, 'volume': None, 'issue': None, 'doi': '10.1016/j.fitote.2004.03.010', 'isbn': '', 'despositor': {'code': 'BND', 'first_name': "Bakary N'tji", 'last_name': 'Diallo', 'id': 26}, 'refauthors_set': [{'author': {'first_name': 'Rakuambo', 'initials': 'RN', 'last_name': 'N.', 'id': 1027}, 'first_author': True, 'id': 1608}], 'id': 509}]

>  <classifications>  (865) 
[{'classification': 'Benzopyrans (Classyfire)', 'id': 966}]

>  <molecular_mass>  (865) 
474.6

$$$$
SANC00979_minRM1.pdb
     RDKit          3D

 29 31  0  0  0  0  0  0  0  0999 V2000
   -5.6840    0.0570   -0.0260 C   0  0  0  0  0  0  0  0  0  0  0  0
   -4.5270   -0.7400   -0.0330 O   0  0  0  0  0  0  0  0  0  0  0  0
   -3.3220   -0.0970   -0.0220 C   0  0  0  0  0  0  0  0  0  0  0  0
   -2.2320   -0.9710   -0.0280 C   0  0  0  0  0  0  0  0  0  0  0  0
   -0.9460   -0.4410   -0.0190 C   0  0  0  0  0  0  0  0  0  0  0  0
   -0.7740    0.9440   -0.0040 C   0  0  0  0  0  0  0  0  0  0  0  0
    0.4440    1.5690    0.0060 O   0  0  0  0  0  0  0  0  0  0  0  0
    1.5510    0.7790   -0.0050 C   0  0  0  0  0  0  0  0  0  0  0  0
    2.7790    1.4550   -0.0030 C   0  0  0  0  0  0  0  0  0  0  0  0
    2.7050    2.8120   -0.0030 O   0  0  0  0  0  0  0  0  0  0  0  0
    3.9690    0.7260   -0.0110 C   0  0  0  0  0  0  0  0  0  0  0  0
    3.9460   -0.6590   -0.0220 C   0  0  0  0  0  0  0  0  0  0  0  0
    2.7160   -1.3300   -0.0270 C   0  0  0  0  0  0  0  0  0  0  0  0
    2.7680   -2.6700   -0.0390 O   0  0  0  0  0  0  0  0  0  0  0  0
    1.5080   -0.6140   -0.0190 C   0  0  0  0  0  0  0  0  0  0  0  0
    0.2300   -1.3060   -0.0250 C   0  0  0  0  0  0  0  0  0  0  0  0
    0.1830   -2.5350   -0.0350 O   0  0  0  0  0  0  0  0  0  0  0  0
   -1.8650    1.8170    0.0020 C   0  0  0  0  0  0  0  0  0  0  0  0
   -3.1470    1.2900   -0.0070 C   0  0  0  0  0  0  0  0  0  0  0  0
   -5.7820    0.6770    0.8810 H   0  0  0  0  0  0  0  0  0  0  0  0
   -5.7790    0.6980   -0.9170 H   0  0  0  0  0  0  0  0  0  0  0  0
   -6.5000   -0.6820   -0.0360 H   0  0  0  0  0  0  0  0  0  0  0  0
   -2.3820   -2.0570   -0.0400 H   0  0  0  0  0  0  0  0  0  0  0  0
    3.6020    3.1570    0.0620 H   0  0  0  0  0  0  0  0  0  0  0  0
    4.9340    1.2460   -0.0090 H   0  0  0  0  0  0  0  0  0  0  0  0
    4.8790   -1.2310   -0.0280 H   0  0  0  0  0  0  0  0  0  0  0  0
    1.8580   -3.0500   -0.0420 H   0  0  0  0  0  0  0  0  0  0  0  0
   -1.7070    2.9000    0.0140 H   0  0  0  0  0  0  0  0  0  0  0  0
   -3.9920    1.9830   -0.0020 H   0  0  0  0  0  0  0  0  0  0  0  0
  1 21  1  0
  1 22  1  0
  1  2  1  0
  1 20  1  0
  2  3  1  0
  3  4  2  0
  3 19  1  0
  4 23  1  0
  4  5  1  0
  5 16  1  0
  5  6  2  0
  6 18  1  0
  6  7  1  0
  7  8  1  0
  8 15  2  0
  8  9  1  0
  9 11  2  0
  9 10  1  0
 10 24  1  0
 11 12  1  0
 11 25  1  0
 12 26  1  0
 12 13  2  0
 13 14  1  0
 13 15  1  0
 14 27  1  0
 15 16  1  0
 16 17  2  0
 18 19  2  0
 18 28  1  0
 19 29  1  0
M  END
>  <id>  (866) 
979

>  <scaffolds>  (866) 
['c1ccccc1', 'O=c1c2ccccc2oc2ccccc12', 'O=c1ccoc2ccccc12']

>  <name>  (866) 
1,4-Dihydroxy-7-methoxy-xanthone

>  <formula>  (866) 
C14H10O5

>  <SMILES>  (866) 
COC1=CC2=C(OC3=C(O)C=CC(O)=C3C2=O)C=C1

>  <ChEMBL_id>  (866) 


>  <ZINC_id>  (866) 


>  <PubChem_id>  (866) 


>  <DrugBank_id>  (866) 


>  <CAS_no>  (866) 
106738-08-3

>  <references>  (866) 
[{'journal': {'name': 'Fitoterapia', 'id': 35}, 'title': 'Xanthone isolated from Securidaca longependunculata with activity against erectile dysfunction', 'year': 2004, 'start_page': None, 'volume': None, 'issue': None, 'doi': '10.1016/j.fitote.2004.03.010', 'isbn': '', 'despositor': {'code': 'BND', 'first_name': "Bakary N'tji", 'last_name': 'Diallo', 'id': 26}, 'refauthors_set': [{'author': {'first_name': 'Rakuambo', 'initials': 'RN', 'last_name': 'N.', 'id': 1027}, 'first_author': True, 'id': 1608}], 'id': 509}]

>  <classifications>  (866) 
[{'classification': 'Benzopyrans (Classyfire)', 'id': 966}]

>  <molecular_mass>  (866) 
nan

$$$$
SANC00980_minRM1.pdb
     RDKit          3D

 35 37  0  0  0  0  0  0  0  0999 V2000
    0.5120    3.4320    0.8170 C   0  0  0  0  0  0  0  0  0  0  0  0
    0.4990    2.6470   -0.3560 O   0  0  0  0  0  0  0  0  0  0  0  0
   -0.2490    1.5120   -0.2230 C   0  0  0  0  0  0  0  0  0  0  0  0
    0.3660    0.3060   -0.2130 C   0  0  0  0  0  0  0  0  0  0  0  0
   -0.3120   -0.8790   -0.1850 O   0  0  0  0  0  0  0  0  0  0  0  0
   -1.6760   -0.8470   -0.1690 C   0  0  0  0  0  0  0  0  0  0  0  0
   -2.2950   -2.0900   -0.1440 C   0  0  0  0  0  0  0  0  0  0  0  0
   -3.6970   -2.0980   -0.1300 C   0  0  0  0  0  0  0  0  0  0  0  0
   -4.4670   -0.9320   -0.1390 C   0  0  0  0  0  0  0  0  0  0  0  0
   -3.7990    0.2940   -0.1640 C   0  0  0  0  0  0  0  0  0  0  0  0
   -2.3910    0.3520   -0.1770 C   0  0  0  0  0  0  0  0  0  0  0  0
   -1.7030    1.6240   -0.2040 C   0  0  0  0  0  0  0  0  0  0  0  0
   -2.3300    2.6840   -0.2020 O   0  0  0  0  0  0  0  0  0  0  0  0
   -4.5580    1.3930   -0.1720 O   0  0  0  0  0  0  0  0  0  0  0  0
   -4.2520   -3.3270   -0.1040 O   0  0  0  0  0  0  0  0  0  0  0  0
    1.8070    0.0760   -0.2460 C   0  0  0  0  0  0  0  0  0  0  0  0
    2.3830   -0.8210    0.6590 C   0  0  0  0  0  0  0  0  0  0  0  0
    3.7560   -1.0170    0.6250 C   0  0  0  0  0  0  0  0  0  0  0  0
    4.5500   -0.3210   -0.3120 C   0  0  0  0  0  0  0  0  0  0  0  0
    3.9600    0.5610   -1.2090 C   0  0  0  0  0  0  0  0  0  0  0  0
    2.5810    0.7570   -1.1750 C   0  0  0  0  0  0  0  0  0  0  0  0
    5.8750   -0.5830   -0.2580 O   0  0  0  0  0  0  0  0  0  0  0  0
    4.4310   -1.8460    1.4570 O   0  0  0  0  0  0  0  0  0  0  0  0
    0.9290    2.8960    1.6860 H   0  0  0  0  0  0  0  0  0  0  0  0
   -0.4760    3.8320    1.0900 H   0  0  0  0  0  0  0  0  0  0  0  0
    1.1760    4.2710    0.5600 H   0  0  0  0  0  0  0  0  0  0  0  0
   -1.7230   -3.0210   -0.1400 H   0  0  0  0  0  0  0  0  0  0  0  0
   -5.5590   -0.9550   -0.1290 H   0  0  0  0  0  0  0  0  0  0  0  0
   -3.9960    2.2090   -0.1960 H   0  0  0  0  0  0  0  0  0  0  0  0
   -5.2140   -3.2470   -0.1030 H   0  0  0  0  0  0  0  0  0  0  0  0
    1.7540   -1.3560    1.3770 H   0  0  0  0  0  0  0  0  0  0  0  0
    4.5630    1.1040   -1.9430 H   0  0  0  0  0  0  0  0  0  0  0  0
    2.1200    1.4470   -1.8900 H   0  0  0  0  0  0  0  0  0  0  0  0
    6.3180   -0.0540   -0.9330 H   0  0  0  0  0  0  0  0  0  0  0  0
    3.7890   -2.3170    2.0020 H   0  0  0  0  0  0  0  0  0  0  0  0
  1  2  1  0
  1 26  1  0
  1 25  1  0
  1 24  1  0
  2  3  1  0
  3  4  2  0
  3 12  1  0
  4 16  1  0
  4  5  1  0
  5  6  1  0
  6 11  2  0
  6  7  1  0
  7 27  1  0
  7  8  2  0
  8  9  1  0
  8 15  1  0
  9 10  2  0
  9 28  1  0
 10 11  1  0
 10 14  1  0
 11 12  1  0
 12 13  2  0
 14 29  1  0
 15 30  1  0
 16 21  2  0
 16 17  1  0
 17 18  2  0
 17 31  1  0
 18 19  1  0
 18 23  1  0
 19 20  2  0
 19 22  1  0
 20 32  1  0
 20 21  1  0
 21 33  1  0
 22 34  1  0
 23 35  1  0
M  END
>  <id>  (867) 
980

>  <scaffolds>  (867) 
['c1ccccc1', 'O=c1cc(-c2ccccc2)oc2ccccc12', 'O=c1ccoc2ccccc12']

>  <name>  (867) 
3-O-Methylquercetin

>  <formula>  (867) 
C16H12O7

>  <SMILES>  (867) 
COC1=C(OC2=CC(=CC(=C2C1=O)O)O)C3=CC(=C(C=C3)O)O

>  <ChEMBL_id>  (867) 
SCHEMBL380558

>  <ZINC_id>  (867) 
ZINC5998596

>  <PubChem_id>  (867) 
5280681

>  <DrugBank_id>  (867) 


>  <CAS_no>  (867) 
1486-70-0

>  <references>  (867) 
[{'journal': {'name': 'Fitoterapia', 'id': 35}, 'title': 'Antiviral and antituberculous activity of Helichrysum melanacme constituents', 'year': 2006, 'start_page': None, 'volume': None, 'issue': None, 'doi': '10.1016/j.fitote.2006.01.007', 'isbn': '', 'despositor': {'code': 'BND', 'first_name': "Bakary N'tji", 'last_name': 'Diallo', 'id': 26}, 'refauthors_set': [{'author': {'first_name': 'Lall', 'initials': 'LN', 'last_name': 'N.', 'id': 1028}, 'first_author': True, 'id': 1609}], 'id': 510}]

>  <classifications>  (867) 
[{'classification': 'Flavonoids', 'id': 776}, {'classification': 'Flavonoids (Classyfire)', 'id': 941}]

>  <molecular_mass>  (867) 
316.26

$$$$
SANC00981_minRM1.pdb
     RDKit          3D

 86 90  0  0  1  0  0  0  0  0999 V2000
   -5.1170    1.8020   -0.8660 C   0  0  0  0  0  0  0  0  0  0  0  0
   -3.9120    1.0930   -0.2320 C   0  0  1  0  0  0  0  0  0  0  0  0
   -4.0350    1.1260    1.3050 C   0  0  0  0  0  0  0  0  0  0  0  0
   -4.8640   -0.1160    1.6270 C   0  0  0  0  0  0  0  0  0  0  0  0
   -4.8590   -0.9250    0.3180 C   0  0  1  0  0  0  0  0  0  0  0  0
   -3.9760   -0.2780   -0.5720 O   0  0  0  0  0  0  0  0  0  0  0  0
   -4.3850   -2.3940    0.4890 C   0  0  1  0  0  0  0  0  0  0  0  0
   -4.6300   -3.1670   -0.8120 C   0  0  0  0  0  0  0  0  0  0  0  0
   -2.9150   -2.4970    0.8950 C   0  0  0  0  0  0  0  0  0  0  0  0
   -5.0910   -2.9770    1.5480 O   0  0  0  0  0  0  0  0  0  0  0  0
   -2.6140    1.6920   -0.8150 C   0  0  1  0  0  0  0  0  0  0  0  0
   -2.3360    3.0590   -0.1440 C   0  0  0  0  0  0  0  0  0  0  0  0
   -0.9920    2.9250    0.5820 C   0  0  0  0  0  0  0  0  0  0  0  0
   -0.2340    1.9190   -0.2920 C   0  0  2  0  0  0  0  0  0  0  0  0
   -1.3370    0.8760   -0.5820 C   0  0  2  0  0  0  0  0  0  0  0  0
   -0.8210   -0.0320   -1.7040 C   0  0  1  0  0  0  0  0  0  0  0  0
    0.4170   -0.7830   -1.1560 C   0  0  0  0  0  0  0  0  0  0  0  0
    1.5030    0.1780   -0.6650 C   0  0  1  0  0  0  0  0  0  0  0  0
    0.9540    1.1840    0.3710 C   0  0  1  0  0  0  0  0  0  0  0  0
    2.0730    2.1670    0.7290 C   0  0  0  0  0  0  0  0  0  0  0  0
    3.2740    1.4100    1.2860 C   0  0  0  0  0  0  0  0  0  0  0  0
    3.8370    0.4520    0.2370 C   0  0  2  0  0  0  0  0  0  0  0  0
    2.7820   -0.5800   -0.2150 C   0  0  2  0  0  0  0  0  0  0  0  0
    3.3440   -1.3280   -1.4510 C   0  0  0  0  0  0  0  0  0  0  0  0
    4.8650   -1.4360   -1.4790 C   0  0  0  0  0  0  0  0  0  0  0  0
    5.4200   -1.5040   -0.0560 C   0  0  2  0  0  0  0  0  0  0  0  0
    5.1870   -0.1610    0.6870 C   0  0  1  0  0  0  0  0  0  0  0  0
    6.3020    0.8340    0.3360 C   0  0  0  0  0  0  0  0  0  0  0  0
    5.2820   -0.4250    2.1910 C   0  0  0  0  0  0  0  0  0  0  0  0
    6.7790   -1.8010   -0.2080 O   0  0  0  0  0  0  0  0  0  0  0  0
    2.4590   -1.6140    0.8570 C   0  0  0  0  0  0  0  0  0  0  0  0
    0.4690    0.5410    1.6700 C   0  0  0  0  0  0  0  0  0  0  0  0
   -1.7650   -0.9320   -2.1810 O   0  0  0  0  0  0  0  0  0  0  0  0
    0.2090    2.6830   -1.5450 C   0  0  0  0  0  0  0  0  0  0  0  0
   -5.0400    2.8960   -0.7990 H   0  0  0  0  0  0  0  0  0  0  0  0
   -6.0680    1.5280   -0.3880 H   0  0  0  0  0  0  0  0  0  0  0  0
   -5.2230    1.5550   -1.9330 H   0  0  0  0  0  0  0  0  0  0  0  0
   -4.5120    2.0510    1.6800 H   0  0  0  0  0  0  0  0  0  0  0  0
   -3.0470    1.0970    1.8030 H   0  0  0  0  0  0  0  0  0  0  0  0
   -5.8980    0.1420    1.9330 H   0  0  0  0  0  0  0  0  0  0  0  0
   -4.4660   -0.6770    2.4940 H   0  0  0  0  0  0  0  0  0  0  0  0
   -5.8840   -0.9270   -0.1420 H   0  0  0  0  0  0  0  0  0  0  0  0
   -4.1120   -2.7090   -1.6660 H   0  0  0  0  0  0  0  0  0  0  0  0
   -4.2810   -4.2060   -0.7390 H   0  0  0  0  0  0  0  0  0  0  0  0
   -5.6940   -3.2130   -1.0870 H   0  0  0  0  0  0  0  0  0  0  0  0
   -2.2530   -2.1840    0.0730 H   0  0  0  0  0  0  0  0  0  0  0  0
   -2.6350   -3.5270    1.1590 H   0  0  0  0  0  0  0  0  0  0  0  0
   -2.6670   -1.8710    1.7630 H   0  0  0  0  0  0  0  0  0  0  0  0
   -6.0230   -3.0050    1.3110 H   0  0  0  0  0  0  0  0  0  0  0  0
   -2.7650    1.8130   -1.9170 H   0  0  0  0  0  0  0  0  0  0  0  0
   -2.2970    3.8670   -0.9040 H   0  0  0  0  0  0  0  0  0  0  0  0
   -3.1290    3.4050    0.5440 H   0  0  0  0  0  0  0  0  0  0  0  0
   -0.4760    3.8960    0.7050 H   0  0  0  0  0  0  0  0  0  0  0  0
   -1.1170    2.5570    1.6230 H   0  0  0  0  0  0  0  0  0  0  0  0
   -1.5120    0.2310    0.3210 H   0  0  0  0  0  0  0  0  0  0  0  0
   -0.5730    0.5300   -2.6400 H   0  0  0  0  0  0  0  0  0  0  0  0
    0.1310   -1.4990   -0.3550 H   0  0  0  0  0  0  0  0  0  0  0  0
    0.7960   -1.4420   -1.9650 H   0  0  0  0  0  0  0  0  0  0  0  0
    1.8120    0.7930   -1.5610 H   0  0  0  0  0  0  0  0  0  0  0  0
    1.7120    2.9140    1.4670 H   0  0  0  0  0  0  0  0  0  0  0  0
    2.3880    2.7800   -0.1410 H   0  0  0  0  0  0  0  0  0  0  0  0
    4.0480    2.1400    1.6060 H   0  0  0  0  0  0  0  0  0  0  0  0
    2.9870    0.8870    2.2220 H   0  0  0  0  0  0  0  0  0  0  0  0
    4.0570    1.0720   -0.6780 H   0  0  0  0  0  0  0  0  0  0  0  0
    3.0250   -0.8430   -2.3990 H   0  0  0  0  0  0  0  0  0  0  0  0
    2.9010   -2.3460   -1.5130 H   0  0  0  0  0  0  0  0  0  0  0  0
    5.3200   -0.5910   -2.0370 H   0  0  0  0  0  0  0  0  0  0  0  0
    5.1750   -2.3300   -2.0620 H   0  0  0  0  0  0  0  0  0  0  0  0
    4.9050   -2.3410    0.5010 H   0  0  0  0  0  0  0  0  0  0  0  0
    6.4700    0.9220   -0.7470 H   0  0  0  0  0  0  0  0  0  0  0  0
    7.2740    0.5530    0.7680 H   0  0  0  0  0  0  0  0  0  0  0  0
    6.0930    1.8480    0.7070 H   0  0  0  0  0  0  0  0  0  0  0  0
    5.3330    0.4990    2.7850 H   0  0  0  0  0  0  0  0  0  0  0  0
    6.1910   -0.9860    2.4580 H   0  0  0  0  0  0  0  0  0  0  0  0
    4.4430   -1.0090    2.5920 H   0  0  0  0  0  0  0  0  0  0  0  0
    7.1560   -1.9140    0.6680 H   0  0  0  0  0  0  0  0  0  0  0  0
    1.5470   -2.1860    0.6210 H   0  0  0  0  0  0  0  0  0  0  0  0
    2.2890   -1.1800    1.8530 H   0  0  0  0  0  0  0  0  0  0  0  0
    3.2590   -2.3630    0.9820 H   0  0  0  0  0  0  0  0  0  0  0  0
    1.2890    0.1280    2.2810 H   0  0  0  0  0  0  0  0  0  0  0  0
   -0.2480   -0.2790    1.5080 H   0  0  0  0  0  0  0  0  0  0  0  0
   -0.0480    1.2700    2.3170 H   0  0  0  0  0  0  0  0  0  0  0  0
   -2.0980   -1.4580   -1.4430 H   0  0  0  0  0  0  0  0  0  0  0  0
    0.6340    3.6700   -1.3080 H   0  0  0  0  0  0  0  0  0  0  0  0
    0.9860    2.1650   -2.1320 H   0  0  0  0  0  0  0  0  0  0  0  0
   -0.6130    2.8790   -2.2480 H   0  0  0  0  0  0  0  0  0  0  0  0
  1 37  1  0
  1 35  1  0
  1 36  1  0
  2  1  1  6
  2 11  1  0
  2  6  1  0
  2  3  1  0
  3  4  1  0
  3 38  1  0
  3 39  1  0
  4  5  1  0
  4 40  1  0
  4 41  1  0
  5  6  1  0
  5 42  1  6
  5  7  1  0
  7  8  1  0
  7  9  1  0
  7 10  1  1
  8 43  1  0
  8 45  1  0
  8 44  1  0
  9 46  1  0
  9 47  1  0
  9 48  1  0
 10 49  1  0
 11 50  1  6
 11 15  1  0
 11 12  1  0
 12 51  1  0
 12 52  1  0
 12 13  1  0
 13 14  1  0
 13 53  1  0
 13 54  1  0
 14 34  1  6
 14 15  1  0
 14 19  1  0
 15 16  1  0
 15 55  1  1
 16 56  1  6
 16 33  1  0
 16 17  1  0
 17 58  1  0
 17 18  1  0
 17 57  1  0
 18 59  1  6
 18 23  1  0
 18 19  1  0
 19 20  1  0
 19 32  1  1
 20 61  1  0
 20 21  1  0
 20 60  1  0
 21 22  1  0
 21 62  1  0
 21 63  1  0
 22 64  1  6
 22 23  1  0
 22 27  1  0
 23 24  1  0
 23 31  1  1
 24 65  1  0
 24 66  1  0
 24 25  1  0
 25 68  1  0
 25 67  1  0
 25 26  1  0
 26 30  1  0
 26 69  1  1
 26 27  1  0
 27 28  1  6
 27 29  1  0
 28 70  1  0
 28 72  1  0
 28 71  1  0
 29 74  1  0
 29 75  1  0
 29 73  1  0
 30 76  1  0
 31 77  1  0
 31 79  1  0
 31 78  1  0
 32 81  1  0
 32 80  1  0
 32 82  1  0
 33 83  1  0
 34 86  1  0
 34 85  1  0
 34 84  1  0
M  END
>  <id>  (868) 
981

>  <scaffolds>  (868) 
['C1CCC(C2CCCC2)CC1', 'C1CCCCC1', 'C1CCC2C(C1)CCC1C3CCCC3CCC21', 'C1CCC2C(C1)CCC1C2CCC2C(C3CCCO3)CCC21', 'C1CCC2CCCCC2C1']

>  <name>  (868) 
Betulafolientriol oxide

>  <formula>  (868) 
C30H52O4

>  <SMILES>  (868) 
C[C@]1(CC[C@@H](O1)C(C)(C)O)[C@H]2CC[C@@]3([C@@H]2[C@@H](C[C@H]4[C@]3(CC[C@@H]5[C@@]4(CC[C@H](C5(C)C)O)C)C)O)C

>  <ChEMBL_id>  (868) 


>  <ZINC_id>  (868) 
ZINC70680941

>  <PubChem_id>  (868) 
12314832

>  <DrugBank_id>  (868) 


>  <CAS_no>  (868) 
19942-05-3

>  <references>  (868) 
[{'journal': {'name': 'Food Chemistry', 'id': 64}, 'title': 'Antioxidant, antiinflammatory activities and HPLC analysis of South African Salvia species', 'year': 2010, 'start_page': None, 'volume': None, 'issue': None, 'doi': '10.1016/j.foodchem.2009.07.010', 'isbn': '', 'despositor': {'code': 'BND', 'first_name': "Bakary N'tji", 'last_name': 'Diallo', 'id': 26}, 'refauthors_set': [{'author': {'first_name': 'Kamatou', 'initials': 'KG', 'last_name': 'Guy', 'id': 1029}, 'first_author': True, 'id': 1610}], 'id': 511}]

>  <classifications>  (868) 
[{'classification': 'Phenol lipids', 'id': 899}, {'classification': 'Phenol lipids (Classyfire)', 'id': 951}]

>  <molecular_mass>  (868) 
476.7

$$$$
SANC00982_minRM1.pdb
     RDKit          3D

 40 42  0  0  0  0  0  0  0  0999 V2000
    7.4600   -0.3120   -0.6550 C   0  0  0  0  0  0  0  0  0  0  0  0
    6.4930   -1.0200    0.0790 O   0  0  0  0  0  0  0  0  0  0  0  0
    5.2110   -0.5640    0.0360 C   0  0  0  0  0  0  0  0  0  0  0  0
    4.3270   -1.3150    0.8270 C   0  0  0  0  0  0  0  0  0  0  0  0
    2.9920   -0.9570    0.8680 C   0  0  0  0  0  0  0  0  0  0  0  0
    2.5390    0.1410    0.1320 C   0  0  0  0  0  0  0  0  0  0  0  0
    3.4230    0.8750   -0.6510 C   0  0  0  0  0  0  0  0  0  0  0  0
    4.7680    0.5290   -0.7050 C   0  0  0  0  0  0  0  0  0  0  0  0
    1.1370    0.5470    0.1840 C   0  0  0  0  0  0  0  0  0  0  0  0
    0.7020    1.8110    0.2890 C   0  0  0  0  0  0  0  0  0  0  0  0
   -0.7300    2.1190    0.3150 C   0  0  0  0  0  0  0  0  0  0  0  0
   -1.1470    3.2630    0.3710 O   0  0  0  0  0  0  0  0  0  0  0  0
   -1.5930    0.9400    0.2630 C   0  0  0  0  0  0  0  0  0  0  0  0
   -2.9960    1.0300    0.3170 C   0  0  0  0  0  0  0  0  0  0  0  0
   -3.7790   -0.1260    0.2510 C   0  0  0  0  0  0  0  0  0  0  0  0
   -3.1700   -1.3890    0.1530 C   0  0  0  0  0  0  0  0  0  0  0  0
   -1.7850   -1.5090    0.1050 C   0  0  0  0  0  0  0  0  0  0  0  0
   -1.0320   -0.3320    0.1610 C   0  0  0  0  0  0  0  0  0  0  0  0
    0.3140   -0.5420    0.1040 O   0  0  0  0  0  0  0  0  0  0  0  0
   -4.0500   -2.4180    0.0970 O   0  0  0  0  0  0  0  0  0  0  0  0
   -3.5230   -3.7230    0.0830 C   0  0  0  0  0  0  0  0  0  0  0  0
   -5.1350   -0.0170    0.4010 O   0  0  0  0  0  0  0  0  0  0  0  0
   -5.8200   -0.1100   -0.8290 C   0  0  0  0  0  0  0  0  0  0  0  0
   -3.5100    2.2640    0.4270 O   0  0  0  0  0  0  0  0  0  0  0  0
    8.3920   -0.8580   -0.4430 H   0  0  0  0  0  0  0  0  0  0  0  0
    7.2790   -0.3300   -1.7430 H   0  0  0  0  0  0  0  0  0  0  0  0
    7.5800    0.7330   -0.3250 H   0  0  0  0  0  0  0  0  0  0  0  0
    4.6930   -2.1710    1.4010 H   0  0  0  0  0  0  0  0  0  0  0  0
    2.2930   -1.5340    1.4820 H   0  0  0  0  0  0  0  0  0  0  0  0
    3.0640    1.7270   -1.2380 H   0  0  0  0  0  0  0  0  0  0  0  0
    5.4370    1.1240   -1.3300 H   0  0  0  0  0  0  0  0  0  0  0  0
    1.3980    2.6500    0.3710 H   0  0  0  0  0  0  0  0  0  0  0  0
   -1.2730   -2.4700    0.0250 H   0  0  0  0  0  0  0  0  0  0  0  0
   -4.4230   -4.3570    0.0870 H   0  0  0  0  0  0  0  0  0  0  0  0
   -2.9180   -3.9600    0.9730 H   0  0  0  0  0  0  0  0  0  0  0  0
   -2.9380   -3.9430   -0.8260 H   0  0  0  0  0  0  0  0  0  0  0  0
   -5.5510    0.6980   -1.5300 H   0  0  0  0  0  0  0  0  0  0  0  0
   -6.8800   -0.0100   -0.5520 H   0  0  0  0  0  0  0  0  0  0  0  0
   -5.6770   -1.0740   -1.3420 H   0  0  0  0  0  0  0  0  0  0  0  0
   -4.4700    2.2130    0.5370 H   0  0  0  0  0  0  0  0  0  0  0  0
  1 26  1  0
  1 25  1  0
  1 27  1  0
  1  2  1  0
  2  3  1  0
  3  8  2  0
  3  4  1  0
  4  5  2  0
  4 28  1  0
  5  6  1  0
  5 29  1  0
  6  7  2  0
  6  9  1  0
  7 30  1  0
  7  8  1  0
  8 31  1  0
  9 19  1  0
  9 10  2  0
 10 11  1  0
 10 32  1  0
 11 13  1  0
 11 12  2  0
 13 18  2  0
 13 14  1  0
 14 15  2  0
 14 24  1  0
 15 16  1  0
 15 22  1  0
 16 20  1  0
 16 17  2  0
 17 33  1  0
 17 18  1  0
 18 19  1  0
 20 21  1  0
 21 36  1  0
 21 34  1  0
 21 35  1  0
 22 23  1  0
 23 37  1  0
 23 39  1  0
 23 38  1  0
 24 40  1  0
M  END
>  <id>  (869) 
982

>  <scaffolds>  (869) 
['c1ccccc1', 'O=c1cc(-c2ccccc2)oc2ccccc12', 'O=c1ccoc2ccccc12']

>  <name>  (869) 
Salvigenin

>  <formula>  (869) 
C18H16O6

>  <SMILES>  (869) 
COC1=CC=C(C=C1)C2=CC(=O)C3=C(C(=C(C=C3O2)OC)OC)O

>  <ChEMBL_id>  (869) 
SCHEMBL1427018

>  <ZINC_id>  (869) 
ZINC2561268

>  <PubChem_id>  (869) 
161271

>  <DrugBank_id>  (869) 


>  <CAS_no>  (869) 
19103-54-9

>  <references>  (869) 
[{'journal': {'name': 'Food Chemistry', 'id': 64}, 'title': 'Antioxidant, antiinflammatory activities and HPLC analysis of South African Salvia species', 'year': 2010, 'start_page': None, 'volume': None, 'issue': None, 'doi': '10.1016/j.foodchem.2009.07.010', 'isbn': '', 'despositor': {'code': 'BND', 'first_name': "Bakary N'tji", 'last_name': 'Diallo', 'id': 26}, 'refauthors_set': [{'author': {'first_name': 'Kamatou', 'initials': 'KG', 'last_name': 'Guy', 'id': 1029}, 'first_author': True, 'id': 1610}], 'id': 511}]

>  <classifications>  (869) 
[{'classification': 'Flavonoids', 'id': 776}, {'classification': 'Flavonoids (Classyfire)', 'id': 941}]

>  <molecular_mass>  (869) 
328.3

$$$$
SANC00983_minRM1.pdb
     RDKit          3D

 81 85  0  0  1  0  0  0  0  0999 V2000
   -3.0980    1.0310   -1.5660 C   0  0  0  0  0  0  0  0  0  0  0  0
   -2.9020   -0.1990   -0.6900 C   0  0  2  0  0  0  0  0  0  0  0  0
   -3.5250   -1.4010   -1.4210 C   0  0  0  0  0  0  0  0  0  0  0  0
   -5.0400   -1.2830   -1.5020 C   0  0  0  0  0  0  0  0  0  0  0  0
   -5.6400   -1.2050   -0.0940 C   0  0  1  0  0  0  0  0  0  0  0  0
   -5.1040    0.0160    0.6920 C   0  0  1  0  0  0  0  0  0  0  0  0
   -3.5640   -0.0720    0.6930 C   0  0  2  0  0  0  0  0  0  0  0  0
   -2.9240    1.0910    1.4460 C   0  0  0  0  0  0  0  0  0  0  0  0
   -1.4620    0.7710    1.7300 C   0  0  0  0  0  0  0  0  0  0  0  0
   -0.6630    0.5300    0.4430 C   0  0  2  0  0  0  0  0  0  0  0  0
   -1.3970   -0.4940   -0.4470 C   0  0  2  0  0  0  0  0  0  0  0  0
   -0.6350   -0.6930   -1.7560 C   0  0  0  0  0  0  0  0  0  0  0  0
    0.8430   -0.6420   -1.6030 C   0  0  0  0  0  0  0  0  0  0  0  0
    1.4820   -0.3470   -0.4690 C   0  0  0  0  0  0  0  0  0  0  0  0
    0.7340   -0.0830    0.8020 C   0  0  1  0  0  0  0  0  0  0  0  0
    1.5410    0.8340    1.7370 C   0  0  0  0  0  0  0  0  0  0  0  0
    2.4910    1.7540    0.9850 C   0  0  0  0  0  0  0  0  0  0  0  0
    3.5380    0.9690    0.1860 C   0  0  2  0  0  0  0  0  0  0  0  0
    2.9840   -0.3260   -0.4460 C   0  0  1  0  0  0  0  0  0  0  0  0
    3.4890   -1.5880    0.2620 C   0  0  0  0  0  0  0  0  0  0  0  0
    5.0200   -1.7070    0.2340 C   0  0  2  0  0  0  0  0  0  0  0  0
    5.6740   -0.3240    0.3530 C   0  0  0  0  0  0  0  0  0  0  0  0
    4.7540    0.6540    1.0700 C   0  0  0  0  0  0  0  0  0  0  0  0
    5.4740   -2.3770   -1.0640 C   0  0  0  0  0  0  0  0  0  0  0  0
    5.4620   -2.5890    1.4060 C   0  0  0  0  0  0  0  0  0  0  0  0
    4.0030    1.9110   -0.9170 C   0  0  0  0  0  0  0  0  0  0  0  0
    5.0550    2.5260   -0.9960 O   0  0  0  0  0  0  0  0  0  0  0  0
    3.0900    2.0890   -1.8980 O   0  0  0  0  0  0  0  0  0  0  0  0
    0.5400   -1.4220    1.5330 C   0  0  0  0  0  0  0  0  0  0  0  0
   -0.4570    1.8660   -0.2640 C   0  0  0  0  0  0  0  0  0  0  0  0
   -5.6510    1.3260    0.1370 C   0  0  0  0  0  0  0  0  0  0  0  0
   -5.5950   -0.1060    2.1420 C   0  0  0  0  0  0  0  0  0  0  0  0
   -7.0310   -1.0560   -0.1660 O   0  0  0  0  0  0  0  0  0  0  0  0
   -4.1200    1.1050   -1.9770 H   0  0  0  0  0  0  0  0  0  0  0  0
   -2.4170    1.0340   -2.4340 H   0  0  0  0  0  0  0  0  0  0  0  0
   -2.9250    1.9750   -1.0230 H   0  0  0  0  0  0  0  0  0  0  0  0
   -3.2490   -2.3570   -0.9280 H   0  0  0  0  0  0  0  0  0  0  0  0
   -3.1160   -1.4920   -2.4500 H   0  0  0  0  0  0  0  0  0  0  0  0
   -5.3440   -0.4100   -2.1170 H   0  0  0  0  0  0  0  0  0  0  0  0
   -5.4580   -2.1540   -2.0530 H   0  0  0  0  0  0  0  0  0  0  0  0
   -5.3790   -2.1500    0.4630 H   0  0  0  0  0  0  0  0  0  0  0  0
   -3.3220   -1.0170    1.2570 H   0  0  0  0  0  0  0  0  0  0  0  0
   -3.0180    2.0440    0.8830 H   0  0  0  0  0  0  0  0  0  0  0  0
   -3.4600    1.2880    2.4020 H   0  0  0  0  0  0  0  0  0  0  0  0
   -0.9940    1.5910    2.3200 H   0  0  0  0  0  0  0  0  0  0  0  0
   -1.3950   -0.1100    2.4080 H   0  0  0  0  0  0  0  0  0  0  0  0
   -1.3630   -1.4820    0.0960 H   0  0  0  0  0  0  0  0  0  0  0  0
   -0.9010   -1.6730   -2.2130 H   0  0  0  0  0  0  0  0  0  0  0  0
   -0.9450    0.0570   -2.5220 H   0  0  0  0  0  0  0  0  0  0  0  0
    1.3950   -0.8510   -2.5270 H   0  0  0  0  0  0  0  0  0  0  0  0
    2.1190    0.2460    2.4820 H   0  0  0  0  0  0  0  0  0  0  0  0
    0.8600    1.4400    2.3770 H   0  0  0  0  0  0  0  0  0  0  0  0
    2.9940    2.4480    1.6940 H   0  0  0  0  0  0  0  0  0  0  0  0
    1.9010    2.4320    0.3290 H   0  0  0  0  0  0  0  0  0  0  0  0
    3.3680   -0.3880   -1.5000 H   0  0  0  0  0  0  0  0  0  0  0  0
    3.1120   -1.6190    1.3090 H   0  0  0  0  0  0  0  0  0  0  0  0
    3.0260   -2.4830   -0.2070 H   0  0  0  0  0  0  0  0  0  0  0  0
    5.9530    0.0780   -0.6450 H   0  0  0  0  0  0  0  0  0  0  0  0
    6.6490   -0.3920    0.8810 H   0  0  0  0  0  0  0  0  0  0  0  0
    4.4340    0.2480    2.0520 H   0  0  0  0  0  0  0  0  0  0  0  0
    5.3040    1.5820    1.3380 H   0  0  0  0  0  0  0  0  0  0  0  0
    5.1130   -1.8550   -1.9610 H   0  0  0  0  0  0  0  0  0  0  0  0
    5.1190   -3.4150   -1.1440 H   0  0  0  0  0  0  0  0  0  0  0  0
    6.5700   -2.4160   -1.1440 H   0  0  0  0  0  0  0  0  0  0  0  0
    5.2760   -2.1150    2.3800 H   0  0  0  0  0  0  0  0  0  0  0  0
    6.5370   -2.8190    1.3710 H   0  0  0  0  0  0  0  0  0  0  0  0
    4.9360   -3.5550    1.4180 H   0  0  0  0  0  0  0  0  0  0  0  0
    3.4130    2.7050   -2.5700 H   0  0  0  0  0  0  0  0  0  0  0  0
    1.4920   -1.8880    1.8320 H   0  0  0  0  0  0  0  0  0  0  0  0
    0.0180   -2.1670    0.9120 H   0  0  0  0  0  0  0  0  0  0  0  0
   -0.0560   -1.3030    2.4520 H   0  0  0  0  0  0  0  0  0  0  0  0
    0.0440    1.7790   -1.2380 H   0  0  0  0  0  0  0  0  0  0  0  0
    0.1580    2.5700    0.3210 H   0  0  0  0  0  0  0  0  0  0  0  0
   -1.3960    2.4090   -0.4510 H   0  0  0  0  0  0  0  0  0  0  0  0
   -5.4520    1.4690   -0.9340 H   0  0  0  0  0  0  0  0  0  0  0  0
   -6.7450    1.3950    0.2440 H   0  0  0  0  0  0  0  0  0  0  0  0
   -5.2470    2.2060    0.6570 H   0  0  0  0  0  0  0  0  0  0  0  0
   -5.2140    0.7140    2.7720 H   0  0  0  0  0  0  0  0  0  0  0  0
   -5.2810   -1.0410    2.6280 H   0  0  0  0  0  0  0  0  0  0  0  0
   -6.6920   -0.0770    2.2130 H   0  0  0  0  0  0  0  0  0  0  0  0
   -7.3840   -1.8470   -0.5810 H   0  0  0  0  0  0  0  0  0  0  0  0
  1 35  1  0
  1 34  1  0
  1 36  1  0
  2  1  1  6
  2  3  1  0
  2 11  1  0
  2  7  1  0
  3 38  1  0
  3  4  1  0
  3 37  1  0
  4 39  1  0
  4 40  1  0
  4  5  1  0
  5 33  1  0
  5 41  1  1
  5  6  1  0
  6 31  1  6
  6  7  1  0
  6 32  1  0
  7 42  1  1
  7  8  1  0
  8 43  1  0
  8  9  1  0
  8 44  1  0
  9 10  1  0
  9 45  1  0
  9 46  1  0
 10 11  1  0
 10 30  1  6
 10 15  1  0
 11 12  1  0
 11 47  1  1
 12 49  1  0
 12 48  1  0
 12 13  1  0
 13 50  1  0
 13 14  2  0
 14 19  1  0
 14 15  1  0
 15 29  1  1
 15 16  1  0
 16 17  1  0
 16 52  1  0
 16 51  1  0
 17 18  1  0
 17 54  1  0
 17 53  1  0
 18 26  1  6
 18 19  1  0
 18 23  1  0
 19 55  1  6
 19 20  1  0
 20 57  1  0
 20 21  1  0
 20 56  1  0
 21 24  1  6
 21 22  1  0
 21 25  1  0
 22 58  1  0
 22 59  1  0
 22 23  1  0
 23 61  1  0
 23 60  1  0
 24 62  1  0
 24 64  1  0
 24 63  1  0
 25 66  1  0
 25 67  1  0
 25 65  1  0
 26 28  1  0
 26 27  2  0
 28 68  1  0
 29 70  1  0
 29 69  1  0
 29 71  1  0
 30 72  1  0
 30 74  1  0
 30 73  1  0
 31 75  1  0
 31 76  1  0
 31 77  1  0
 32 80  1  0
 32 79  1  0
 32 78  1  0
 33 81  1  0
M  END
>  <id>  (870) 
983

>  <scaffolds>  (870) 
['C1=C2C3CCCCC3CCC2C2CCC3CCCCC3C2C1', 'C1=CCCCC1', 'C1=CCC2CCCCC2C1', 'C1CCCCC1', 'C=C1CCCC2CCCCC12', 'C1=C2CCCCC2CCC1', 'C1=C2C3CCCCC3CCC2C2CCCCC2C1', 'C1CCC2CCCCC2C1']

>  <name>  (870) 
Oleonolic acid

>  <formula>  (870) 
C30H48O3

>  <SMILES>  (870) 
C[C@]12CC[C@@H](C([C@@H]1CC[C@@]3([C@@H]2CC=C4[C@]3(CC[C@@]5([C@H]4CC(CC5)(C)C)C(=O)O)C)C)(C)C)O

>  <ChEMBL_id>  (870) 
SCHEMBL71070

>  <ZINC_id>  (870) 
ZINC3785416

>  <PubChem_id>  (870) 
10494

>  <DrugBank_id>  (870) 


>  <CAS_no>  (870) 
508-02-1

>  <references>  (870) 
[{'journal': {'name': 'Food Chemistry', 'id': 64}, 'title': 'Antioxidant, antiinflammatory activities and HPLC analysis of South African Salvia species', 'year': 2010, 'start_page': None, 'volume': None, 'issue': None, 'doi': '10.1016/j.foodchem.2009.07.010', 'isbn': '', 'despositor': {'code': 'BND', 'first_name': "Bakary N'tji", 'last_name': 'Diallo', 'id': 26}, 'refauthors_set': [{'author': {'first_name': 'Kamatou', 'initials': 'KG', 'last_name': 'Guy', 'id': 1029}, 'first_author': True, 'id': 1610}], 'id': 511}]

>  <classifications>  (870) 
[{'classification': 'Phenol lipids (Classyfire)', 'id': 951}]

>  <molecular_mass>  (870) 
456.7

$$$$
SANC00984_minRM1.pdb
     RDKit          3D

 21 21  0  0  0  0  0  0  0  0999 V2000
    0.8920   -1.6180   -0.0810 C   0  0  0  0  0  0  0  0  0  0  0  0
    2.2680   -1.5300   -0.2210 C   0  0  0  0  0  0  0  0  0  0  0  0
    2.8900   -0.2820   -0.1270 C   0  0  0  0  0  0  0  0  0  0  0  0
    2.1160    0.8670    0.1040 C   0  0  0  0  0  0  0  0  0  0  0  0
    0.7340    0.7770    0.2330 C   0  0  0  0  0  0  0  0  0  0  0  0
    0.1260   -0.4720    0.1370 C   0  0  0  0  0  0  0  0  0  0  0  0
   -1.3190   -0.6030    0.2740 C   0  0  0  0  0  0  0  0  0  0  0  0
   -2.1690    0.2760   -0.2660 C   0  0  0  0  0  0  0  0  0  0  0  0
   -3.6190    0.0870   -0.0930 C   0  0  0  0  0  0  0  0  0  0  0  0
   -4.1660   -0.9450    0.2570 O   0  0  0  0  0  0  0  0  0  0  0  0
   -4.4600    1.1230   -0.3340 O   0  0  0  0  0  0  0  0  0  0  0  0
    2.7980    2.0440    0.1480 O   0  0  0  0  0  0  0  0  0  0  0  0
    4.2330   -0.2840   -0.2840 O   0  0  0  0  0  0  0  0  0  0  0  0
    0.4060   -2.5960   -0.1510 H   0  0  0  0  0  0  0  0  0  0  0  0
    2.8710   -2.4260   -0.4020 H   0  0  0  0  0  0  0  0  0  0  0  0
    0.1360    1.6730    0.4240 H   0  0  0  0  0  0  0  0  0  0  0  0
   -1.6760   -1.4750    0.8420 H   0  0  0  0  0  0  0  0  0  0  0  0
   -1.8330    1.1250   -0.8670 H   0  0  0  0  0  0  0  0  0  0  0  0
   -3.9680    1.9130   -0.5760 H   0  0  0  0  0  0  0  0  0  0  0  0
    2.2560    2.6890    0.6150 H   0  0  0  0  0  0  0  0  0  0  0  0
    4.5830    0.6020   -0.1370 H   0  0  0  0  0  0  0  0  0  0  0  0
  1  2  2  0
  1 14  1  0
  1  6  1  0
  2 15  1  0
  2  3  1  0
  3 13  1  0
  3  4  2  0
  4 12  1  0
  4  5  1  0
  5  6  2  0
  5 16  1  0
  6  7  1  0
  7  8  2  0
  7 17  1  0
  8 18  1  0
  8  9  1  0
  9 11  1  0
  9 10  2  0
 11 19  1  0
 12 20  1  0
 13 21  1  0
M  END
>  <id>  (871) 
984

>  <scaffolds>  (871) 
['c1ccccc1']

>  <name>  (871) 
Caffeic acid

>  <formula>  (871) 
C9H8O4

>  <SMILES>  (871) 
C1=CC(=C(C=C1/C=C/C(=O)O)O)O

>  <ChEMBL_id>  (871) 
SCHEMBL23358

>  <ZINC_id>  (871) 
ZINC58172

>  <PubChem_id>  (871) 
689043

>  <DrugBank_id>  (871) 
DB01880

>  <CAS_no>  (871) 
331-39-5

>  <references>  (871) 
[{'journal': {'name': 'Food Chemistry', 'id': 64}, 'title': 'Antioxidant, antiinflammatory activities and HPLC analysis of South African Salvia species', 'year': 2010, 'start_page': None, 'volume': None, 'issue': None, 'doi': '10.1016/j.foodchem.2009.07.010', 'isbn': '', 'despositor': {'code': 'BND', 'first_name': "Bakary N'tji", 'last_name': 'Diallo', 'id': 26}, 'refauthors_set': [{'author': {'first_name': 'Kamatou', 'initials': 'KG', 'last_name': 'Guy', 'id': 1029}, 'first_author': True, 'id': 1610}], 'id': 511}]

>  <classifications>  (871) 
[{'classification': 'Cinnamic acids and derivatives (Classyfire)', 'id': 975}]

>  <molecular_mass>  (871) 
180.16

$$$$
SANC00985_minRM1.pdb
     RDKit          3D

 54 57  0  0  1  0  0  0  0  0999 V2000
    5.2830   -0.0610    0.7440 C   0  0  0  0  0  0  0  0  0  0  0  0
    4.5130   -0.4390   -0.5170 C   0  0  2  0  0  0  0  0  0  0  0  0
    5.1060    0.2420   -1.7460 C   0  0  0  0  0  0  0  0  0  0  0  0
    3.0620   -0.0930   -0.3790 C   0  0  0  0  0  0  0  0  0  0  0  0
    2.6170    1.1950   -0.1160 C   0  0  0  0  0  0  0  0  0  0  0  0
    1.2420    1.4820    0.0110 C   0  0  0  0  0  0  0  0  0  0  0  0
    0.2890    0.4740   -0.0620 C   0  0  0  0  0  0  0  0  0  0  0  0
    0.7420   -0.8180   -0.3820 C   0  0  0  0  0  0  0  0  0  0  0  0
    2.0950   -1.0890   -0.5320 C   0  0  0  0  0  0  0  0  0  0  0  0
   -0.2190   -1.9400   -0.6920 C   0  0  2  0  0  0  0  0  0  0  0  0
   -1.6760   -1.5840   -0.3100 C   0  0  2  0  0  0  0  0  0  0  0  0
   -1.9310   -0.1650   -0.8830 C   0  0  2  0  0  0  0  0  0  0  0  0
   -1.1780    0.6400    0.2050 C   0  0  2  0  0  0  0  0  0  0  0  0
   -1.7410    2.0280    0.4110 C   0  0  0  0  0  0  0  0  0  0  0  0
   -3.2220    1.9770    0.7950 C   0  0  0  0  0  0  0  0  0  0  0  0
   -3.9620    0.7480    0.2790 C   0  0  0  0  0  0  0  0  0  0  0  0
   -3.3950    0.2560   -1.0520 C   0  0  2  0  0  0  0  0  0  0  0  0
   -4.2460   -0.9050   -1.5680 C   0  0  0  0  0  0  0  0  0  0  0  0
   -3.4730    1.3840   -2.0900 C   0  0  0  0  0  0  0  0  0  0  0  0
   -1.4240   -0.2000    1.4530 C   0  0  0  0  0  0  0  0  0  0  0  0
   -1.3570    0.0650    2.6290 O   0  0  0  0  0  0  0  0  0  0  0  0
   -1.7770   -1.4750    1.0940 O   0  0  0  0  0  0  0  0  0  0  0  0
    0.1810   -3.1770   -0.1850 O   0  0  0  0  0  0  0  0  0  0  0  0
    0.3710   -3.2670    1.2030 C   0  0  0  0  0  0  0  0  0  0  0  0
    0.9010    2.7670    0.3000 O   0  0  0  0  0  0  0  0  0  0  0  0
    3.4920    2.2360   -0.0790 O   0  0  0  0  0  0  0  0  0  0  0  0
    6.2910   -0.5020    0.7430 H   0  0  0  0  0  0  0  0  0  0  0  0
    5.4300    1.0210    0.8610 H   0  0  0  0  0  0  0  0  0  0  0  0
    4.7810   -0.4180    1.6540 H   0  0  0  0  0  0  0  0  0  0  0  0
    4.6130   -1.5500   -0.6540 H   0  0  0  0  0  0  0  0  0  0  0  0
    5.1380    1.3360   -1.6650 H   0  0  0  0  0  0  0  0  0  0  0  0
    4.5370    0.0070   -2.6560 H   0  0  0  0  0  0  0  0  0  0  0  0
    6.1410   -0.0860   -1.9240 H   0  0  0  0  0  0  0  0  0  0  0  0
    2.4100   -2.1100   -0.7780 H   0  0  0  0  0  0  0  0  0  0  0  0
   -0.1790   -2.1420   -1.7990 H   0  0  0  0  0  0  0  0  0  0  0  0
   -2.3840   -2.3890   -0.6060 H   0  0  0  0  0  0  0  0  0  0  0  0
   -1.4350   -0.0630   -1.8800 H   0  0  0  0  0  0  0  0  0  0  0  0
   -1.5930    2.6240   -0.5160 H   0  0  0  0  0  0  0  0  0  0  0  0
   -1.1940    2.5660    1.2130 H   0  0  0  0  0  0  0  0  0  0  0  0
   -3.7200    2.9040    0.4370 H   0  0  0  0  0  0  0  0  0  0  0  0
   -3.3290    2.0270    1.9010 H   0  0  0  0  0  0  0  0  0  0  0  0
   -5.0450    0.9780    0.1750 H   0  0  0  0  0  0  0  0  0  0  0  0
   -3.9490   -0.0690    1.0310 H   0  0  0  0  0  0  0  0  0  0  0  0
   -5.2430   -0.5670   -1.8890 H   0  0  0  0  0  0  0  0  0  0  0  0
   -3.7910   -1.3990   -2.4380 H   0  0  0  0  0  0  0  0  0  0  0  0
   -4.4250   -1.6790   -0.8090 H   0  0  0  0  0  0  0  0  0  0  0  0
   -3.2680    1.0260   -3.1100 H   0  0  0  0  0  0  0  0  0  0  0  0
   -2.7560    2.1970   -1.8970 H   0  0  0  0  0  0  0  0  0  0  0  0
   -4.4700    1.8470   -2.1180 H   0  0  0  0  0  0  0  0  0  0  0  0
   -0.5590   -3.5600    1.7170 H   0  0  0  0  0  0  0  0  0  0  0  0
    0.7640   -2.3560    1.6840 H   0  0  0  0  0  0  0  0  0  0  0  0
    1.1070   -4.0760    1.3310 H   0  0  0  0  0  0  0  0  0  0  0  0
    1.1930    3.2990   -0.4530 H   0  0  0  0  0  0  0  0  0  0  0  0
    3.4150    2.6270    0.8030 H   0  0  0  0  0  0  0  0  0  0  0  0
  1  2  1  0
  1 27  1  0
  1 28  1  0
  1 29  1  0
  2  3  1  0
  2 30  1  6
  2  4  1  0
  3 32  1  0
  3 33  1  0
  3 31  1  0
  4  9  2  0
  4  5  1  0
  5 26  1  0
  5  6  2  0
  6  7  1  0
  6 25  1  0
  7  8  2  0
  8 10  1  0
  8  9  1  0
  9 34  1  0
 10 35  1  6
 10 11  1  0
 10 23  1  0
 11 12  1  0
 11 36  1  6
 11 22  1  0
 12 37  1  6
 12 17  1  0
 12 13  1  0
 13  7  1  0
 13 14  1  0
 13 20  1  1
 14 38  1  0
 14 15  1  0
 14 39  1  0
 15 16  1  0
 15 40  1  0
 15 41  1  0
 16 17  1  0
 16 42  1  0
 16 43  1  0
 17 19  1  6
 17 18  1  0
 18 45  1  0
 18 44  1  0
 18 46  1  0
 19 47  1  0
 19 49  1  0
 19 48  1  0
 20 22  1  0
 20 21  2  0
 23 24  1  0
 24 52  1  0
 24 51  1  0
 24 50  1  0
 25 53  1  0
 26 54  1  0
M  END
>  <id>  (872) 
985

>  <scaffolds>  (872) 
['c1ccccc1', 'O=C1OC2Cc3ccccc3C13CCCCC23', 'C1CCCCC1', 'c1ccc2c(c1)CCC1CCCCC21', 'O=C1CCCO1', 'c1ccc2c(c1)CCCC2']

>  <name>  (872) 
7[beta]-Methoxyrosmanol

>  <formula>  (872) 
C21H28O5

>  <SMILES>  (872) 
CC(C)C1=C(C(=C2C(=C1)[C@H]([C@@H]3[C@@H]4[C@@]2(CCCC4(C)C)C(=O)O3)OC)O)O

>  <ChEMBL_id>  (872) 
CHEMBL1081338

>  <ZINC_id>  (872) 


>  <PubChem_id>  (872) 
46883406

>  <DrugBank_id>  (872) 


>  <CAS_no>  (872) 
24703-38-6

>  <references>  (872) 
[{'journal': {'name': 'Food Chemistry', 'id': 64}, 'title': 'Antioxidant, antiinflammatory activities and HPLC analysis of South African Salvia species', 'year': 2010, 'start_page': None, 'volume': None, 'issue': None, 'doi': '10.1016/j.foodchem.2009.07.010', 'isbn': '', 'despositor': {'code': 'BND', 'first_name': "Bakary N'tji", 'last_name': 'Diallo', 'id': 26}, 'refauthors_set': [{'author': {'first_name': 'Kamatou', 'initials': 'KG', 'last_name': 'Guy', 'id': 1029}, 'first_author': True, 'id': 1610}], 'id': 511}]

>  <classifications>  (872) 
[{'classification': 'Phenol lipids', 'id': 899}, {'classification': 'Phenol lipids (Classyfire)', 'id': 951}]

>  <molecular_mass>  (872) 
360.4

$$$$
SANC00986_minRM1.pdb
     RDKit          3D

 26 28  0  0  0  0  0  0  0  0999 V2000
   -3.5680   -0.7020    0.0010 C   0  0  0  0  0  0  0  0  0  0  0  0
   -3.5350    0.6950    0.0010 C   0  0  0  0  0  0  0  0  0  0  0  0
   -2.3430    1.4240    0.0010 C   0  0  0  0  0  0  0  0  0  0  0  0
   -1.1520    0.7050   -0.0010 C   0  0  0  0  0  0  0  0  0  0  0  0
   -1.1440   -0.6880   -0.0020 C   0  0  0  0  0  0  0  0  0  0  0  0
   -2.3540   -1.3900    0.0000 C   0  0  0  0  0  0  0  0  0  0  0  0
   -2.2560   -2.7360    0.0000 O   0  0  0  0  0  0  0  0  0  0  0  0
    0.0060   -1.4480   -0.0050 O   0  0  0  0  0  0  0  0  0  0  0  0
    1.1520   -0.7050   -0.0040 C   0  0  0  0  0  0  0  0  0  0  0  0
    2.3430   -1.4240   -0.0030 C   0  0  0  0  0  0  0  0  0  0  0  0
    3.5350   -0.6950   -0.0010 C   0  0  0  0  0  0  0  0  0  0  0  0
    3.5680    0.7020   -0.0010 C   0  0  0  0  0  0  0  0  0  0  0  0
    2.3540    1.3900   -0.0010 C   0  0  0  0  0  0  0  0  0  0  0  0
    1.1440    0.6880   -0.0020 C   0  0  0  0  0  0  0  0  0  0  0  0
   -0.0060    1.4480   -0.0020 O   0  0  0  0  0  0  0  0  0  0  0  0
    2.2570    2.7360   -0.0000 O   0  0  0  0  0  0  0  0  0  0  0  0
    4.7500   -1.2920    0.0010 O   0  0  0  0  0  0  0  0  0  0  0  0
   -4.7500    1.2920    0.0020 O   0  0  0  0  0  0  0  0  0  0  0  0
   -4.5260   -1.2270    0.0020 H   0  0  0  0  0  0  0  0  0  0  0  0
   -2.3240    2.5170    0.0020 H   0  0  0  0  0  0  0  0  0  0  0  0
   -3.1470   -3.1100    0.0060 H   0  0  0  0  0  0  0  0  0  0  0  0
    2.3240   -2.5170   -0.0050 H   0  0  0  0  0  0  0  0  0  0  0  0
    4.5260    1.2270   -0.0020 H   0  0  0  0  0  0  0  0  0  0  0  0
    3.1470    3.1100    0.0070 H   0  0  0  0  0  0  0  0  0  0  0  0
    4.6310   -2.2490    0.0100 H   0  0  0  0  0  0  0  0  0  0  0  0
   -4.6320    2.2490   -0.0030 H   0  0  0  0  0  0  0  0  0  0  0  0
  1  6  2  0
  1  2  1  0
  1 19  1  0
  2  3  2  0
  2 18  1  0
  3  4  1  0
  3 20  1  0
  4  5  2  0
  4 15  1  0
  5  8  1  0
  5  6  1  0
  6  7  1  0
  7 21  1  0
  8  9  1  0
  9 10  2  0
  9 14  1  0
 10 22  1  0
 10 11  1  0
 11 12  2  0
 11 17  1  0
 12 23  1  0
 12 13  1  0
 13 14  2  0
 13 16  1  0
 14 15  1  0
 16 24  1  0
 17 25  1  0
 18 26  1  0
M  END
>  <id>  (873) 
986

>  <scaffolds>  (873) 
['c1ccccc1', 'c1ccc2c(c1)Oc1ccccc1O2']

>  <name>  (873) 
Dibenzo-1,4-dioxin-1,3,6,8-tetraol

>  <formula>  (873) 
C12H8O6

>  <SMILES>  (873) 
C1=C(C=C2C(=C1O)OC3=CC(=CC(=C3O2)O)O)O

>  <ChEMBL_id>  (873) 
SCHEMBL20138599

>  <ZINC_id>  (873) 


>  <PubChem_id>  (873) 
14309078

>  <DrugBank_id>  (873) 


>  <CAS_no>  (873) 
121449-71-6

>  <references>  (873) 
[{'journal': {'name': 'Food Research International', 'id': 65}, 'title': 'Acetylcholinesterase inhibitory activity of phlorotannins isolated from the brown alga, Ecklonia maxima (Osbeck) Papenfuss', 'year': 2013, 'start_page': None, 'volume': None, 'issue': None, 'doi': '10.1016/j.foodres.2012.11.017', 'isbn': '', 'despositor': {'code': 'BND', 'first_name': "Bakary N'tji", 'last_name': 'Diallo', 'id': 26}, 'refauthors_set': [{'author': {'first_name': 'Kannan', 'initials': 'KR', 'last_name': 'Rengasamy', 'id': 1030}, 'first_author': True, 'id': 1611}], 'id': 512}]

>  <classifications>  (873) 
[{'classification': 'Benzodioxins (Classyfire)', 'id': 1009}]

>  <molecular_mass>  (873) 
248.19

$$$$
SANC00987_minRM1.pdb
     RDKit          3D

 43 46  0  0  1  0  0  0  0  0999 V2000
    4.4290   -0.7850    2.0030 C   0  0  0  0  0  0  0  0  0  0  0  0
    3.2940   -0.3990    1.1410 N   0  0  0  0  0  0  0  0  0  0  0  0
    3.5610    0.7810    0.2510 C   0  0  2  0  0  0  0  0  0  0  0  0
    2.1640    1.3480   -0.0620 C   0  0  0  0  0  0  0  0  0  0  0  0
    1.3300    0.2890   -0.8010 C   0  0  1  0  0  0  0  0  0  0  0  0
    1.4120   -1.1110   -0.1720 C   0  0  0  0  0  0  0  0  0  0  0  0
    2.8790   -1.4490    0.1510 C   0  0  1  0  0  0  0  0  0  0  0  0
    3.7000   -1.2100   -1.1270 C   0  0  1  0  0  0  0  0  0  0  0  0
    4.1400    0.2290   -1.0630 C   0  0  2  0  0  0  0  0  0  0  0  0
    5.0470   -0.8460   -0.8720 O   0  0  0  0  0  0  0  0  0  0  0  0
   -0.0020    0.7010   -1.0030 O   0  0  0  0  0  0  0  0  0  0  0  0
   -0.8680    0.8980    0.0180 C   0  0  0  0  0  0  0  0  0  0  0  0
   -0.5390    0.7890    1.1830 O   0  0  0  0  0  0  0  0  0  0  0  0
   -2.2420    1.2840   -0.4890 C   0  0  2  0  0  0  0  0  0  0  0  0
   -2.6900    2.5210    0.3240 C   0  0  0  0  0  0  0  0  0  0  0  0
   -3.2580    2.1940    1.5470 O   0  0  0  0  0  0  0  0  0  0  0  0
   -3.1750    0.1180   -0.3820 C   0  0  0  0  0  0  0  0  0  0  0  0
   -2.6880   -1.1870   -0.4300 C   0  0  0  0  0  0  0  0  0  0  0  0
   -3.5620   -2.2640   -0.3670 C   0  0  0  0  0  0  0  0  0  0  0  0
   -4.9310   -2.0480   -0.2640 C   0  0  0  0  0  0  0  0  0  0  0  0
   -5.4200   -0.7490   -0.2320 C   0  0  0  0  0  0  0  0  0  0  0  0
   -4.5490    0.3320   -0.2950 C   0  0  0  0  0  0  0  0  0  0  0  0
    5.3850   -1.0550    1.5190 H   0  0  0  0  0  0  0  0  0  0  0  0
    4.6460    0.0460    2.6970 H   0  0  0  0  0  0  0  0  0  0  0  0
    4.1280   -1.6490    2.6200 H   0  0  0  0  0  0  0  0  0  0  0  0
    4.2230    1.5430    0.7230 H   0  0  0  0  0  0  0  0  0  0  0  0
    1.6850    1.6780    0.8820 H   0  0  0  0  0  0  0  0  0  0  0  0
    2.2470    2.2680   -0.6770 H   0  0  0  0  0  0  0  0  0  0  0  0
    1.6500    0.2400   -1.8790 H   0  0  0  0  0  0  0  0  0  0  0  0
    0.9820   -1.8670   -0.8610 H   0  0  0  0  0  0  0  0  0  0  0  0
    0.8060   -1.1920    0.7530 H   0  0  0  0  0  0  0  0  0  0  0  0
    2.9900   -2.4870    0.5440 H   0  0  0  0  0  0  0  0  0  0  0  0
    3.4880   -1.8120   -2.0190 H   0  0  0  0  0  0  0  0  0  0  0  0
    4.3230    0.9160   -1.8980 H   0  0  0  0  0  0  0  0  0  0  0  0
   -2.1940    1.5750   -1.5730 H   0  0  0  0  0  0  0  0  0  0  0  0
   -1.8400    3.2370    0.4290 H   0  0  0  0  0  0  0  0  0  0  0  0
   -3.4880    3.0850   -0.2090 H   0  0  0  0  0  0  0  0  0  0  0  0
   -2.6100    1.7110    2.0720 H   0  0  0  0  0  0  0  0  0  0  0  0
   -1.6160   -1.3900   -0.5220 H   0  0  0  0  0  0  0  0  0  0  0  0
   -3.1710   -3.2850   -0.3970 H   0  0  0  0  0  0  0  0  0  0  0  0
   -5.6180   -2.8970   -0.2110 H   0  0  0  0  0  0  0  0  0  0  0  0
   -6.4970   -0.5740   -0.1540 H   0  0  0  0  0  0  0  0  0  0  0  0
   -4.9660    1.3420   -0.2690 H   0  0  0  0  0  0  0  0  0  0  0  0
  1  2  1  0
  1 23  1  0
  1 25  1  0
  1 24  1  0
  2  7  1  0
  2  3  1  0
  3  9  1  0
  3  4  1  0
  3 26  1  1
  4  5  1  0
  4 28  1  0
  4 27  1  0
  5 29  1  6
  5 11  1  0
  5  6  1  0
  6 30  1  0
  6  7  1  0
  6 31  1  0
  7  8  1  0
  7 32  1  1
  8 33  1  6
  8  9  1  0
  8 10  1  0
  9 34  1  6
  9 10  1  0
 11 12  1  0
 12 14  1  0
 12 13  2  0
 14 35  1  6
 14 17  1  0
 14 15  1  0
 15 37  1  0
 15 36  1  0
 15 16  1  0
 16 38  1  0
 17 18  2  0
 17 22  1  0
 18 39  1  0
 18 19  1  0
 19 40  1  0
 19 20  2  0
 20 21  1  0
 20 41  1  0
 21 22  2  0
 21 42  1  0
 22 43  1  0
M  END
>  <id>  (874) 
987

>  <scaffolds>  (874) 
['c1ccccc1', 'C1CCNCC1', 'O=C(Cc1ccccc1)OC1CC2CCC(C1)N2', 'C1CCNC1', 'O=C(Cc1ccccc1)OC1CC2NC(C1)C1OC21']

>  <name>  (874) 
Scopolamine

>  <formula>  (874) 
C17H21NO4

>  <SMILES>  (874) 
CN1[C@@H]2CC(C[C@H]1[C@H]3[C@@H]2O3)OC(=O)[C@H](CO)C4=CC=CC=C4

>  <ChEMBL_id>  (874) 
CHEMBL3084722

>  <ZINC_id>  (874) 
ZINC101147375

>  <PubChem_id>  (874) 
3000322

>  <DrugBank_id>  (874) 
DB00747

>  <CAS_no>  (874) 
51-34-3

>  <references>  (874) 
[{'journal': {'name': 'Forensic Science International', 'id': 66}, 'title': 'Fatal Datura poisoning: Identification of atropine and scopolamine by high performance liquid chromatography/photodiode array/mass spectrometry', 'year': 2004, 'start_page': None, 'volume': None, 'issue': None, 'doi': '10.1016/j.forsciint.2004.03.011', 'isbn': '', 'despositor': {'code': 'BND', 'first_name': "Bakary N'tji", 'last_name': 'Diallo', 'id': 26}, 'refauthors_set': [{'author': {'first_name': 'Steenkamp', 'initials': 'SP', 'last_name': 'P.', 'id': 1031}, 'first_author': True, 'id': 1612}], 'id': 513}]

>  <classifications>  (874) 
[{'classification': 'Hydroxy acids and derivatives (Classyfire)', 'id': 1010}]

>  <molecular_mass>  (874) 
303.35

$$$$
SANC00988_minRM1.pdb
     RDKit          3D

 44 46  0  0  1  0  0  0  0  0999 V2000
   -5.6070    0.0450    0.3030 C   0  0  0  0  0  0  0  0  0  0  0  0
   -4.1540    0.2680    0.1310 N   0  0  0  0  0  0  0  0  0  0  0  0
   -3.6200   -0.4130   -1.0970 C   0  0  2  0  0  0  0  0  0  0  0  0
   -3.4860   -1.9080   -0.7240 C   0  0  0  0  0  0  0  0  0  0  0  0
   -3.3050   -1.9120    0.7970 C   0  0  0  0  0  0  0  0  0  0  0  0
   -3.3470   -0.4180    1.1980 C   0  0  1  0  0  0  0  0  0  0  0  0
   -1.9370    0.2020    1.1620 C   0  0  0  0  0  0  0  0  0  0  0  0
   -1.6960    0.9420   -0.1600 C   0  0  2  0  0  0  0  0  0  0  0  0
   -2.2400    0.2080   -1.3910 C   0  0  0  0  0  0  0  0  0  0  0  0
   -0.3440    1.3150   -0.3170 O   0  0  0  0  0  0  0  0  0  0  0  0
    0.6530    0.4050   -0.4380 C   0  0  0  0  0  0  0  0  0  0  0  0
    0.4350   -0.7900   -0.4170 O   0  0  0  0  0  0  0  0  0  0  0  0
    1.9880    1.0860   -0.6370 C   0  0  1  0  0  0  0  0  0  0  0  0
    2.1510    2.3320    0.2620 C   0  0  0  0  0  0  0  0  0  0  0  0
    1.9220    2.0350    1.6000 O   0  0  0  0  0  0  0  0  0  0  0  0
    3.1050    0.1300   -0.3650 C   0  0  0  0  0  0  0  0  0  0  0  0
    4.1390   -0.0080   -1.2870 C   0  0  0  0  0  0  0  0  0  0  0  0
    5.1910   -0.8760   -1.0230 C   0  0  0  0  0  0  0  0  0  0  0  0
    5.2120   -1.6070    0.1590 C   0  0  0  0  0  0  0  0  0  0  0  0
    4.1800   -1.4680    1.0770 C   0  0  0  0  0  0  0  0  0  0  0  0
    3.1250   -0.6000    0.8180 C   0  0  0  0  0  0  0  0  0  0  0  0
   -6.1530    0.5330   -0.5230 H   0  0  0  0  0  0  0  0  0  0  0  0
   -5.9520   -1.0050    0.3420 H   0  0  0  0  0  0  0  0  0  0  0  0
   -5.9440    0.5290    1.2360 H   0  0  0  0  0  0  0  0  0  0  0  0
   -4.2950   -0.2720   -1.9770 H   0  0  0  0  0  0  0  0  0  0  0  0
   -4.3830   -2.4800   -1.0340 H   0  0  0  0  0  0  0  0  0  0  0  0
   -2.6530   -2.4120   -1.2500 H   0  0  0  0  0  0  0  0  0  0  0  0
   -4.1050   -2.4850    1.3070 H   0  0  0  0  0  0  0  0  0  0  0  0
   -2.3730   -2.4170    1.1120 H   0  0  0  0  0  0  0  0  0  0  0  0
   -3.7970   -0.2810    2.2120 H   0  0  0  0  0  0  0  0  0  0  0  0
   -1.1710   -0.5710    1.3670 H   0  0  0  0  0  0  0  0  0  0  0  0
   -1.8140    0.9190    2.0020 H   0  0  0  0  0  0  0  0  0  0  0  0
   -2.1560    1.9690   -0.1040 H   0  0  0  0  0  0  0  0  0  0  0  0
   -2.3180    0.9280   -2.2340 H   0  0  0  0  0  0  0  0  0  0  0  0
   -1.5440   -0.5630   -1.7750 H   0  0  0  0  0  0  0  0  0  0  0  0
    2.0040    1.4220   -1.7080 H   0  0  0  0  0  0  0  0  0  0  0  0
    1.5160    3.1690   -0.1120 H   0  0  0  0  0  0  0  0  0  0  0  0
    3.2030    2.6940    0.2310 H   0  0  0  0  0  0  0  0  0  0  0  0
    0.9720    1.9600    1.7360 H   0  0  0  0  0  0  0  0  0  0  0  0
    4.1350    0.5590   -2.2220 H   0  0  0  0  0  0  0  0  0  0  0  0
    6.0030   -0.9860   -1.7480 H   0  0  0  0  0  0  0  0  0  0  0  0
    6.0410   -2.2910    0.3650 H   0  0  0  0  0  0  0  0  0  0  0  0
    4.1940   -2.0430    2.0080 H   0  0  0  0  0  0  0  0  0  0  0  0
    2.3170   -0.5000    1.5500 H   0  0  0  0  0  0  0  0  0  0  0  0
  1 22  1  0
  1  2  1  0
  1 23  1  0
  1 24  1  0
  2  3  1  0
  2  6  1  0
  3 25  1  6
  3  9  1  0
  3  4  1  0
  4 27  1  0
  4 26  1  0
  4  5  1  0
  5 29  1  0
  5  6  1  0
  5 28  1  0
  6  7  1  0
  6 30  1  1
  7  8  1  0
  7 31  1  0
  7 32  1  0
  8  9  1  0
  8 10  1  0
  8 33  1  1
  9 34  1  0
  9 35  1  0
 10 11  1  0
 11 13  1  0
 11 12  2  0
 13 36  1  6
 13 16  1  0
 13 14  1  0
 14 37  1  0
 14 38  1  0
 14 15  1  0
 15 39  1  0
 16 17  2  0
 16 21  1  0
 17 40  1  0
 17 18  1  0
 18 41  1  0
 18 19  2  0
 19 42  1  0
 19 20  1  0
 20 21  2  0
 20 43  1  0
 21 44  1  0
M  END
>  <id>  (875) 
988

>  <scaffolds>  (875) 
['c1ccccc1', 'C1CCNCC1', 'O=C(Cc1ccccc1)OC1CC2CCC(C1)N2', 'C1CCNC1']

>  <name>  (875) 
Atropine

>  <formula>  (875) 
C17H23NO3

>  <SMILES>  (875) 
CN1[C@@H]2CC[C@H]1CC(C2)OC(=O)C(CO)C3=CC=CC=C3

>  <ChEMBL_id>  (875) 
CHEMBL517712

>  <ZINC_id>  (875) 


>  <PubChem_id>  (875) 
174174

>  <DrugBank_id>  (875) 
DB00572

>  <CAS_no>  (875) 
51-55-8

>  <references>  (875) 
[{'journal': {'name': 'Forensic Science International', 'id': 66}, 'title': 'Fatal Datura poisoning: Identification of atropine and scopolamine by high performance liquid chromatography/photodiode array/mass spectrometry', 'year': 2004, 'start_page': None, 'volume': None, 'issue': None, 'doi': '10.1016/j.forsciint.2004.03.011', 'isbn': '', 'despositor': {'code': 'BND', 'first_name': "Bakary N'tji", 'last_name': 'Diallo', 'id': 26}, 'refauthors_set': [{'author': {'first_name': 'Steenkamp', 'initials': 'SP', 'last_name': 'P.', 'id': 1031}, 'first_author': True, 'id': 1612}], 'id': 513}]

>  <classifications>  (875) 
[{'classification': 'Tropane alkaloids (Classyfire)', 'id': 1011}]

>  <molecular_mass>  (875) 
289.4

$$$$
SANC00992_minRM1.pdb
     RDKit          3D

 31 33  0  0  0  0  0  0  0  0999 V2000
   -2.2860    1.2750   -0.6640 C   0  0  0  0  0  0  0  0  0  0  0  0
   -3.6350    1.6010   -0.6970 C   0  0  0  0  0  0  0  0  0  0  0  0
   -4.5690    0.7190   -0.1510 C   0  0  0  0  0  0  0  0  0  0  0  0
   -4.1350   -0.4810    0.4420 C   0  0  0  0  0  0  0  0  0  0  0  0
   -2.7840   -0.8020    0.4810 C   0  0  0  0  0  0  0  0  0  0  0  0
   -1.8660    0.0780   -0.0890 C   0  0  0  0  0  0  0  0  0  0  0  0
   -0.4520   -0.2960   -0.0920 C   0  0  0  0  0  0  0  0  0  0  0  0
    0.0110   -1.5410   -0.3170 C   0  0  0  0  0  0  0  0  0  0  0  0
    1.4400   -1.8000   -0.3060 C   0  0  0  0  0  0  0  0  0  0  0  0
    1.9470   -2.9120   -0.4730 O   0  0  0  0  0  0  0  0  0  0  0  0
    2.2720   -0.6350   -0.0920 C   0  0  0  0  0  0  0  0  0  0  0  0
    3.6770   -0.7350   -0.1050 C   0  0  0  0  0  0  0  0  0  0  0  0
    4.4770    0.3960    0.0800 C   0  0  0  0  0  0  0  0  0  0  0  0
    3.8410    1.6220    0.2850 C   0  0  0  0  0  0  0  0  0  0  0  0
    2.4460    1.7670    0.3160 C   0  0  0  0  0  0  0  0  0  0  0  0
    1.6940    0.6170    0.1220 C   0  0  0  0  0  0  0  0  0  0  0  0
    0.3400    0.7890    0.1560 O   0  0  0  0  0  0  0  0  0  0  0  0
    4.5290    2.7680    0.4690 O   0  0  0  0  0  0  0  0  0  0  0  0
    4.3050   -1.8980   -0.2950 O   0  0  0  0  0  0  0  0  0  0  0  0
   -5.1120   -1.2590    0.9820 O   0  0  0  0  0  0  0  0  0  0  0  0
   -5.8590    1.1130   -0.2270 O   0  0  0  0  0  0  0  0  0  0  0  0
   -1.5580    1.9680   -1.0990 H   0  0  0  0  0  0  0  0  0  0  0  0
   -3.9710    2.5400   -1.1490 H   0  0  0  0  0  0  0  0  0  0  0  0
   -2.4460   -1.7260    0.9610 H   0  0  0  0  0  0  0  0  0  0  0  0
   -0.6580   -2.3770   -0.5320 H   0  0  0  0  0  0  0  0  0  0  0  0
    5.5650    0.2990    0.0600 H   0  0  0  0  0  0  0  0  0  0  0  0
    1.9820    2.7410    0.4850 H   0  0  0  0  0  0  0  0  0  0  0  0
    5.4760    2.5850    0.4280 H   0  0  0  0  0  0  0  0  0  0  0  0
    3.6490   -2.6340   -0.4150 H   0  0  0  0  0  0  0  0  0  0  0  0
   -4.7460   -2.1330    1.1520 H   0  0  0  0  0  0  0  0  0  0  0  0
   -6.4380    0.4210    0.1150 H   0  0  0  0  0  0  0  0  0  0  0  0
  1 22  1  0
  1  2  2  0
  1  6  1  0
  2 23  1  0
  2  3  1  0
  3 21  1  0
  3  4  2  0
  4  5  1  0
  4 20  1  0
  5  6  2  0
  5 24  1  0
  6  7  1  0
  7  8  2  0
  7 17  1  0
  8 25  1  0
  8  9  1  0
  9 10  2  0
  9 11  1  0
 11 12  2  0
 11 16  1  0
 12 19  1  0
 12 13  1  0
 13 26  1  0
 13 14  2  0
 14 15  1  0
 14 18  1  0
 15 16  2  0
 15 27  1  0
 16 17  1  0
 18 28  1  0
 19 29  1  0
 20 30  1  0
 21 31  1  0
M  END
>  <id>  (876) 
992

>  <scaffolds>  (876) 
['c1ccccc1', 'O=c1cc(-c2ccccc2)oc2ccccc12', 'O=c1ccoc2ccccc12']

>  <name>  (876) 
Luteolin

>  <formula>  (876) 
C15H10O6

>  <SMILES>  (876) 
C1=CC(=C(C=C1C2=CC(=O)C3=C(C=C(C=C3O2)O)O)O)O

>  <ChEMBL_id>  (876) 
SCHEMBL20426

>  <ZINC_id>  (876) 
ZINC18185774

>  <PubChem_id>  (876) 
5280445

>  <DrugBank_id>  (876) 


>  <CAS_no>  (876) 
491-70-3

>  <references>  (876) 
[{'journal': {'name': 'Journal of Ethnopharmacology', 'id': 7}, 'title': 'Antimicrobial activity, toxicity and the isolation of a bioactive compound from plants used to treat sexually transmitted diseases', 'year': 2005, 'start_page': None, 'volume': None, 'issue': None, 'doi': '10.1016/j.jep.2004.09.057', 'isbn': '', 'despositor': {'code': 'BND', 'first_name': "Bakary N'tji", 'last_name': 'Diallo', 'id': 26}, 'refauthors_set': [{'author': {'first_name': 'Tshikalange', 'initials': 'TT', 'last_name': 'T.', 'id': 1033}, 'first_author': True, 'id': 1614}], 'id': 515}]

>  <classifications>  (876) 
[{'classification': 'Flavonoids', 'id': 776}, {'classification': 'Flavonoids (Classyfire)', 'id': 941}]

>  <molecular_mass>  (876) 
286.24

$$$$
SANC00993_minRM1.pdb
     RDKit          3D

 38 39  0  0  0  0  0  0  0  0999 V2000
   -1.0440   -0.7950    1.8980 C   0  0  0  0  0  0  0  0  0  0  0  0
   -0.6680   -1.2370    0.7010 C   0  0  0  0  0  0  0  0  0  0  0  0
   -1.6430   -1.6190   -0.3640 C   0  0  0  0  0  0  0  0  0  0  0  0
   -2.8710   -0.7700   -0.3330 C   0  0  0  0  0  0  0  0  0  0  0  0
   -2.7380    0.6190   -0.3010 C   0  0  0  0  0  0  0  0  0  0  0  0
   -3.8570    1.4350   -0.2960 C   0  0  0  0  0  0  0  0  0  0  0  0
   -5.1230    0.8390   -0.3240 C   0  0  0  0  0  0  0  0  0  0  0  0
   -5.2740   -0.5460   -0.3560 C   0  0  0  0  0  0  0  0  0  0  0  0
   -4.1360   -1.3450   -0.3600 C   0  0  0  0  0  0  0  0  0  0  0  0
   -6.1690    1.7020   -0.3150 O   0  0  0  0  0  0  0  0  0  0  0  0
    0.7530   -1.4200    0.3920 C   0  0  0  0  0  0  0  0  0  0  0  0
    1.5100   -2.2260    1.1310 C   0  0  0  0  0  0  0  0  0  0  0  0
    1.2880   -0.6660   -0.7830 C   0  0  0  0  0  0  0  0  0  0  0  0
    2.6640   -0.1440   -0.5210 C   0  0  0  0  0  0  0  0  0  0  0  0
    3.6740   -0.3030   -1.4670 C   0  0  0  0  0  0  0  0  0  0  0  0
    4.9430    0.2050   -1.2350 C   0  0  0  0  0  0  0  0  0  0  0  0
    5.1880    0.8800   -0.0360 C   0  0  0  0  0  0  0  0  0  0  0  0
    4.1870    1.0490    0.9220 C   0  0  0  0  0  0  0  0  0  0  0  0
    2.9250    0.5310    0.6670 C   0  0  0  0  0  0  0  0  0  0  0  0
    6.4520    1.3490    0.1190 O   0  0  0  0  0  0  0  0  0  0  0  0
   -0.3420   -0.5410    2.6860 H   0  0  0  0  0  0  0  0  0  0  0  0
   -2.0790   -0.6490    2.1910 H   0  0  0  0  0  0  0  0  0  0  0  0
   -1.1950   -1.5530   -1.3800 H   0  0  0  0  0  0  0  0  0  0  0  0
   -1.8810   -2.6990   -0.2420 H   0  0  0  0  0  0  0  0  0  0  0  0
   -1.7410    1.0700   -0.2810 H   0  0  0  0  0  0  0  0  0  0  0  0
   -3.7600    2.5240   -0.2710 H   0  0  0  0  0  0  0  0  0  0  0  0
   -6.2630   -1.0100   -0.3790 H   0  0  0  0  0  0  0  0  0  0  0  0
   -4.2500   -2.4330   -0.3850 H   0  0  0  0  0  0  0  0  0  0  0  0
   -6.9880    1.1960   -0.3470 H   0  0  0  0  0  0  0  0  0  0  0  0
    1.1320   -2.7870    1.9800 H   0  0  0  0  0  0  0  0  0  0  0  0
    2.5670   -2.3960    0.9460 H   0  0  0  0  0  0  0  0  0  0  0  0
    0.6280    0.1900   -1.0460 H   0  0  0  0  0  0  0  0  0  0  0  0
    1.2610   -1.3270   -1.6760 H   0  0  0  0  0  0  0  0  0  0  0  0
    3.4760   -0.8320   -2.4050 H   0  0  0  0  0  0  0  0  0  0  0  0
    5.7410    0.0840   -1.9730 H   0  0  0  0  0  0  0  0  0  0  0  0
    4.3810    1.5770    1.8590 H   0  0  0  0  0  0  0  0  0  0  0  0
    2.1300    0.6590    1.4100 H   0  0  0  0  0  0  0  0  0  0  0  0
    6.5150    1.7930    0.9710 H   0  0  0  0  0  0  0  0  0  0  0  0
  1  2  2  0
  1 22  1  0
  1 21  1  0
  2  3  1  0
  2 11  1  0
  3 23  1  0
  3  4  1  0
  3 24  1  0
  4  9  2  0
  4  5  1  0
  5  6  2  0
  5 25  1  0
  6  7  1  0
  6 26  1  0
  7  8  2  0
  7 10  1  0
  8 27  1  0
  8  9  1  0
  9 28  1  0
 10 29  1  0
 11 13  1  0
 11 12  2  0
 12 31  1  0
 12 30  1  0
 13 33  1  0
 13 32  1  0
 13 14  1  0
 14 15  2  0
 14 19  1  0
 15 34  1  0
 15 16  1  0
 16 35  1  0
 16 17  2  0
 17 20  1  0
 17 18  1  0
 18 19  2  0
 18 36  1  0
 19 37  1  0
 20 38  1  0
M  END
>  <id>  (877) 
993

>  <scaffolds>  (877) 
['c1ccccc1', 'C=C(Cc1ccccc1)C(=C)Cc1ccccc1']

>  <name>  (877) 
Anolignan B

>  <formula>  (877) 
C18H18O2

>  <SMILES>  (877) 
C=C(CC1=CC=C(C=C1)O)C(=C)CC2=CC=C(C=C2)O

>  <ChEMBL_id>  (877) 
CHEMBL456870

>  <ZINC_id>  (877) 


>  <PubChem_id>  (877) 
72388

>  <DrugBank_id>  (877) 


>  <CAS_no>  (877) 
158081-98-2

>  <references>  (877) 
[{'journal': {'name': 'Journal of Ethnopharmacology', 'id': 7}, 'title': 'Anolignan B: A bioactive compound from the roots of Terminalia sericea', 'year': 2006, 'start_page': None, 'volume': None, 'issue': None, 'doi': '10.1016/j.jep.2005.09.005', 'isbn': '', 'despositor': {'code': 'BND', 'first_name': "Bakary N'tji", 'last_name': 'Diallo', 'id': 26}, 'refauthors_set': [{'author': {'first_name': 'Eldeen', 'initials': 'EI', 'last_name': 'Ibrahim', 'id': 1034}, 'first_author': True, 'id': 1615}], 'id': 516}]

>  <classifications>  (877) 
[{'classification': 'Phenols', 'id': 895}, {'classification': 'Phenols (Classyfire)', 'id': 970}]

>  <molecular_mass>  (877) 
266.3

$$$$
SANC00994_minRM1.pdb
     RDKit          3D

 39 40  0  0  1  0  0  0  0  0999 V2000
   -1.8890    0.9990    2.3920 C   0  0  0  0  0  0  0  0  0  0  0  0
   -1.4650    1.1800    0.9740 C   0  0  0  0  0  0  0  0  0  0  0  0
   -0.1790    1.0770    0.6300 C   0  0  0  0  0  0  0  0  0  0  0  0
    0.3500    1.3520   -0.7420 C   0  0  2  0  0  0  0  0  0  0  0  0
    1.5260    0.4340   -1.1320 C   0  0  2  0  0  0  0  0  0  0  0  0
    1.1760   -1.0670   -1.3350 C   0  0  2  0  0  0  0  0  0  0  0  0
   -0.2880   -1.4880   -1.4900 C   0  0  0  0  0  0  0  0  0  0  0  0
   -1.2200   -1.3660   -0.3270 C   0  0  0  0  0  0  0  0  0  0  0  0
   -0.9060   -1.7660    0.9010 C   0  0  0  0  0  0  0  0  0  0  0  0
   -2.6190   -0.9340   -0.7060 C   0  0  2  0  0  0  0  0  0  0  0  0
   -2.7060    0.5430   -1.1310 C   0  0  0  0  0  0  0  0  0  0  0  0
   -2.5640    1.5280    0.0260 C   0  0  0  0  0  0  0  0  0  0  0  0
   -3.4640   -1.1750    0.3840 O   0  0  0  0  0  0  0  0  0  0  0  0
    1.7650   -1.7960   -0.2710 O   0  0  0  0  0  0  0  0  0  0  0  0
    2.5800   -0.9850    0.4680 C   0  0  0  0  0  0  0  0  0  0  0  0
    3.1680   -1.4700    1.4090 O   0  0  0  0  0  0  0  0  0  0  0  0
    2.5820    0.3850   -0.0780 C   0  0  0  0  0  0  0  0  0  0  0  0
    3.4350    1.3280    0.2900 C   0  0  0  0  0  0  0  0  0  0  0  0
    0.7660    2.6830   -0.8410 O   0  0  0  0  0  0  0  0  0  0  0  0
   -2.7340    0.2980    2.4830 H   0  0  0  0  0  0  0  0  0  0  0  0
   -2.2180    1.9560    2.8240 H   0  0  0  0  0  0  0  0  0  0  0  0
   -1.0950    0.6110    3.0470 H   0  0  0  0  0  0  0  0  0  0  0  0
    0.5730    0.8090    1.3810 H   0  0  0  0  0  0  0  0  0  0  0  0
   -0.4260    1.2840   -1.5510 H   0  0  0  0  0  0  0  0  0  0  0  0
    1.9600    0.8330   -2.0850 H   0  0  0  0  0  0  0  0  0  0  0  0
    1.7140   -1.4190   -2.2610 H   0  0  0  0  0  0  0  0  0  0  0  0
   -0.6770   -0.9600   -2.3880 H   0  0  0  0  0  0  0  0  0  0  0  0
   -0.3010   -2.5640   -1.7850 H   0  0  0  0  0  0  0  0  0  0  0  0
   -1.5890   -1.7410    1.7460 H   0  0  0  0  0  0  0  0  0  0  0  0
    0.0510   -2.1790    1.2000 H   0  0  0  0  0  0  0  0  0  0  0  0
   -2.9410   -1.5770   -1.5790 H   0  0  0  0  0  0  0  0  0  0  0  0
   -3.6750    0.7260   -1.6470 H   0  0  0  0  0  0  0  0  0  0  0  0
   -1.9520    0.7540   -1.9210 H   0  0  0  0  0  0  0  0  0  0  0  0
   -3.5350    1.6060    0.5620 H   0  0  0  0  0  0  0  0  0  0  0  0
   -2.3950    2.5550   -0.3690 H   0  0  0  0  0  0  0  0  0  0  0  0
   -4.3520   -0.9170    0.1200 H   0  0  0  0  0  0  0  0  0  0  0  0
    3.4730    2.3170   -0.1590 H   0  0  0  0  0  0  0  0  0  0  0  0
    4.1790    1.1760    1.0690 H   0  0  0  0  0  0  0  0  0  0  0  0
    1.2230    2.9280   -0.0300 H   0  0  0  0  0  0  0  0  0  0  0  0
  1  2  1  0
  1 20  1  0
  1 21  1  0
  1 22  1  0
  2 12  1  0
  2  3  2  0
  3  4  1  0
  3 23  1  0
  4 24  1  6
  4  5  1  0
  4 19  1  0
  5 25  1  6
  5  6  1  0
  5 17  1  0
  6 26  1  6
  6  7  1  0
  6 14  1  0
  7 27  1  0
  7 28  1  0
  7  8  1  0
  8 10  1  0
  8  9  2  0
  9 30  1  0
  9 29  1  0
 10 31  1  6
 10 11  1  0
 10 13  1  0
 11 33  1  0
 11 32  1  0
 11 12  1  0
 12 35  1  0
 12 34  1  0
 13 36  1  0
 14 15  1  0
 15 17  1  0
 15 16  2  0
 17 18  2  0
 18 37  1  0
 18 38  1  0
 19 39  1  0
M  END
>  <id>  (878) 
994

>  <scaffolds>  (878) 
['C=C1CCCC=CCC2C(=C)C(=O)OC2C1', 'O=C1CCCO1']

>  <name>  (878) 
Tanachin

>  <formula>  (878) 
C15H20O4

>  <SMILES>  (878) 
C/C/1=C\[C@H](C2[C@H](CC(=C)[C@H](CC1)O)OC(=O)C2=C)O

>  <ChEMBL_id>  (878) 


>  <ZINC_id>  (878) 


>  <PubChem_id>  (878) 
9992972

>  <DrugBank_id>  (878) 


>  <CAS_no>  (878) 
60362-95-0

>  <references>  (878) 
[{'journal': {'name': 'Journal of Ethnopharmacology', 'id': 7}, 'title': 'Isolation and identification of antiplasmodial sesquiterpene lactones from Oncosiphon piluliferum', 'year': 2007, 'start_page': None, 'volume': None, 'issue': None, 'doi': '10.1016/j.jep.2007.02.002', 'isbn': '', 'despositor': {'code': 'BND', 'first_name': "Bakary N'tji", 'last_name': 'Diallo', 'id': 26}, 'refauthors_set': [{'author': {'first_name': 'Pillay', 'initials': 'PP', 'last_name': 'Pamisha', 'id': 1035}, 'first_author': True, 'id': 1616}], 'id': 517}]

>  <classifications>  (878) 
[{'classification': 'Phenol lipids (Classyfire)', 'id': 951}]

>  <molecular_mass>  (878) 
264.32

$$$$
SANC00995_minRM1.pdb
     RDKit          3D

 51 53  0  0  1  0  0  0  0  0999 V2000
   -0.4300   -3.1300    1.5040 C   0  0  0  0  0  0  0  0  0  0  0  0
    0.2530   -1.7910    1.2310 C   0  0  2  0  0  0  0  0  0  0  0  0
   -0.3500   -0.6680    2.0870 C   0  0  0  0  0  0  0  0  0  0  0  0
   -1.0220    0.4520    1.3010 C   0  0  0  0  0  0  0  0  0  0  0  0
   -1.8820   -0.1380    0.1910 C   0  0  2  0  0  0  0  0  0  0  0  0
   -0.9380   -0.7720   -0.8530 C   0  0  1  0  0  0  0  0  0  0  0  0
    0.3370   -1.4390   -0.2670 C   0  0  2  0  0  0  0  0  0  0  0  0
    0.7340   -2.6790   -1.0680 C   0  0  0  0  0  0  0  0  0  0  0  0
    1.4810   -0.3960   -0.4290 C   0  0  0  0  0  0  0  0  0  0  0  0
    2.8690   -0.9240   -0.0680 C   0  0  0  0  0  0  0  0  0  0  0  0
    3.8150    0.2000    0.0670 C   0  0  0  0  0  0  0  0  0  0  0  0
    4.5950    0.5180    1.1500 C   0  0  0  0  0  0  0  0  0  0  0  0
    5.3480    1.6320    0.8840 O   0  0  0  0  0  0  0  0  0  0  0  0
    5.0360    2.0260   -0.3920 C   0  0  0  0  0  0  0  0  0  0  0  0
    4.1030    1.1850   -0.9420 C   0  0  0  0  0  0  0  0  0  0  0  0
   -1.8000   -1.5880   -1.8140 C   0  0  0  0  0  0  0  0  0  0  0  0
   -2.8940   -0.7110   -2.4490 C   0  0  0  0  0  0  0  0  0  0  0  0
   -3.1440    0.5990   -1.7830 C   0  0  0  0  0  0  0  0  0  0  0  0
   -2.6650    0.8910   -0.5740 C   0  0  0  0  0  0  0  0  0  0  0  0
   -2.8960    2.2120    0.0380 C   0  0  0  0  0  0  0  0  0  0  0  0
   -2.0800    3.1040    0.1590 O   0  0  0  0  0  0  0  0  0  0  0  0
   -4.1380    2.4870    0.5100 O   0  0  0  0  0  0  0  0  0  0  0  0
   -2.9500   -1.0580    0.7910 C   0  0  0  0  0  0  0  0  0  0  0  0
   -1.4050   -3.2250    1.0020 H   0  0  0  0  0  0  0  0  0  0  0  0
    0.1740   -3.9910    1.1830 H   0  0  0  0  0  0  0  0  0  0  0  0
   -0.6100   -3.2930    2.5780 H   0  0  0  0  0  0  0  0  0  0  0  0
    1.3140   -1.9320    1.5930 H   0  0  0  0  0  0  0  0  0  0  0  0
   -1.0670   -1.0760    2.8310 H   0  0  0  0  0  0  0  0  0  0  0  0
    0.4460   -0.2230    2.7240 H   0  0  0  0  0  0  0  0  0  0  0  0
   -0.2630    1.1470    0.8740 H   0  0  0  0  0  0  0  0  0  0  0  0
   -1.6150    1.0900    1.9900 H   0  0  0  0  0  0  0  0  0  0  0  0
   -0.5550    0.0810   -1.4880 H   0  0  0  0  0  0  0  0  0  0  0  0
    1.5900   -3.2120   -0.6260 H   0  0  0  0  0  0  0  0  0  0  0  0
    1.0330   -2.4290   -2.0970 H   0  0  0  0  0  0  0  0  0  0  0  0
   -0.0610   -3.4340   -1.1440 H   0  0  0  0  0  0  0  0  0  0  0  0
    1.5050   -0.0180   -1.4740 H   0  0  0  0  0  0  0  0  0  0  0  0
    1.2550    0.5060    0.1850 H   0  0  0  0  0  0  0  0  0  0  0  0
    2.8370   -1.5200    0.8730 H   0  0  0  0  0  0  0  0  0  0  0  0
    3.2530   -1.6240   -0.8410 H   0  0  0  0  0  0  0  0  0  0  0  0
    4.7310    0.0870    2.1330 H   0  0  0  0  0  0  0  0  0  0  0  0
    5.5570    2.9070   -0.7450 H   0  0  0  0  0  0  0  0  0  0  0  0
    3.6650    1.2350   -1.9280 H   0  0  0  0  0  0  0  0  0  0  0  0
   -1.1930   -2.0190   -2.6380 H   0  0  0  0  0  0  0  0  0  0  0  0
   -2.2410   -2.4760   -1.3170 H   0  0  0  0  0  0  0  0  0  0  0  0
   -3.8550   -1.2680   -2.4970 H   0  0  0  0  0  0  0  0  0  0  0  0
   -2.6410   -0.5130   -3.5140 H   0  0  0  0  0  0  0  0  0  0  0  0
   -3.7410    1.3190   -2.3550 H   0  0  0  0  0  0  0  0  0  0  0  0
   -4.7040    1.7140    0.4150 H   0  0  0  0  0  0  0  0  0  0  0  0
   -3.4070   -0.6120    1.6870 H   0  0  0  0  0  0  0  0  0  0  0  0
   -3.7830   -1.2690    0.1040 H   0  0  0  0  0  0  0  0  0  0  0  0
   -2.5630   -2.0410    1.0940 H   0  0  0  0  0  0  0  0  0  0  0  0
  1 24  1  0
  1 25  1  0
  1  2  1  0
  1 26  1  0
  2  7  1  0
  2 27  1  1
  2  3  1  0
  3  4  1  0
  3 29  1  0
  3 28  1  0
  4  5  1  0
  4 30  1  0
  4 31  1  0
  5  6  1  0
  5 19  1  0
  5 23  1  1
  6 16  1  0
  6 32  1  6
  6  7  1  0
  7  8  1  6
  7  9  1  0
  8 34  1  0
  8 35  1  0
  8 33  1  0
  9 36  1  0
  9 10  1  0
  9 37  1  0
 10 39  1  0
 10 11  1  0
 10 38  1  0
 11 15  1  0
 11 12  2  0
 12 13  1  0
 12 40  1  0
 13 14  1  0
 14 15  2  0
 14 41  1  0
 15 42  1  0
 16 43  1  0
 16 17  1  0
 16 44  1  0
 17 46  1  0
 17 45  1  0
 17 18  1  0
 18 47  1  0
 18 19  2  0
 19 20  1  0
 20 21  2  0
 20 22  1  0
 22 48  1  0
 23 50  1  0
 23 51  1  0
 23 49  1  0
M  END
>  <id>  (879) 
995

>  <scaffolds>  (879) 
['C1=CC2CCCCC2CC1', 'C1=CCCCC1', 'c1ccoc1', 'C1CCCCC1', 'C1=CC2CCCC(CCc3ccoc3)C2CC1']

>  <name>  (879) 
Hardwickiic acid

>  <formula>  (879) 
C20H28O3

>  <SMILES>  (879) 
C[C@@H]1CC[C@@]2([C@@H]([C@@]1(C)CCC3=COC=C3)CCC=C2C(=O)O)C

>  <ChEMBL_id>  (879) 
CHEMBL461615

>  <ZINC_id>  (879) 
ZINC28536305

>  <PubChem_id>  (879) 
15559629

>  <DrugBank_id>  (879) 


>  <CAS_no>  (879) 
1782-65-6

>  <references>  (879) 
[{'journal': {'name': 'Heliyon', 'id': 79}, 'title': 'Volatiles from African species of Croton (Euphorbiaceae), including new diterpenes in essential oil from Croton gratissimus', 'year': 2019, 'start_page': None, 'volume': None, 'issue': None, 'doi': '10.1016/j.heliyon.2019.e02677', 'isbn': '', 'despositor': {'code': 'BND', 'first_name': "Bakary N'tji", 'last_name': 'Diallo', 'id': 26}, 'refauthors_set': [], 'id': 582}]

>  <classifications>  (879) 
[{'classification': 'Diterpene', 'id': 771}, {'classification': 'Phenol lipids (Classyfire)', 'id': 951}]

>  <molecular_mass>  (879) 
316.4

$$$$
SANC00996_minRM1.pdb
     RDKit          3D

 68 73  0  0  1  0  0  0  0  0999 V2000
    2.6500    3.3200    0.0070 C   0  0  0  0  0  0  0  0  0  0  0  0
    2.4870    3.1160   -1.5020 C   0  0  1  0  0  0  0  0  0  0  0  0
    2.0220    1.6620   -1.7310 C   0  0  2  0  0  0  0  0  0  0  0  0
    0.7910    1.4160   -1.1020 O   0  0  0  0  0  0  0  0  0  0  0  0
    0.5820    1.9030    0.1460 C   0  0  0  0  0  0  0  0  0  0  0  0
    1.4300    2.8600    0.7180 C   0  0  0  0  0  0  0  0  0  0  0  0
    1.1090    3.3590    1.9830 C   0  0  0  0  0  0  0  0  0  0  0  0
   -0.0450    2.9650    2.6560 C   0  0  0  0  0  0  0  0  0  0  0  0
   -0.8710    2.0260    2.0400 C   0  0  0  0  0  0  0  0  0  0  0  0
   -0.5740    1.4400    0.7930 C   0  0  0  0  0  0  0  0  0  0  0  0
   -1.4750    0.3510    0.3120 C   0  0  2  0  0  0  0  0  0  0  0  0
   -0.9200   -0.6010   -0.7710 C   0  0  2  0  0  0  0  0  0  0  0  0
   -1.8910   -1.8200   -0.9120 C   0  0  2  0  0  0  0  0  0  0  0  0
   -3.2390   -1.5480   -0.5720 O   0  0  0  0  0  0  0  0  0  0  0  0
   -3.6370   -0.2480   -0.6490 C   0  0  0  0  0  0  0  0  0  0  0  0
   -4.9430   -0.0510   -1.0810 C   0  0  0  0  0  0  0  0  0  0  0  0
   -5.4060    1.2680   -1.1200 C   0  0  0  0  0  0  0  0  0  0  0  0
   -4.5890    2.3490   -0.7980 C   0  0  0  0  0  0  0  0  0  0  0  0
   -3.2800    2.0940   -0.3750 C   0  0  0  0  0  0  0  0  0  0  0  0
   -2.7940    0.7950   -0.2320 C   0  0  0  0  0  0  0  0  0  0  0  0
   -2.5740    3.2040   -0.0530 O   0  0  0  0  0  0  0  0  0  0  0  0
   -6.6900    1.4130   -1.5210 O   0  0  0  0  0  0  0  0  0  0  0  0
   -1.4570   -2.9820   -0.0600 C   0  0  0  0  0  0  0  0  0  0  0  0
   -0.5000   -3.8410   -0.5980 C   0  0  0  0  0  0  0  0  0  0  0  0
   -0.0690   -4.9320    0.1460 C   0  0  0  0  0  0  0  0  0  0  0  0
   -0.5860   -5.1690    1.4310 C   0  0  0  0  0  0  0  0  0  0  0  0
   -1.5340   -4.2960    1.9640 C   0  0  0  0  0  0  0  0  0  0  0  0
   -1.9630   -3.2060    1.2150 C   0  0  0  0  0  0  0  0  0  0  0  0
   -0.2130   -6.1950    2.2310 O   0  0  0  0  0  0  0  0  0  0  0  0
    0.8780   -5.8090   -0.2860 O   0  0  0  0  0  0  0  0  0  0  0  0
    0.3750   -1.0200   -0.5210 O   0  0  0  0  0  0  0  0  0  0  0  0
   -1.9550    1.6850    2.7770 O   0  0  0  0  0  0  0  0  0  0  0  0
    1.8660    4.2650    2.6430 O   0  0  0  0  0  0  0  0  0  0  0  0
    3.1170    0.7240   -1.3070 C   0  0  0  0  0  0  0  0  0  0  0  0
    3.1260    0.0980   -0.0680 C   0  0  0  0  0  0  0  0  0  0  0  0
    4.1820   -0.7590    0.2550 C   0  0  0  0  0  0  0  0  0  0  0  0
    5.2210   -0.9750   -0.6610 C   0  0  0  0  0  0  0  0  0  0  0  0
    5.2030   -0.3430   -1.9020 C   0  0  0  0  0  0  0  0  0  0  0  0
    4.1500    0.5030   -2.2180 C   0  0  0  0  0  0  0  0  0  0  0  0
    6.2200   -1.7980   -0.2480 O   0  0  0  0  0  0  0  0  0  0  0  0
    4.1350   -1.2980    1.4980 O   0  0  0  0  0  0  0  0  0  0  0  0
    1.4630    3.9020   -2.0330 O   0  0  0  0  0  0  0  0  0  0  0  0
    2.8760    4.3860    0.2390 H   0  0  0  0  0  0  0  0  0  0  0  0
    3.5410    2.7640    0.3740 H   0  0  0  0  0  0  0  0  0  0  0  0
    3.4560    3.3030   -2.0380 H   0  0  0  0  0  0  0  0  0  0  0  0
    1.7380    1.4810   -2.8030 H   0  0  0  0  0  0  0  0  0  0  0  0
   -0.2960    3.3790    3.6370 H   0  0  0  0  0  0  0  0  0  0  0  0
   -1.6750   -0.3010    1.2140 H   0  0  0  0  0  0  0  0  0  0  0  0
   -0.8530   -0.0930   -1.7680 H   0  0  0  0  0  0  0  0  0  0  0  0
   -1.9200   -2.1340   -1.9920 H   0  0  0  0  0  0  0  0  0  0  0  0
   -5.5830   -0.8880   -1.3700 H   0  0  0  0  0  0  0  0  0  0  0  0
   -4.9440    3.3810   -0.8670 H   0  0  0  0  0  0  0  0  0  0  0  0
   -1.6720    3.0970   -0.3860 H   0  0  0  0  0  0  0  0  0  0  0  0
   -6.9190    2.3500   -1.5150 H   0  0  0  0  0  0  0  0  0  0  0  0
   -0.0860   -3.6530   -1.5940 H   0  0  0  0  0  0  0  0  0  0  0  0
   -1.9350   -4.4740    2.9660 H   0  0  0  0  0  0  0  0  0  0  0  0
   -2.7150   -2.5370    1.6460 H   0  0  0  0  0  0  0  0  0  0  0  0
    0.3640   -6.7940    1.7440 H   0  0  0  0  0  0  0  0  0  0  0  0
    0.9720   -5.7060   -1.2390 H   0  0  0  0  0  0  0  0  0  0  0  0
    0.4190   -1.3800    0.3730 H   0  0  0  0  0  0  0  0  0  0  0  0
   -2.7040    1.5270    2.1890 H   0  0  0  0  0  0  0  0  0  0  0  0
    2.5930    4.5520    2.0760 H   0  0  0  0  0  0  0  0  0  0  0  0
    2.3310    0.2530    0.6680 H   0  0  0  0  0  0  0  0  0  0  0  0
    6.0080   -0.5060   -2.6240 H   0  0  0  0  0  0  0  0  0  0  0  0
    4.1380    0.9930   -3.1960 H   0  0  0  0  0  0  0  0  0  0  0  0
    6.7360   -2.0590   -1.0190 H   0  0  0  0  0  0  0  0  0  0  0  0
    4.7600   -2.0300    1.5560 H   0  0  0  0  0  0  0  0  0  0  0  0
    1.6320    4.8170   -1.7890 H   0  0  0  0  0  0  0  0  0  0  0  0
  1  2  1  0
  1 43  1  0
  1 44  1  0
  1  6  1  0
  2 45  1  6
  2 42  1  0
  2  3  1  0
  3 46  1  6
  3 34  1  0
  3  4  1  0
  4  5  1  0
  5  6  2  0
  5 10  1  0
  6  7  1  0
  7 33  1  0
  7  8  2  0
  8  9  1  0
  8 47  1  0
  9 10  2  0
  9 32  1  0
 10 11  1  0
 11 12  1  0
 11 20  1  0
 11 48  1  1
 12 49  1  6
 12 13  1  0
 12 31  1  0
 13 50  1  6
 13 14  1  0
 13 23  1  0
 14 15  1  0
 15 16  2  0
 15 20  1  0
 16 51  1  0
 16 17  1  0
 17 22  1  0
 17 18  2  0
 18 52  1  0
 18 19  1  0
 19 20  2  0
 19 21  1  0
 21 53  1  0
 22 54  1  0
 23 24  2  0
 23 28  1  0
 24 55  1  0
 24 25  1  0
 25 30  1  0
 25 26  2  0
 26 27  1  0
 26 29  1  0
 27 28  2  0
 27 56  1  0
 28 57  1  0
 29 58  1  0
 30 59  1  0
 31 60  1  0
 32 61  1  0
 33 62  1  0
 34 39  2  0
 34 35  1  0
 35 36  2  0
 35 63  1  0
 36 37  1  0
 36 41  1  0
 37 38  2  0
 37 40  1  0
 38 64  1  0
 38 39  1  0
 39 65  1  0
 40 66  1  0
 41 67  1  0
 42 68  1  0
M  END
>  <id>  (880) 
996

>  <scaffolds>  (880) 
['c1ccccc1', 'c1ccc(C2CCc3ccccc3O2)cc1', 'c1ccc(Cc2ccccc2)cc1', 'c1ccc(C2CC(c3cccc4c3OC(c3ccccc3)CC4)c3ccccc3O2)cc1']

>  <name>  (880) 
Procyanidin B1

>  <formula>  (880) 
C30H26O12

>  <SMILES>  (880) 
C1[C@@H]([C@H](OC2=C1C(=CC(=C2[C@@H]3[C@H]([C@H](OC4=CC(=CC(=C34)O)O)C5=CC(=C(C=C5)O)O)O)O)O)C6=CC(=C(C=C6)O)O)O

>  <ChEMBL_id>  (880) 
CHEMBL504937

>  <ZINC_id>  (880) 
ZINC26490620

>  <PubChem_id>  (880) 
11250133

>  <DrugBank_id>  (880) 


>  <CAS_no>  (880) 
20315-25-7

>  <references>  (880) 
[{'journal': {'name': 'Journal of Ethnopharmacology', 'id': 7}, 'title': 'Tyrosinase inhibition by extracts and constituents of Sideroxylon inerme L. stem bark, used in South Africa for skin lightening', 'year': 2008, 'start_page': None, 'volume': None, 'issue': None, 'doi': '10.1016/j.jep.2008.06.006', 'isbn': '', 'despositor': {'code': 'BND', 'first_name': "Bakary N'tji", 'last_name': 'Diallo', 'id': 26}, 'refauthors_set': [{'author': {'first_name': 'Saeideh ', 'initials': 'SM', 'last_name': 'Momtaz', 'id': 1036}, 'first_author': True, 'id': 1617}], 'id': 519}]

>  <classifications>  (880) 
[{'classification': 'Flavonoids', 'id': 776}, {'classification': 'Flavonoids (Classyfire)', 'id': 941}]

>  <molecular_mass>  (880) 
578.5

$$$$
SANC00997_minRM1.pdb
     RDKit          3D

 51 54  0  0  1  0  0  0  0  0999 V2000
    2.5430    0.2140    1.9440 C   0  0  0  0  0  0  0  0  0  0  0  0
    1.1800   -0.4660    1.7510 C   0  0  2  0  0  0  0  0  0  0  0  0
    1.2440   -1.5460    0.6530 C   0  0  2  0  0  0  0  0  0  0  0  0
    1.7310   -0.9720   -0.5430 O   0  0  0  0  0  0  0  0  0  0  0  0
    2.9930   -0.4600   -0.4280 C   0  0  0  0  0  0  0  0  0  0  0  0
    3.7690   -0.5370   -1.5810 C   0  0  0  0  0  0  0  0  0  0  0  0
    5.0540    0.0070   -1.5200 C   0  0  0  0  0  0  0  0  0  0  0  0
    5.5600    0.5960   -0.3610 C   0  0  0  0  0  0  0  0  0  0  0  0
    4.7310    0.6510    0.7620 C   0  0  0  0  0  0  0  0  0  0  0  0
    3.4360    0.1220    0.7600 C   0  0  0  0  0  0  0  0  0  0  0  0
    5.3110    1.2150    1.8500 O   0  0  0  0  0  0  0  0  0  0  0  0
    5.7730   -0.0910   -2.6620 O   0  0  0  0  0  0  0  0  0  0  0  0
   -0.0790   -2.1780    0.3030 C   0  0  0  0  0  0  0  0  0  0  0  0
   -1.1120   -2.2100    1.2310 C   0  0  0  0  0  0  0  0  0  0  0  0
   -2.3250   -2.8180    0.8910 C   0  0  0  0  0  0  0  0  0  0  0  0
   -2.5000   -3.4190   -0.3610 C   0  0  0  0  0  0  0  0  0  0  0  0
   -1.4300   -3.4110   -1.2630 C   0  0  0  0  0  0  0  0  0  0  0  0
   -0.2240   -2.7920   -0.9400 C   0  0  0  0  0  0  0  0  0  0  0  0
   -1.6660   -4.0270   -2.4470 O   0  0  0  0  0  0  0  0  0  0  0  0
   -3.6780   -4.0580   -0.5870 O   0  0  0  0  0  0  0  0  0  0  0  0
   -3.2990   -2.7450    1.8290 O   0  0  0  0  0  0  0  0  0  0  0  0
    0.1160    0.4260    1.5480 O   0  0  0  0  0  0  0  0  0  0  0  0
    0.1020    1.3050    0.5080 C   0  0  0  0  0  0  0  0  0  0  0  0
    1.1110    1.5700   -0.1120 O   0  0  0  0  0  0  0  0  0  0  0  0
   -1.2320    1.9060    0.3170 C   0  0  0  0  0  0  0  0  0  0  0  0
   -2.3860    1.1980    0.6210 C   0  0  0  0  0  0  0  0  0  0  0  0
   -3.6230    1.8050    0.4060 C   0  0  0  0  0  0  0  0  0  0  0  0
   -3.7130    3.1080   -0.1010 C   0  0  0  0  0  0  0  0  0  0  0  0
   -2.5230    3.7970   -0.4000 C   0  0  0  0  0  0  0  0  0  0  0  0
   -1.2820    3.2000   -0.1970 C   0  0  0  0  0  0  0  0  0  0  0  0
   -2.6870    5.0560   -0.8690 O   0  0  0  0  0  0  0  0  0  0  0  0
   -4.8650    3.7530   -0.3850 O   0  0  0  0  0  0  0  0  0  0  0  0
   -4.8080    1.1910    0.6560 O   0  0  0  0  0  0  0  0  0  0  0  0
    2.3890    1.2780    2.2320 H   0  0  0  0  0  0  0  0  0  0  0  0
    3.0460   -0.2550    2.8200 H   0  0  0  0  0  0  0  0  0  0  0  0
    0.8560   -0.9290    2.7230 H   0  0  0  0  0  0  0  0  0  0  0  0
    1.9340   -2.3650    1.0050 H   0  0  0  0  0  0  0  0  0  0  0  0
    3.3860   -0.9860   -2.4990 H   0  0  0  0  0  0  0  0  0  0  0  0
    6.5690    1.0120   -0.3160 H   0  0  0  0  0  0  0  0  0  0  0  0
    4.6310    1.5110    2.4630 H   0  0  0  0  0  0  0  0  0  0  0  0
    6.6330    0.3250   -2.5300 H   0  0  0  0  0  0  0  0  0  0  0  0
   -1.0170   -1.7740    2.2300 H   0  0  0  0  0  0  0  0  0  0  0  0
    0.5980   -2.7950   -1.6640 H   0  0  0  0  0  0  0  0  0  0  0  0
   -0.9270   -3.8480   -3.0410 H   0  0  0  0  0  0  0  0  0  0  0  0
   -3.8970   -3.9520   -1.5210 H   0  0  0  0  0  0  0  0  0  0  0  0
   -3.9980   -3.3760    1.6190 H   0  0  0  0  0  0  0  0  0  0  0  0
   -2.3290    0.1760    1.0140 H   0  0  0  0  0  0  0  0  0  0  0  0
   -0.3550    3.7300   -0.4410 H   0  0  0  0  0  0  0  0  0  0  0  0
   -1.8270    5.3860   -1.1570 H   0  0  0  0  0  0  0  0  0  0  0  0
   -5.5830    3.3440    0.1150 H   0  0  0  0  0  0  0  0  0  0  0  0
   -4.6360    0.3840    1.1550 H   0  0  0  0  0  0  0  0  0  0  0  0
  1 10  1  0
  1  2  1  0
  1 34  1  0
  1 35  1  0
  2  3  1  0
  2 22  1  0
  2 36  1  1
  3  4  1  0
  3 13  1  0
  3 37  1  1
  4  5  1  0
  5  6  2  0
  5 10  1  0
  6 38  1  0
  6  7  1  0
  7 12  1  0
  7  8  2  0
  8 39  1  0
  8  9  1  0
  9 10  2  0
  9 11  1  0
 11 40  1  0
 12 41  1  0
 13 18  2  0
 13 14  1  0
 14 15  2  0
 14 42  1  0
 15 16  1  0
 15 21  1  0
 16 17  2  0
 16 20  1  0
 17 19  1  0
 17 18  1  0
 18 43  1  0
 19 44  1  0
 20 45  1  0
 21 46  1  0
 22 23  1  0
 23 24  2  0
 23 25  1  0
 25 30  2  0
 25 26  1  0
 26 27  2  0
 26 47  1  0
 27 28  1  0
 27 33  1  0
 28 29  2  0
 28 32  1  0
 29 31  1  0
 29 30  1  0
 30 48  1  0
 31 49  1  0
 32 50  1  0
 33 51  1  0
M  END
>  <id>  (881) 
997

>  <scaffolds>  (881) 
['c1ccccc1', 'c1ccc(C2CCc3ccccc3O2)cc1', 'O=C(OC1Cc2ccccc2OC1c1ccccc1)c1ccccc1', 'O=C(OCCc1ccccc1)c1ccccc1']

>  <name>  (881) 
(-)-Epigallocatechin gallate

>  <formula>  (881) 
C22H18O11

>  <SMILES>  (881) 
C1[C@H]([C@H](OC2=CC(=CC(=C21)O)O)C3=CC(=C(C(=C3)O)O)O)OC(=O)C4=CC(=C(C(=C4)O)O)O

>  <ChEMBL_id>  (881) 
SCHEMBL35258

>  <ZINC_id>  (881) 
ZINC3870412

>  <PubChem_id>  (881) 
65064

>  <DrugBank_id>  (881) 
DB12116

>  <CAS_no>  (881) 
989-51-5

>  <references>  (881) 
[{'journal': {'name': 'Journal of Ethnopharmacology', 'id': 7}, 'title': 'Tyrosinase inhibition by extracts and constituents of Sideroxylon inerme L. stem bark, used in South Africa for skin lightening', 'year': 2008, 'start_page': None, 'volume': None, 'issue': None, 'doi': '10.1016/j.jep.2008.06.006', 'isbn': '', 'despositor': {'code': 'BND', 'first_name': "Bakary N'tji", 'last_name': 'Diallo', 'id': 26}, 'refauthors_set': [{'author': {'first_name': 'Saeideh ', 'initials': 'SM', 'last_name': 'Momtaz', 'id': 1036}, 'first_author': True, 'id': 1617}], 'id': 519}]

>  <classifications>  (881) 
[{'classification': 'Flavonoids', 'id': 776}, {'classification': 'Flavonoids (Classyfire)', 'id': 941}]

>  <molecular_mass>  (881) 
458.4

$$$$
SANC00998_minRM1.pdb
     RDKit          3D

 37 39  0  0  0  0  0  0  0  0999 V2000
   -4.7880   -2.5900    0.5300 C   0  0  0  0  0  0  0  0  0  0  0  0
   -3.4600   -2.5340    0.0630 O   0  0  0  0  0  0  0  0  0  0  0  0
   -2.8040   -1.3480    0.1020 C   0  0  0  0  0  0  0  0  0  0  0  0
   -3.3830   -0.0750    0.0570 C   0  0  0  0  0  0  0  0  0  0  0  0
   -2.5660    1.0660    0.0910 C   0  0  0  0  0  0  0  0  0  0  0  0
   -1.1700    0.9490    0.0790 C   0  0  0  0  0  0  0  0  0  0  0  0
   -0.6310   -0.3390    0.1040 C   0  0  0  0  0  0  0  0  0  0  0  0
   -1.4120   -1.4920    0.1320 C   0  0  0  0  0  0  0  0  0  0  0  0
    0.7120   -0.5770    0.1270 O   0  0  0  0  0  0  0  0  0  0  0  0
    1.5560    0.4940    0.0110 C   0  0  0  0  0  0  0  0  0  0  0  0
    1.1400    1.7690   -0.0600 C   0  0  0  0  0  0  0  0  0  0  0  0
   -0.2810    2.1100    0.0280 C   0  0  0  0  0  0  0  0  0  0  0  0
   -0.6730    3.2640    0.0500 O   0  0  0  0  0  0  0  0  0  0  0  0
    2.9510    0.0610   -0.0120 C   0  0  0  0  0  0  0  0  0  0  0  0
    3.9130    0.8660    0.6040 C   0  0  0  0  0  0  0  0  0  0  0  0
    5.2490    0.5070    0.5760 C   0  0  0  0  0  0  0  0  0  0  0  0
    5.6130   -0.6830   -0.0670 C   0  0  0  0  0  0  0  0  0  0  0  0
    4.6610   -1.5060   -0.6720 C   0  0  0  0  0  0  0  0  0  0  0  0
    3.3270   -1.1240   -0.6420 C   0  0  0  0  0  0  0  0  0  0  0  0
    6.9370   -0.9650   -0.0530 O   0  0  0  0  0  0  0  0  0  0  0  0
   -3.0610    2.3150    0.0840 O   0  0  0  0  0  0  0  0  0  0  0  0
   -4.7420    0.1080    0.0590 O   0  0  0  0  0  0  0  0  0  0  0  0
   -5.2440    0.3350   -1.2420 C   0  0  0  0  0  0  0  0  0  0  0  0
   -4.9410   -3.6630    0.7310 H   0  0  0  0  0  0  0  0  0  0  0  0
   -5.5090   -2.2740   -0.2400 H   0  0  0  0  0  0  0  0  0  0  0  0
   -4.9690   -2.0220    1.4560 H   0  0  0  0  0  0  0  0  0  0  0  0
   -0.9530   -2.4840    0.1700 H   0  0  0  0  0  0  0  0  0  0  0  0
    1.8410    2.5960   -0.1920 H   0  0  0  0  0  0  0  0  0  0  0  0
    3.6200    1.7850    1.1230 H   0  0  0  0  0  0  0  0  0  0  0  0
    6.0120    1.1360    1.0460 H   0  0  0  0  0  0  0  0  0  0  0  0
    4.9480   -2.4400   -1.1640 H   0  0  0  0  0  0  0  0  0  0  0  0
    2.5770   -1.7640   -1.1210 H   0  0  0  0  0  0  0  0  0  0  0  0
    7.0860   -1.8000   -0.5120 H   0  0  0  0  0  0  0  0  0  0  0  0
   -3.9810    2.3040    0.3840 H   0  0  0  0  0  0  0  0  0  0  0  0
   -6.3310    0.4300   -1.0970 H   0  0  0  0  0  0  0  0  0  0  0  0
   -5.0430   -0.4960   -1.9380 H   0  0  0  0  0  0  0  0  0  0  0  0
   -4.8600    1.2620   -1.7000 H   0  0  0  0  0  0  0  0  0  0  0  0
  1 25  1  0
  1  2  1  0
  1 24  1  0
  1 26  1  0
  2  3  1  0
  3  4  2  0
  3  8  1  0
  4 22  1  0
  4  5  1  0
  5  6  2  0
  5 21  1  0
  6 12  1  0
  6  7  1  0
  7  9  1  0
  7  8  2  0
  8 27  1  0
  9 10  1  0
 10 11  2  0
 10 14  1  0
 11 28  1  0
 11 12  1  0
 12 13  2  0
 14 19  2  0
 14 15  1  0
 15 16  2  0
 15 29  1  0
 16 17  1  0
 16 30  1  0
 17 18  2  0
 17 20  1  0
 18 31  1  0
 18 19  1  0
 19 32  1  0
 20 33  1  0
 21 34  1  0
 22 23  1  0
 23 36  1  0
 23 37  1  0
 23 35  1  0
M  END
>  <id>  (882) 
998

>  <scaffolds>  (882) 
['c1ccccc1', 'O=c1cc(-c2ccccc2)oc2ccccc12', 'O=c1ccoc2ccccc12']

>  <name>  (882) 
Cirsimaritin

>  <formula>  (882) 
C17H14O6

>  <SMILES>  (882) 
COC1=C(C(=C2C(=C1)OC(=CC2=O)C3=CC=C(C=C3)O)O)OC

>  <ChEMBL_id>  (882) 
SCHEMBL1663486

>  <ZINC_id>  (882) 
ZINC1081537

>  <PubChem_id>  (882) 
188323

>  <DrugBank_id>  (882) 


>  <CAS_no>  (882) 
6601-62-3

>  <references>  (882) 
[{'journal': {'name': 'Journal of Ethnopharmacology', 'id': 7}, 'title': 'Phytochemistry and in vitro pharmacological activities of South African Vitex (Verbenaceae) species', 'year': 2008, 'start_page': None, 'volume': None, 'issue': None, 'doi': '10.1016/j.jep.2008.07.004', 'isbn': '', 'despositor': {'code': 'BND', 'first_name': "Bakary N'tji", 'last_name': 'Diallo', 'id': 26}, 'refauthors_set': [{'author': {'first_name': 'Nyiligira', 'initials': 'NE', 'last_name': 'E.', 'id': 1037}, 'first_author': True, 'id': 1618}], 'id': 520}]

>  <classifications>  (882) 
[{'classification': 'Flavones', 'id': 925}, {'classification': 'Flavonoids (Classyfire)', 'id': 941}]

>  <molecular_mass>  (882) 
314.29

$$$$
SANC00999_minRM1.pdb
     RDKit          3D

 50 52  0  0  1  0  0  0  0  0999 V2000
    1.5090   -2.5970    2.7350 C   0  0  0  0  0  0  0  0  0  0  0  0
    0.9540   -2.5900    1.3600 C   0  0  0  0  0  0  0  0  0  0  0  0
    1.4840   -1.8860    0.3550 C   0  0  0  0  0  0  0  0  0  0  0  0
    2.6930   -1.0180    0.4910 C   0  0  0  0  0  0  0  0  0  0  0  0
    2.2930    0.4010    0.9370 C   0  0  2  0  0  0  0  0  0  0  0  0
    2.0610    1.3460   -0.2740 C   0  0  1  0  0  0  0  0  0  0  0  0
    1.0080    2.4130    0.0680 C   0  0  0  0  0  0  0  0  0  0  0  0
    1.1140    3.6210    0.0280 O   0  0  0  0  0  0  0  0  0  0  0  0
   -0.1570    1.8250    0.4190 O   0  0  0  0  0  0  0  0  0  0  0  0
   -1.3710    2.5610    0.3630 C   0  0  0  0  0  0  0  0  0  0  0  0
   -2.3820    1.4920    0.5850 C   0  0  0  0  0  0  0  0  0  0  0  0
   -2.8770    1.1170    1.7680 C   0  0  0  0  0  0  0  0  0  0  0  0
   -3.7250   -0.1140    1.6100 C   0  0  0  0  0  0  0  0  0  0  0  0
   -3.5140   -0.5950    0.1990 N   0  0  0  0  0  0  0  0  0  0  0  0
   -2.8820    0.5890   -0.5170 C   0  0  2  0  0  0  0  0  0  0  0  0
   -1.7240    0.0250   -1.3680 C   0  0  1  0  0  0  0  0  0  0  0  0
   -1.2010   -1.0870   -0.4170 C   0  0  1  0  0  0  0  0  0  0  0  0
   -2.5210   -1.7140    0.0950 C   0  0  0  0  0  0  0  0  0  0  0  0
   -0.4690   -2.0370   -1.1460 O   0  0  0  0  0  0  0  0  0  0  0  0
    0.8960   -2.0090   -0.9940 C   0  0  0  0  0  0  0  0  0  0  0  0
    1.5230   -2.1850   -2.0200 O   0  0  0  0  0  0  0  0  0  0  0  0
   -2.3060   -0.4940   -2.5230 O   0  0  0  0  0  0  0  0  0  0  0  0
    3.3290    2.0450   -0.7670 C   0  0  0  0  0  0  0  0  0  0  0  0
    1.4330    0.6420   -1.3050 O   0  0  0  0  0  0  0  0  0  0  0  0
    3.3360    0.9760    1.8870 C   0  0  0  0  0  0  0  0  0  0  0  0
    0.8200   -3.0490    3.4630 H   0  0  0  0  0  0  0  0  0  0  0  0
    1.7390   -1.5880    3.1100 H   0  0  0  0  0  0  0  0  0  0  0  0
    2.4440   -3.1790    2.7840 H   0  0  0  0  0  0  0  0  0  0  0  0
    0.0740   -3.2250    1.1950 H   0  0  0  0  0  0  0  0  0  0  0  0
    3.2890   -1.0080   -0.4460 H   0  0  0  0  0  0  0  0  0  0  0  0
    3.4000   -1.4730    1.2200 H   0  0  0  0  0  0  0  0  0  0  0  0
    1.3370    0.3130    1.5170 H   0  0  0  0  0  0  0  0  0  0  0  0
   -1.4960    3.0790   -0.6140 H   0  0  0  0  0  0  0  0  0  0  0  0
   -1.3940    3.3490    1.1470 H   0  0  0  0  0  0  0  0  0  0  0  0
   -2.7200    1.5830    2.7350 H   0  0  0  0  0  0  0  0  0  0  0  0
   -4.8080    0.1240    1.7130 H   0  0  0  0  0  0  0  0  0  0  0  0
   -3.5150   -0.8710    2.3950 H   0  0  0  0  0  0  0  0  0  0  0  0
   -3.6660    1.0950   -1.1330 H   0  0  0  0  0  0  0  0  0  0  0  0
   -0.9590    0.7900   -1.6390 H   0  0  0  0  0  0  0  0  0  0  0  0
   -0.6270   -0.6310    0.4300 H   0  0  0  0  0  0  0  0  0  0  0  0
   -2.9390   -2.4400   -0.6390 H   0  0  0  0  0  0  0  0  0  0  0  0
   -2.3730   -2.2930    1.0310 H   0  0  0  0  0  0  0  0  0  0  0  0
   -1.6320   -0.9960   -2.9930 H   0  0  0  0  0  0  0  0  0  0  0  0
    3.6940    2.8050   -0.0620 H   0  0  0  0  0  0  0  0  0  0  0  0
    4.1520    1.3360   -0.9380 H   0  0  0  0  0  0  0  0  0  0  0  0
    3.1590    2.5800   -1.7140 H   0  0  0  0  0  0  0  0  0  0  0  0
    2.0930    0.3390   -1.9390 H   0  0  0  0  0  0  0  0  0  0  0  0
    3.3670    0.4200    2.8370 H   0  0  0  0  0  0  0  0  0  0  0  0
    4.3590    0.9430    1.4840 H   0  0  0  0  0  0  0  0  0  0  0  0
    3.1220    2.0210    2.1530 H   0  0  0  0  0  0  0  0  0  0  0  0
  1  2  1  0
  1 28  1  0
  1 27  1  0
  1 26  1  0
  2  3  2  0
  2 29  1  0
  3 20  1  0
  3  4  1  0
  4 30  1  0
  4  5  1  0
  4 31  1  0
  5  6  1  0
  5 32  1  1
  5 25  1  0
  6 24  1  6
  6 23  1  0
  6  7  1  0
  7  8  2  0
  7  9  1  0
  9 10  1  0
 10 33  1  0
 10 11  1  0
 10 34  1  0
 11 15  1  0
 11 12  2  0
 12 13  1  0
 12 35  1  0
 13 36  1  0
 13 37  1  0
 14 13  1  0
 14 15  1  0
 14 18  1  0
 15 16  1  0
 15 38  1  6
 16 22  1  0
 16 39  1  6
 16 17  1  0
 17 19  1  0
 17 18  1  0
 17 40  1  1
 18 41  1  0
 18 42  1  0
 19 20  1  0
 20 21  2  0
 22 43  1  0
 23 46  1  0
 23 45  1  0
 23 44  1  0
 24 47  1  0
 25 49  1  0
 25 50  1  0
 25 48  1  0
M  END
>  <id>  (883) 
999

>  <scaffolds>  (883) 
['C1CCNC1']

>  <name>  (883) 
Madurensine

>  <formula>  (883) 
C18H25NO6

>  <SMILES>  (883) 
C/C=C/1\C[C@H]([C@@](C(=O)OCC2=CCN3C2[C@@H]([C@@H](C3)OC1=O)O)(C)O)C

>  <ChEMBL_id>  (883) 


>  <ZINC_id>  (883) 


>  <PubChem_id>  (883) 
5459074

>  <DrugBank_id>  (883) 


>  <CAS_no>  (883) 
26126-78-3

>  <references>  (883) 
[{'journal': {'name': 'Journal of Ethnopharmacology', 'id': 7}, 'title': 'In vitro chemo-preventative activity of Crotalaria agatiflora subspecies agatiflora Schweinf', 'year': 2011, 'start_page': None, 'volume': None, 'issue': None, 'doi': '10.1016/j.jep.2011.10.011', 'isbn': '', 'despositor': {'code': 'BND', 'first_name': "Bakary N'tji", 'last_name': 'Diallo', 'id': 26}, 'refauthors_set': [{'author': {'first_name': 'Karlien', 'initials': 'KLR', 'last_name': 'Le Roux', 'id': 1038}, 'first_author': True, 'id': 1619}], 'id': 521}]

>  <classifications>  (883) 
[{'classification': 'Macrolides and analogues', 'id': 926}, {'classification': 'Macrolides and analogues (Classyfire)', 'id': 945}]

>  <molecular_mass>  (883) 
351.4

$$$$
SANC01000_minRM1.pdb
     RDKit          3D

 49 51  0  0  1  0  0  0  0  0999 V2000
   -4.7670   -0.1700    0.2530 C   0  0  0  0  0  0  0  0  0  0  0  0
   -3.2760   -0.1590   -0.0610 C   0  0  2  0  0  0  0  0  0  0  0  0
   -2.5360   -1.2010    0.8040 C   0  0  0  0  0  0  0  0  0  0  0  0
   -1.7570   -2.1740   -0.0220 C   0  0  0  0  0  0  0  0  0  0  0  0
   -0.4510   -2.4270    0.1170 C   0  0  0  0  0  0  0  0  0  0  0  0
    0.3920   -1.8050    1.1430 C   0  0  0  0  0  0  0  0  0  0  0  0
    0.1770   -1.8490    2.3440 O   0  0  0  0  0  0  0  0  0  0  0  0
    1.5560   -1.1570    0.8360 O   0  0  0  0  0  0  0  0  0  0  0  0
    1.8970   -0.8990   -0.5030 C   0  0  2  0  0  0  0  0  0  0  0  0
    3.2450   -1.6020   -0.7720 C   0  0  0  0  0  0  0  0  0  0  0  0
    4.3080   -0.5160   -0.5950 C   0  0  0  0  0  0  0  0  0  0  0  0
    3.6470    0.7560   -1.0100 N   0  0  0  0  0  0  0  0  0  0  0  0
    2.1760    0.6180   -0.6830 C   0  0  2  0  0  0  0  0  0  0  0  0
    1.9250    1.5580    0.4700 C   0  0  0  0  0  0  0  0  0  0  0  0
    3.0100    2.3150    0.6880 C   0  0  0  0  0  0  0  0  0  0  0  0
    4.1280    1.9510   -0.2430 C   0  0  0  0  0  0  0  0  0  0  0  0
    0.7090    1.6600    1.3160 C   0  0  0  0  0  0  0  0  0  0  0  0
   -0.4660    2.0820    0.6540 O   0  0  0  0  0  0  0  0  0  0  0  0
   -1.1730    1.1670   -0.0580 C   0  0  0  0  0  0  0  0  0  0  0  0
   -0.6160    0.3940   -0.8080 O   0  0  0  0  0  0  0  0  0  0  0  0
   -2.6850    1.2600    0.1580 C   0  0  1  0  0  0  0  0  0  0  0  0
   -3.2250    2.2890   -0.8370 C   0  0  0  0  0  0  0  0  0  0  0  0
   -2.9580    1.6090    1.4740 O   0  0  0  0  0  0  0  0  0  0  0  0
   -2.5300   -2.9280   -1.0510 C   0  0  0  0  0  0  0  0  0  0  0  0
   -5.2110   -1.1610    0.0720 H   0  0  0  0  0  0  0  0  0  0  0  0
   -5.3350    0.5340   -0.3710 H   0  0  0  0  0  0  0  0  0  0  0  0
   -4.9840    0.0860    1.3000 H   0  0  0  0  0  0  0  0  0  0  0  0
   -3.1410   -0.3920   -1.1490 H   0  0  0  0  0  0  0  0  0  0  0  0
   -1.9120   -0.7090    1.5800 H   0  0  0  0  0  0  0  0  0  0  0  0
   -3.2510   -1.7920    1.4220 H   0  0  0  0  0  0  0  0  0  0  0  0
    0.0530   -3.1810   -0.4980 H   0  0  0  0  0  0  0  0  0  0  0  0
    1.1280   -1.2380   -1.2440 H   0  0  0  0  0  0  0  0  0  0  0  0
    3.4210   -2.4690   -0.1070 H   0  0  0  0  0  0  0  0  0  0  0  0
    3.2640   -2.0220   -1.7980 H   0  0  0  0  0  0  0  0  0  0  0  0
    5.1930   -0.6690   -1.2490 H   0  0  0  0  0  0  0  0  0  0  0  0
    4.7070   -0.5280    0.4470 H   0  0  0  0  0  0  0  0  0  0  0  0
    1.6280    1.0010   -1.5850 H   0  0  0  0  0  0  0  0  0  0  0  0
    3.1330    3.1050    1.4230 H   0  0  0  0  0  0  0  0  0  0  0  0
    4.3190    2.7630   -0.9810 H   0  0  0  0  0  0  0  0  0  0  0  0
    5.0920    1.8070    0.2920 H   0  0  0  0  0  0  0  0  0  0  0  0
    0.8170    2.4720    2.0740 H   0  0  0  0  0  0  0  0  0  0  0  0
    0.5310    0.7300    1.8990 H   0  0  0  0  0  0  0  0  0  0  0  0
   -2.6780    3.2430   -0.7840 H   0  0  0  0  0  0  0  0  0  0  0  0
   -3.1470    1.9400   -1.8760 H   0  0  0  0  0  0  0  0  0  0  0  0
   -4.2820    2.5260   -0.6520 H   0  0  0  0  0  0  0  0  0  0  0  0
   -2.7040    2.5280    1.6120 H   0  0  0  0  0  0  0  0  0  0  0  0
   -3.6190   -2.8670   -0.9090 H   0  0  0  0  0  0  0  0  0  0  0  0
   -2.3150   -2.5550   -2.0640 H   0  0  0  0  0  0  0  0  0  0  0  0
   -2.2820   -4.0010   -1.0530 H   0  0  0  0  0  0  0  0  0  0  0  0
  1 26  1  0
  1  2  1  0
  1 25  1  0
  1 27  1  0
  2 28  1  6
  2 21  1  0
  2  3  1  0
  3  4  1  0
  3 30  1  0
  3 29  1  0
  4 24  1  0
  4  5  2  0
  5 31  1  0
  5  6  1  0
  6  8  1  0
  6  7  2  0
  8  9  1  0
  9 32  1  6
  9 10  1  0
  9 13  1  0
 10 34  1  0
 10 11  1  0
 10 33  1  0
 11 35  1  0
 11 36  1  0
 12 11  1  0
 12 13  1  0
 12 16  1  0
 13 37  1  6
 13 14  1  0
 14 15  2  0
 14 17  1  0
 15 16  1  0
 15 38  1  0
 16 39  1  0
 16 40  1  0
 17 18  1  0
 17 42  1  0
 17 41  1  0
 18 19  1  0
 19 20  2  0
 19 21  1  0
 21 22  1  0
 21 23  1  1
 22 44  1  0
 22 43  1  0
 22 45  1  0
 23 46  1  0
 24 48  1  0
 24 49  1  0
 24 47  1  0
M  END
>  <id>  (884) 
1000

>  <scaffolds>  (884) 
['O=C1C=CCCCC(=O)OCC2=CCN3CCC(O1)C23', 'C1CCNC1']

>  <name>  (884) 
Doronenine

>  <formula>  (884) 
C18H25NO5

>  <SMILES>  (884) 
C[C@@H]1C/C(=C/C(=O)O[C@@H]2CCN3[C@@H]2C(=CC3)COC(=O)[C@]1(C)O)/C

>  <ChEMBL_id>  (884) 


>  <ZINC_id>  (884) 


>  <PubChem_id>  (884) 
6440559

>  <DrugBank_id>  (884) 


>  <CAS_no>  (884) 
74217-57-5

>  <references>  (884) 
[{'journal': {'name': 'Journal of Ethnopharmacology', 'id': 7}, 'title': 'In vitro chemo-preventative activity of Crotalaria agatiflora subspecies agatiflora Schweinf', 'year': 2011, 'start_page': None, 'volume': None, 'issue': None, 'doi': '10.1016/j.jep.2011.10.011', 'isbn': '', 'despositor': {'code': 'BND', 'first_name': "Bakary N'tji", 'last_name': 'Diallo', 'id': 26}, 'refauthors_set': [{'author': {'first_name': 'Karlien', 'initials': 'KLR', 'last_name': 'Le Roux', 'id': 1038}, 'first_author': True, 'id': 1619}], 'id': 521}]

>  <classifications>  (884) 
[{'classification': 'Macrolides and analogues', 'id': 926}, {'classification': 'Macrolides and analogues (Classyfire)', 'id': 945}]

>  <molecular_mass>  (884) 
335.4

$$$$
SANC01001_minRM1.pdb
     RDKit          3D

 65 68  0  0  1  0  0  0  0  0999 V2000
   -0.3650    0.2240   -1.6980 C   0  0  0  0  0  0  0  0  0  0  0  0
    0.6340   -0.6740   -0.9820 C   0  0  2  0  0  0  0  0  0  0  0  0
    0.8810   -2.0060   -1.7240 C   0  0  0  0  0  0  0  0  0  0  0  0
    0.6870   -3.1260   -0.6910 C   0  0  2  0  0  0  0  0  0  0  0  0
    0.8890   -2.4260    0.6850 C   0  0  1  0  0  0  0  0  0  0  0  0
    0.2330   -1.0460    0.4760 C   0  0  2  0  0  0  0  0  0  0  0  0
   -1.2870   -1.1910    0.6710 C   0  0  1  0  0  0  0  0  0  0  0  0
   -1.6320   -1.7830    1.9150 O   0  0  0  0  0  0  0  0  0  0  0  0
   -0.8890   -2.8330    2.3360 C   0  0  0  0  0  0  0  0  0  0  0  0
    0.2720   -3.2070    1.7940 C   0  0  0  0  0  0  0  0  0  0  0  0
   -1.7810    0.1130    0.8200 O   0  0  0  0  0  0  0  0  0  0  0  0
   -3.1750    0.2580    0.8560 C   0  0  1  0  0  0  0  0  0  0  0  0
   -3.3980    1.7640    1.1760 C   0  0  1  0  0  0  0  0  0  0  0  0
   -4.8960    2.0840    0.9580 C   0  0  2  0  0  0  0  0  0  0  0  0
   -5.2730    1.6740   -0.4890 C   0  0  1  0  0  0  0  0  0  0  0  0
   -4.9520    0.1690   -0.6750 C   0  0  2  0  0  0  0  0  0  0  0  0
   -3.5750   -0.0200   -0.4650 O   0  0  0  0  0  0  0  0  0  0  0  0
   -5.1930   -0.2910   -2.1360 C   0  0  0  0  0  0  0  0  0  0  0  0
   -6.4870   -0.7720   -2.2890 O   0  0  0  0  0  0  0  0  0  0  0  0
   -6.6490    1.7870   -0.6780 O   0  0  0  0  0  0  0  0  0  0  0  0
   -5.1110    3.4600    1.0140 O   0  0  0  0  0  0  0  0  0  0  0  0
   -3.1640    1.9990    2.5290 O   0  0  0  0  0  0  0  0  0  0  0  0
    2.2300   -2.1660    0.9540 O   0  0  0  0  0  0  0  0  0  0  0  0
    1.6620   -4.0980   -0.9080 O   0  0  0  0  0  0  0  0  0  0  0  0
    1.8400    0.0390   -0.7710 O   0  0  0  0  0  0  0  0  0  0  0  0
    2.6400    0.4060   -1.8000 C   0  0  0  0  0  0  0  0  0  0  0  0
    2.3140    0.2440   -2.9630 O   0  0  0  0  0  0  0  0  0  0  0  0
    3.8920    1.0190   -1.3290 C   0  0  0  0  0  0  0  0  0  0  0  0
    4.4990    0.6230   -0.2080 C   0  0  0  0  0  0  0  0  0  0  0  0
    5.7620    1.2110    0.2250 C   0  0  0  0  0  0  0  0  0  0  0  0
    6.7800    1.4610   -0.6920 C   0  0  0  0  0  0  0  0  0  0  0  0
    7.9780    2.0180   -0.2580 C   0  0  0  0  0  0  0  0  0  0  0  0
    8.1580    2.3270    1.0840 C   0  0  0  0  0  0  0  0  0  0  0  0
    7.1420    2.0730    1.9990 C   0  0  0  0  0  0  0  0  0  0  0  0
    5.9470    1.5100    1.5740 C   0  0  0  0  0  0  0  0  0  0  0  0
   -0.0570    0.4790   -2.7220 H   0  0  0  0  0  0  0  0  0  0  0  0
   -1.3540   -0.2420   -1.8050 H   0  0  0  0  0  0  0  0  0  0  0  0
   -0.5110    1.1750   -1.1650 H   0  0  0  0  0  0  0  0  0  0  0  0
    1.8900   -2.0660   -2.1840 H   0  0  0  0  0  0  0  0  0  0  0  0
    0.1940   -2.1300   -2.5850 H   0  0  0  0  0  0  0  0  0  0  0  0
   -0.3450   -3.5610   -0.7560 H   0  0  0  0  0  0  0  0  0  0  0  0
    0.6240   -0.2980    1.2150 H   0  0  0  0  0  0  0  0  0  0  0  0
   -1.7860   -1.7810   -0.1470 H   0  0  0  0  0  0  0  0  0  0  0  0
   -1.3940   -3.3020    3.1870 H   0  0  0  0  0  0  0  0  0  0  0  0
    0.8220   -4.0650    2.1800 H   0  0  0  0  0  0  0  0  0  0  0  0
   -3.6840   -0.4100    1.6070 H   0  0  0  0  0  0  0  0  0  0  0  0
   -2.7590    2.4120    0.5160 H   0  0  0  0  0  0  0  0  0  0  0  0
   -5.5350    1.5360    1.7040 H   0  0  0  0  0  0  0  0  0  0  0  0
   -4.6970    2.2960   -1.2280 H   0  0  0  0  0  0  0  0  0  0  0  0
   -5.5670   -0.4540    0.0310 H   0  0  0  0  0  0  0  0  0  0  0  0
   -4.5520   -1.1620   -2.4000 H   0  0  0  0  0  0  0  0  0  0  0  0
   -4.9370    0.5140   -2.8620 H   0  0  0  0  0  0  0  0  0  0  0  0
   -7.1040   -0.0390   -2.1890 H   0  0  0  0  0  0  0  0  0  0  0  0
   -6.8820    2.7170   -0.5940 H   0  0  0  0  0  0  0  0  0  0  0  0
   -4.9140    3.7520    1.9110 H   0  0  0  0  0  0  0  0  0  0  0  0
   -2.2260    1.8570    2.6930 H   0  0  0  0  0  0  0  0  0  0  0  0
    2.7180   -2.9940    0.9070 H   0  0  0  0  0  0  0  0  0  0  0  0
    1.3800   -4.8870   -0.4360 H   0  0  0  0  0  0  0  0  0  0  0  0
    4.2820    1.8040   -1.9850 H   0  0  0  0  0  0  0  0  0  0  0  0
    4.0790   -0.1590    0.4410 H   0  0  0  0  0  0  0  0  0  0  0  0
    6.6490    1.2100   -1.7490 H   0  0  0  0  0  0  0  0  0  0  0  0
    8.7790    2.2130   -0.9770 H   0  0  0  0  0  0  0  0  0  0  0  0
    9.1000    2.7680    1.4220 H   0  0  0  0  0  0  0  0  0  0  0  0
    7.2860    2.3150    3.0560 H   0  0  0  0  0  0  0  0  0  0  0  0
    5.1490    1.3070    2.2950 H   0  0  0  0  0  0  0  0  0  0  0  0
  1 36  1  0
  1 37  1  0
  1 38  1  0
  1  2  1  0
  2  3  1  0
  2 25  1  1
  2  6  1  0
  3 40  1  0
  3 39  1  0
  3  4  1  0
  4 24  1  0
  4 41  1  1
  4  5  1  0
  5  6  1  0
  5 23  1  1
  5 10  1  0
  6  7  1  0
  6 42  1  1
  7 43  1  6
  7 11  1  0
  7  8  1  0
  8  9  1  0
  9 10  2  0
  9 44  1  0
 10 45  1  0
 11 12  1  0
 12 17  1  0
 12 13  1  0
 12 46  1  1
 13 47  1  6
 13 14  1  0
 13 22  1  0
 14 15  1  0
 14 21  1  0
 14 48  1  1
 15 49  1  6
 15 20  1  0
 15 16  1  0
 16 18  1  0
 16 17  1  0
 16 50  1  1
 18 52  1  0
 18 51  1  0
 18 19  1  0
 19 53  1  0
 20 54  1  0
 21 55  1  0
 22 56  1  0
 23 57  1  0
 24 58  1  0
 25 26  1  0
 26 27  2  0
 26 28  1  0
 28 59  1  0
 28 29  2  0
 29 30  1  0
 29 60  1  0
 30 31  2  0
 30 35  1  0
 31 61  1  0
 31 32  1  0
 32 62  1  0
 32 33  2  0
 33 63  1  0
 33 34  1  0
 34 35  2  0
 34 64  1  0
 35 65  1  0
M  END
>  <id>  (885) 
1001

>  <scaffolds>  (885) 
['c1ccccc1', 'C1CCOCC1', 'C1=CC2CCCC2C(OC2CCCCO2)O1', 'O=C(C=Cc1ccccc1)OC1CCC2C=COC(OC3CCCCO3)C21']

>  <name>  (885) 
Harpagoside

>  <formula>  (885) 
C24H30O11

>  <SMILES>  (885) 
C[C@@]1(C[C@H]([C@]2([C@@H]1[C@@H](OC=C2)O[C@H]3[C@@H]([C@H]([C@@H]([C@H](O3)CO)O)O)O)O)O)OC(=O)/C=C/C4=CC=CC=C4

>  <ChEMBL_id>  (885) 
CHEMBL516702

>  <ZINC_id>  (885) 
ZINC8214398

>  <PubChem_id>  (885) 
5281542

>  <DrugBank_id>  (885) 


>  <CAS_no>  (885) 
19210-12-9

>  <references>  (885) 
[{'journal': {'name': 'Journal of Ethnopharmacology', 'id': 7}, 'title': "Devil's Claw - A review of the ethnobotany, phytochemistry and biological activity of Harpagophytum procumbens", 'year': 2012, 'start_page': None, 'volume': None, 'issue': None, 'doi': '10.1016/j.jep.2012.08.013', 'isbn': '', 'despositor': {'code': 'BND', 'first_name': "Bakary N'tji", 'last_name': 'Diallo', 'id': 26}, 'refauthors_set': [{'author': {'first_name': 'Mncwangi', 'initials': 'MN', 'last_name': 'Nontobeko', 'id': 1039}, 'first_author': True, 'id': 1620}], 'id': 522}]

>  <classifications>  (885) 
[{'classification': 'Glycoside', 'id': 781}, {'classification': 'Phenol lipids (Classyfire)', 'id': 951}]

>  <molecular_mass>  (885) 
494.5

$$$$
SANC01002_minRM1.pdb
     RDKit          3D

 49 51  0  0  1  0  0  0  0  0999 V2000
   -3.5140    0.2560    1.9060 C   0  0  0  0  0  0  0  0  0  0  0  0
   -2.8620    1.0990    0.8110 C   0  0  2  0  0  0  0  0  0  0  0  0
   -3.8380    1.3060   -0.3630 C   0  0  0  0  0  0  0  0  0  0  0  0
   -3.6970    0.0280   -1.2040 C   0  0  2  0  0  0  0  0  0  0  0  0
   -2.2430   -0.5060   -0.9420 C   0  0  1  0  0  0  0  0  0  0  0  0
   -1.6460    0.4190    0.1330 C   0  0  2  0  0  0  0  0  0  0  0  0
   -0.7370   -0.3160    1.1200 C   0  0  1  0  0  0  0  0  0  0  0  0
   -1.2220   -1.5530    1.5720 O   0  0  0  0  0  0  0  0  0  0  0  0
   -1.8050   -2.3610    0.6470 C   0  0  0  0  0  0  0  0  0  0  0  0
   -2.2960   -1.9380   -0.5190 C   0  0  0  0  0  0  0  0  0  0  0  0
    0.4310   -0.6270    0.4000 O   0  0  0  0  0  0  0  0  0  0  0  0
    1.5580   -0.9210    1.1750 C   0  0  1  0  0  0  0  0  0  0  0  0
    2.4940   -1.7700    0.2650 C   0  0  1  0  0  0  0  0  0  0  0  0
    3.5960   -0.8790   -0.3610 C   0  0  2  0  0  0  0  0  0  0  0  0
    2.9440    0.4670   -0.7460 C   0  0  1  0  0  0  0  0  0  0  0  0
    2.5550    1.1780    0.5730 C   0  0  2  0  0  0  0  0  0  0  0  0
    2.1190    0.2920    1.5720 O   0  0  0  0  0  0  0  0  0  0  0  0
    1.4620    2.2450    0.3310 C   0  0  0  0  0  0  0  0  0  0  0  0
    2.0140    3.3870   -0.2370 O   0  0  0  0  0  0  0  0  0  0  0  0
    3.7730    1.2790   -1.5040 O   0  0  0  0  0  0  0  0  0  0  0  0
    4.0750   -1.4270   -1.5480 O   0  0  0  0  0  0  0  0  0  0  0  0
    3.0580   -2.8220    0.9740 O   0  0  0  0  0  0  0  0  0  0  0  0
   -1.4670   -0.3320   -2.0870 O   0  0  0  0  0  0  0  0  0  0  0  0
   -3.9420    0.2240   -2.5540 O   0  0  0  0  0  0  0  0  0  0  0  0
   -2.4900    2.2800    1.4480 O   0  0  0  0  0  0  0  0  0  0  0  0
   -3.7890   -0.7420    1.5410 H   0  0  0  0  0  0  0  0  0  0  0  0
   -4.4340    0.7290    2.2830 H   0  0  0  0  0  0  0  0  0  0  0  0
   -2.8670    0.1210    2.7850 H   0  0  0  0  0  0  0  0  0  0  0  0
   -4.8790    1.4740   -0.0270 H   0  0  0  0  0  0  0  0  0  0  0  0
   -3.5940    2.2180   -0.9460 H   0  0  0  0  0  0  0  0  0  0  0  0
   -4.4680   -0.7310   -0.9180 H   0  0  0  0  0  0  0  0  0  0  0  0
   -1.0130    1.2150   -0.3580 H   0  0  0  0  0  0  0  0  0  0  0  0
   -0.5590    0.2750    2.0610 H   0  0  0  0  0  0  0  0  0  0  0  0
   -1.8440   -3.3830    1.0360 H   0  0  0  0  0  0  0  0  0  0  0  0
   -2.7690   -2.6410   -1.2090 H   0  0  0  0  0  0  0  0  0  0  0  0
    1.3350   -1.4330    2.1530 H   0  0  0  0  0  0  0  0  0  0  0  0
    1.9030   -2.2940   -0.5360 H   0  0  0  0  0  0  0  0  0  0  0  0
    4.4390   -0.7130    0.3670 H   0  0  0  0  0  0  0  0  0  0  0  0
    2.0610    0.3010   -1.4190 H   0  0  0  0  0  0  0  0  0  0  0  0
    3.4490    1.6640    1.0480 H   0  0  0  0  0  0  0  0  0  0  0  0
    1.0330    2.5970    1.2970 H   0  0  0  0  0  0  0  0  0  0  0  0
    0.6020    1.8400   -0.2580 H   0  0  0  0  0  0  0  0  0  0  0  0
    2.2890    3.1770   -1.1360 H   0  0  0  0  0  0  0  0  0  0  0  0
    4.6570    1.2750   -1.1210 H   0  0  0  0  0  0  0  0  0  0  0  0
    4.3840   -2.3180   -1.3510 H   0  0  0  0  0  0  0  0  0  0  0  0
    3.5470   -2.4680    1.7260 H   0  0  0  0  0  0  0  0  0  0  0  0
   -1.6590   -1.0510   -2.6990 H   0  0  0  0  0  0  0  0  0  0  0  0
   -3.3650    0.9210   -2.8870 H   0  0  0  0  0  0  0  0  0  0  0  0
   -2.2010    2.9170    0.7870 H   0  0  0  0  0  0  0  0  0  0  0  0
  1  2  1  0
  1 26  1  0
  1 27  1  0
  1 28  1  0
  2  3  1  0
  2  6  1  0
  2 25  1  1
  3  4  1  0
  3 30  1  0
  3 29  1  0
  4 24  1  0
  4  5  1  0
  4 31  1  1
  5 23  1  6
  5 10  1  0
  5  6  1  0
  6 32  1  6
  6  7  1  0
  7 11  1  0
  7  8  1  0
  7 33  1  1
  8  9  1  0
  9 10  2  0
  9 34  1  0
 10 35  1  0
 11 12  1  0
 12 13  1  0
 12 17  1  0
 12 36  1  1
 13 37  1  6
 13 14  1  0
 13 22  1  0
 14 21  1  0
 14 15  1  0
 14 38  1  1
 15 20  1  0
 15 39  1  6
 15 16  1  0
 16 18  1  0
 16 40  1  1
 16 17  1  0
 18 42  1  0
 18 19  1  0
 18 41  1  0
 19 43  1  0
 20 44  1  0
 21 45  1  0
 22 46  1  0
 23 47  1  0
 24 48  1  0
 25 49  1  0
M  END
>  <id>  (886) 
1002

>  <scaffolds>  (886) 
['C1CCOCC1', 'C1=CC2CCCC2C(OC2CCCCO2)O1']

>  <name>  (886) 
Harpagide

>  <formula>  (886) 
C15H24O10

>  <SMILES>  (886) 
C[C@@]1(C[C@H]([C@]2([C@@H]1[C@@H](OC=C2)O[C@H]3[C@@H]([C@H]([C@@H]([C@H](O3)CO)O)O)O)O)O)O

>  <ChEMBL_id>  (886) 
SCHEMBL1425414

>  <ZINC_id>  (886) 
ZINC4082157

>  <PubChem_id>  (886) 
93045

>  <DrugBank_id>  (886) 


>  <CAS_no>  (886) 
6926-08-5

>  <references>  (886) 
[{'journal': {'name': 'Journal of Ethnopharmacology', 'id': 7}, 'title': "Devil's Claw - A review of the ethnobotany, phytochemistry and biological activity of Harpagophytum procumbens", 'year': 2012, 'start_page': None, 'volume': None, 'issue': None, 'doi': '10.1016/j.jep.2012.08.013', 'isbn': '', 'despositor': {'code': 'BND', 'first_name': "Bakary N'tji", 'last_name': 'Diallo', 'id': 26}, 'refauthors_set': [{'author': {'first_name': 'Mncwangi', 'initials': 'MN', 'last_name': 'Nontobeko', 'id': 1039}, 'first_author': True, 'id': 1620}], 'id': 522}]

>  <classifications>  (886) 
[{'classification': 'Glycoside', 'id': 781}, {'classification': 'Phenol lipids (Classyfire)', 'id': 951}]

>  <molecular_mass>  (886) 
364.34

$$$$
SANC01003_minRM1.pdb
     RDKit          3D

 79 83  0  0  1  0  0  0  0  0999 V2000
    4.5540   -3.4370   -0.5740 C   0  0  0  0  0  0  0  0  0  0  0  0
    4.4300   -2.2540    0.3230 C   0  0  0  0  0  0  0  0  0  0  0  0
    4.4370   -2.3860    1.6460 C   0  0  0  0  0  0  0  0  0  0  0  0
    4.3870   -0.9190   -0.3530 C   0  0  2  0  0  0  0  0  0  0  0  0
    5.7330   -0.1820   -0.1310 C   0  0  0  0  0  0  0  0  0  0  0  0
    5.3990    1.2650    0.2630 C   0  0  0  0  0  0  0  0  0  0  0  0
    3.9330    1.4320   -0.1530 C   0  0  1  0  0  0  0  0  0  0  0  0
    3.3430    0.0550    0.2080 C   0  0  1  0  0  0  0  0  0  0  0  0
    1.9090   -0.0290   -0.3020 C   0  0  1  0  0  0  0  0  0  0  0  0
    1.3190   -1.4220   -0.1180 C   0  0  0  0  0  0  0  0  0  0  0  0
   -0.1060   -1.4600   -0.6610 C   0  0  0  0  0  0  0  0  0  0  0  0
   -0.9710   -0.4210    0.0500 C   0  0  2  0  0  0  0  0  0  0  0  0
   -2.4740   -0.6110   -0.2780 C   0  0  1  0  0  0  0  0  0  0  0  0
   -2.9150   -1.9480    0.3460 C   0  0  0  0  0  0  0  0  0  0  0  0
   -4.3710   -2.2480    0.0520 C   0  0  0  0  0  0  0  0  0  0  0  0
   -5.2990   -1.0760    0.2210 C   0  0  0  0  0  0  0  0  0  0  0  0
   -6.4990   -1.2940    0.2740 O   0  0  0  0  0  0  0  0  0  0  0  0
   -4.8040    0.3630    0.2910 C   0  0  2  0  0  0  0  0  0  0  0  0
   -3.2760    0.4830    0.4440 C   0  0  2  0  0  0  0  0  0  0  0  0
   -2.7530    1.8600    0.0430 C   0  0  0  0  0  0  0  0  0  0  0  0
   -1.3030    2.0190    0.4930 C   0  0  0  0  0  0  0  0  0  0  0  0
   -0.3930    0.9890   -0.1860 C   0  0  1  0  0  0  0  0  0  0  0  0
    1.0490    1.0340    0.4250 C   0  0  2  0  0  0  0  0  0  0  0  0
    1.6740    2.4300    0.2350 C   0  0  0  0  0  0  0  0  0  0  0  0
    3.1530    2.4920    0.6130 C   0  0  0  0  0  0  0  0  0  0  0  0
    1.0140    0.7570    1.9320 C   0  0  0  0  0  0  0  0  0  0  0  0
   -0.3140    1.3430   -1.6710 C   0  0  0  0  0  0  0  0  0  0  0  0
   -5.4690    0.9890    1.5290 C   0  0  0  0  0  0  0  0  0  0  0  0
   -5.3560    1.0740   -0.9470 C   0  0  0  0  0  0  0  0  0  0  0  0
   -2.7440   -0.6700   -1.7740 C   0  0  0  0  0  0  0  0  0  0  0  0
    3.8950    1.7300   -1.6510 C   0  0  0  0  0  0  0  0  0  0  0  0
    3.7290   -3.5040   -1.3000 H   0  0  0  0  0  0  0  0  0  0  0  0
    5.4860   -3.3910   -1.1590 H   0  0  0  0  0  0  0  0  0  0  0  0
    4.5690   -4.3960   -0.0350 H   0  0  0  0  0  0  0  0  0  0  0  0
    4.4930   -3.3410    2.1580 H   0  0  0  0  0  0  0  0  0  0  0  0
    4.3930   -1.5520    2.3390 H   0  0  0  0  0  0  0  0  0  0  0  0
    4.2030   -1.0620   -1.4480 H   0  0  0  0  0  0  0  0  0  0  0  0
    6.3600   -0.2230   -1.0430 H   0  0  0  0  0  0  0  0  0  0  0  0
    6.3540   -0.6710    0.6450 H   0  0  0  0  0  0  0  0  0  0  0  0
    6.0700    2.0040   -0.2140 H   0  0  0  0  0  0  0  0  0  0  0  0
    5.5370    1.4300    1.3500 H   0  0  0  0  0  0  0  0  0  0  0  0
    3.3240   -0.0560    1.3270 H   0  0  0  0  0  0  0  0  0  0  0  0
    1.9170    0.1990   -1.4040 H   0  0  0  0  0  0  0  0  0  0  0  0
    1.3590   -1.7490    0.9410 H   0  0  0  0  0  0  0  0  0  0  0  0
    1.9390   -2.1750   -0.6490 H   0  0  0  0  0  0  0  0  0  0  0  0
   -0.5370   -2.4790   -0.5360 H   0  0  0  0  0  0  0  0  0  0  0  0
   -0.0950   -1.2970   -1.7600 H   0  0  0  0  0  0  0  0  0  0  0  0
   -0.8810   -0.6180    1.1580 H   0  0  0  0  0  0  0  0  0  0  0  0
   -2.2740   -2.7810   -0.0240 H   0  0  0  0  0  0  0  0  0  0  0  0
   -2.7470   -1.9540    1.4450 H   0  0  0  0  0  0  0  0  0  0  0  0
   -4.5000   -2.6440   -0.9800 H   0  0  0  0  0  0  0  0  0  0  0  0
   -4.7210   -3.0890    0.6940 H   0  0  0  0  0  0  0  0  0  0  0  0
   -3.0640    0.3630    1.5440 H   0  0  0  0  0  0  0  0  0  0  0  0
   -3.3650    2.6670    0.5000 H   0  0  0  0  0  0  0  0  0  0  0  0
   -2.8390    2.0350   -1.0500 H   0  0  0  0  0  0  0  0  0  0  0  0
   -0.9650    3.0530    0.2670 H   0  0  0  0  0  0  0  0  0  0  0  0
   -1.2480    1.9500    1.5990 H   0  0  0  0  0  0  0  0  0  0  0  0
    1.1240    3.1890    0.8330 H   0  0  0  0  0  0  0  0  0  0  0  0
    1.5380    2.7840   -0.8120 H   0  0  0  0  0  0  0  0  0  0  0  0
    3.2850    2.3730    1.7090 H   0  0  0  0  0  0  0  0  0  0  0  0
    3.5590    3.5060    0.4100 H   0  0  0  0  0  0  0  0  0  0  0  0
    1.9890    0.4200    2.3220 H   0  0  0  0  0  0  0  0  0  0  0  0
    0.2940   -0.0270    2.2190 H   0  0  0  0  0  0  0  0  0  0  0  0
    0.7470    1.6400    2.5300 H   0  0  0  0  0  0  0  0  0  0  0  0
    0.2480    2.2740   -1.8540 H   0  0  0  0  0  0  0  0  0  0  0  0
    0.1780    0.5640   -2.2750 H   0  0  0  0  0  0  0  0  0  0  0  0
   -1.3080    1.5020   -2.1220 H   0  0  0  0  0  0  0  0  0  0  0  0
   -5.1390    2.0210    1.7050 H   0  0  0  0  0  0  0  0  0  0  0  0
   -5.2570    0.4240    2.4480 H   0  0  0  0  0  0  0  0  0  0  0  0
   -6.5650    1.0260    1.4370 H   0  0  0  0  0  0  0  0  0  0  0  0
   -4.8720    0.7350   -1.8760 H   0  0  0  0  0  0  0  0  0  0  0  0
   -6.4360    0.9030   -1.0780 H   0  0  0  0  0  0  0  0  0  0  0  0
   -5.2390    2.1660   -0.8980 H   0  0  0  0  0  0  0  0  0  0  0  0
   -2.3480   -1.5870   -2.2370 H   0  0  0  0  0  0  0  0  0  0  0  0
   -3.8180   -0.6480   -2.0240 H   0  0  0  0  0  0  0  0  0  0  0  0
   -2.3130    0.1710   -2.3370 H   0  0  0  0  0  0  0  0  0  0  0  0
    4.6500    1.1730   -2.2240 H   0  0  0  0  0  0  0  0  0  0  0  0
    4.0830    2.7930   -1.8620 H   0  0  0  0  0  0  0  0  0  0  0  0
    2.9280    1.4780   -2.1160 H   0  0  0  0  0  0  0  0  0  0  0  0
  1 32  1  0
  1 33  1  0
  1 34  1  0
  1  2  1  0
  2  4  1  0
  2  3  2  0
  3 35  1  0
  3 36  1  0
  4 37  1  6
  4  5  1  0
  4  8  1  0
  5 38  1  0
  5  6  1  0
  5 39  1  0
  6 40  1  0
  6  7  1  0
  6 41  1  0
  7 31  1  6
  7  8  1  0
  7 25  1  0
  8  9  1  0
  8 42  1  1
  9 43  1  6
  9 10  1  0
  9 23  1  0
 10 11  1  0
 10 45  1  0
 10 44  1  0
 11 47  1  0
 11 46  1  0
 11 12  1  0
 12 13  1  0
 12 22  1  0
 12 48  1  1
 13 30  1  6
 13 14  1  0
 13 19  1  0
 14 49  1  0
 14 15  1  0
 14 50  1  0
 15 51  1  0
 15 16  1  0
 15 52  1  0
 16 17  2  0
 16 18  1  0
 18 29  1  6
 18 19  1  0
 18 28  1  0
 19 20  1  0
 19 53  1  1
 20 55  1  0
 20 21  1  0
 20 54  1  0
 21 22  1  0
 21 56  1  0
 21 57  1  0
 22 27  1  6
 22 23  1  0
 23 24  1  0
 23 26  1  1
 24 59  1  0
 24 25  1  0
 24 58  1  0
 25 61  1  0
 25 60  1  0
 26 63  1  0
 26 62  1  0
 26 64  1  0
 27 66  1  0
 27 67  1  0
 27 65  1  0
 28 70  1  0
 28 68  1  0
 28 69  1  0
 29 71  1  0
 29 72  1  0
 29 73  1  0
 30 76  1  0
 30 74  1  0
 30 75  1  0
 31 77  1  0
 31 79  1  0
 31 78  1  0
M  END
>  <id>  (887) 
1003

>  <scaffolds>  (887) 
['C1CCC2C(C1)CCC1C2CCC2C3CCCC3CCC21', 'O=C1CCC2C(CCC3C2CCC2C4CCCC4CCC23)C1', 'C1CCC(C2CCCC2)CC1', 'C1CCCCC1', 'C1CCC2C(C1)CCC1C3CCCC3CCC21', 'C1CCC2CCCCC2C1']

>  <name>  (887) 
Lupenone

>  <formula>  (887) 
C30H48O

>  <SMILES>  (887) 
CC(=C)[C@@H]1CC[C@]2([C@H]1[C@H]3CC[C@@H]4[C@]5(CCC(=O)C([C@@H]5CC[C@]4([C@@]3(CC2)C)C)(C)C)C)C

>  <ChEMBL_id>  (887) 
SCHEMBL1224027

>  <ZINC_id>  (887) 
ZINC4081760

>  <PubChem_id>  (887) 
92158

>  <DrugBank_id>  (887) 


>  <CAS_no>  (887) 
1617-70-5

>  <references>  (887) 
[{'journal': {'name': 'Journal of Ethnopharmacology', 'id': 7}, 'title': 'Non-toxic melanin production inhibitors from Garcinia livingstonei (Clusiaceae)', 'year': 2013, 'start_page': None, 'volume': None, 'issue': None, 'doi': '10.1016/j.jep.2013.07.023', 'isbn': '', 'despositor': {'code': 'BND', 'first_name': "Bakary N'tji", 'last_name': 'Diallo', 'id': 26}, 'refauthors_set': [{'author': {'first_name': 'Mulholland', 'initials': 'MD', 'last_name': 'Dulcie', 'id': 1040}, 'first_author': True, 'id': 1621}], 'id': 523}]

>  <classifications>  (887) 
[{'classification': 'Triterpene', 'id': 842}, {'classification': 'Phenol lipids (Classyfire)', 'id': 951}]

>  <molecular_mass>  (887) 
424.7

$$$$
SANC01004_minRM1.pdb
     RDKit          3D

 37 40  0  0  0  0  0  0  0  0999 V2000
   -5.3680   -0.9750    0.9960 C   0  0  0  0  0  0  0  0  0  0  0  0
   -4.1150   -0.8230    0.1310 C   0  0  0  0  0  0  0  0  0  0  0  0
   -3.1540   -1.9450    0.3690 C   0  0  0  0  0  0  0  0  0  0  0  0
   -1.8380   -1.7270    0.3970 C   0  0  0  0  0  0  0  0  0  0  0  0
   -1.3500   -0.3730    0.2500 C   0  0  0  0  0  0  0  0  0  0  0  0
   -2.2810    0.6730    0.3130 C   0  0  0  0  0  0  0  0  0  0  0  0
   -3.6010    0.4540    0.4960 O   0  0  0  0  0  0  0  0  0  0  0  0
   -1.9020    2.0160    0.2590 C   0  0  0  0  0  0  0  0  0  0  0  0
   -0.5470    2.3070    0.1080 C   0  0  0  0  0  0  0  0  0  0  0  0
    0.4280    1.2950    0.0020 C   0  0  0  0  0  0  0  0  0  0  0  0
   -0.0040   -0.0290    0.0850 C   0  0  0  0  0  0  0  0  0  0  0  0
    0.8420   -1.0910   -0.0010 O   0  0  0  0  0  0  0  0  0  0  0  0
    2.1850   -0.8360   -0.0820 C   0  0  0  0  0  0  0  0  0  0  0  0
    2.7300    0.4370   -0.1830 C   0  0  0  0  0  0  0  0  0  0  0  0
    1.8400    1.6110   -0.1890 C   0  0  0  0  0  0  0  0  0  0  0  0
    2.2630    2.7430   -0.3430 O   0  0  0  0  0  0  0  0  0  0  0  0
    4.1130    0.5790   -0.2770 C   0  0  0  0  0  0  0  0  0  0  0  0
    4.9310   -0.5430   -0.2630 C   0  0  0  0  0  0  0  0  0  0  0  0
    4.3910   -1.8190   -0.1490 C   0  0  0  0  0  0  0  0  0  0  0  0
    3.0080   -1.9730   -0.0560 C   0  0  0  0  0  0  0  0  0  0  0  0
    2.5540   -3.2500   -0.0040 O   0  0  0  0  0  0  0  0  0  0  0  0
   -0.0860    3.5680    0.0490 O   0  0  0  0  0  0  0  0  0  0  0  0
   -4.4660   -0.7690   -1.3580 C   0  0  0  0  0  0  0  0  0  0  0  0
   -5.9180   -1.8900    0.7380 H   0  0  0  0  0  0  0  0  0  0  0  0
   -6.0650   -0.1330    0.8700 H   0  0  0  0  0  0  0  0  0  0  0  0
   -5.1230   -1.0290    2.0660 H   0  0  0  0  0  0  0  0  0  0  0  0
   -3.5890   -2.9390    0.4860 H   0  0  0  0  0  0  0  0  0  0  0  0
   -1.1180   -2.5360    0.5450 H   0  0  0  0  0  0  0  0  0  0  0  0
   -2.6590    2.8010    0.3350 H   0  0  0  0  0  0  0  0  0  0  0  0
    4.5500    1.5810   -0.3630 H   0  0  0  0  0  0  0  0  0  0  0  0
    6.0160   -0.4240   -0.3400 H   0  0  0  0  0  0  0  0  0  0  0  0
    5.0390   -2.7010   -0.1370 H   0  0  0  0  0  0  0  0  0  0  0  0
    1.6760   -3.2590    0.3930 H   0  0  0  0  0  0  0  0  0  0  0  0
   -0.8270    4.1850    0.1220 H   0  0  0  0  0  0  0  0  0  0  0  0
   -5.1670    0.0460   -1.5880 H   0  0  0  0  0  0  0  0  0  0  0  0
   -4.9350   -1.7040   -1.6920 H   0  0  0  0  0  0  0  0  0  0  0  0
   -3.5750   -0.6130   -1.9830 H   0  0  0  0  0  0  0  0  0  0  0  0
  1  2  1  0
  1 24  1  0
  1 25  1  0
  1 26  1  0
  2 23  1  0
  2  3  1  0
  2  7  1  0
  3  4  2  0
  3 27  1  0
  4  5  1  0
  4 28  1  0
  5 11  2  0
  5  6  1  0
  6  8  2  0
  6  7  1  0
  8  9  1  0
  8 29  1  0
  9 10  2  0
  9 22  1  0
 10 15  1  0
 10 11  1  0
 11 12  1  0
 12 13  1  0
 13 14  2  0
 13 20  1  0
 14 17  1  0
 14 15  1  0
 15 16  2  0
 17 30  1  0
 17 18  2  0
 18 31  1  0
 18 19  1  0
 19 32  1  0
 19 20  2  0
 20 21  1  0
 21 33  1  0
 22 34  1  0
 23 37  1  0
 23 36  1  0
 23 35  1  0
M  END
>  <id>  (888) 
1004

>  <scaffolds>  (888) 
['c1ccccc1', 'O=c1c2ccccc2oc2ccccc12', 'C1=Cc2ccccc2OC1', 'O=c1ccoc2ccccc12', 'O=c1c2ccccc2oc2c3c(ccc12)OCC=C3']

>  <name>  (888) 
6-Deoxyisojacareubin

>  <formula>  (888) 
C18H14O5

>  <SMILES>  (888) 
CC1(C=CC2=C(O1)C=C(C3=C2OC4=C(C3=O)C=CC=C4O)O)C

>  <ChEMBL_id>  (888) 
CHEMBL3327040

>  <ZINC_id>  (888) 


>  <PubChem_id>  (888) 
5464641

>  <DrugBank_id>  (888) 


>  <CAS_no>  (888) 
26486-92-0

>  <references>  (888) 
[{'journal': {'name': 'Journal of Ethnopharmacology', 'id': 7}, 'title': 'Non-toxic melanin production inhibitors from Garcinia livingstonei (Clusiaceae)', 'year': 2013, 'start_page': None, 'volume': None, 'issue': None, 'doi': '10.1016/j.jep.2013.07.023', 'isbn': '', 'despositor': {'code': 'BND', 'first_name': "Bakary N'tji", 'last_name': 'Diallo', 'id': 26}, 'refauthors_set': [{'author': {'first_name': 'Mulholland', 'initials': 'MD', 'last_name': 'Dulcie', 'id': 1040}, 'first_author': True, 'id': 1621}], 'id': 523}]

>  <classifications>  (888) 
[{'classification': 'Pyrans', 'id': 927}, {'classification': 'Benzopyrans (Classyfire)', 'id': 966}]

>  <molecular_mass>  (888) 
310.3

$$$$
SANC01005_minRM1.pdb
     RDKit          3D

 38 41  0  0  0  0  0  0  0  0999 V2000
    5.0700   -1.3100    1.2770 C   0  0  0  0  0  0  0  0  0  0  0  0
    4.3000   -1.1460   -0.0390 C   0  0  0  0  0  0  0  0  0  0  0  0
    3.1920   -2.1450   -0.1010 C   0  0  0  0  0  0  0  0  0  0  0  0
    1.9070   -1.7910   -0.1020 C   0  0  0  0  0  0  0  0  0  0  0  0
    1.5610   -0.3900   -0.0510 C   0  0  0  0  0  0  0  0  0  0  0  0
    2.5980    0.5520   -0.0450 C   0  0  0  0  0  0  0  0  0  0  0  0
    3.9030    0.2210   -0.0810 O   0  0  0  0  0  0  0  0  0  0  0  0
    2.3560    1.9300   -0.0160 C   0  0  0  0  0  0  0  0  0  0  0  0
    1.0320    2.3630    0.0050 C   0  0  0  0  0  0  0  0  0  0  0  0
   -0.0500    1.4590    0.0030 C   0  0  0  0  0  0  0  0  0  0  0  0
    0.2490    0.0980   -0.0220 C   0  0  0  0  0  0  0  0  0  0  0  0
   -0.7110   -0.8700   -0.0190 O   0  0  0  0  0  0  0  0  0  0  0  0
   -2.0180   -0.4750   -0.0180 C   0  0  0  0  0  0  0  0  0  0  0  0
   -2.4330    0.8490    0.0050 C   0  0  0  0  0  0  0  0  0  0  0  0
   -1.4350    1.9250    0.0200 C   0  0  0  0  0  0  0  0  0  0  0  0
   -1.7480    3.1020    0.0450 O   0  0  0  0  0  0  0  0  0  0  0  0
   -3.8030    1.1300    0.0090 C   0  0  0  0  0  0  0  0  0  0  0  0
   -4.7370    0.1110    0.0020 C   0  0  0  0  0  0  0  0  0  0  0  0
   -4.3050   -1.2250   -0.0050 C   0  0  0  0  0  0  0  0  0  0  0  0
   -2.9400   -1.5300   -0.0060 C   0  0  0  0  0  0  0  0  0  0  0  0
   -2.5700   -2.8360   -0.1000 O   0  0  0  0  0  0  0  0  0  0  0  0
   -5.2820   -2.1540   -0.0120 O   0  0  0  0  0  0  0  0  0  0  0  0
    0.7030    3.6650    0.0310 O   0  0  0  0  0  0  0  0  0  0  0  0
    5.2280   -1.3190   -1.2470 C   0  0  0  0  0  0  0  0  0  0  0  0
    5.5140   -2.3120    1.3570 H   0  0  0  0  0  0  0  0  0  0  0  0
    4.4200   -1.1710    2.1520 H   0  0  0  0  0  0  0  0  0  0  0  0
    5.8910   -0.5850    1.3690 H   0  0  0  0  0  0  0  0  0  0  0  0
    3.5080   -3.1900   -0.1400 H   0  0  0  0  0  0  0  0  0  0  0  0
    1.1060   -2.5350   -0.1500 H   0  0  0  0  0  0  0  0  0  0  0  0
    3.1940    2.6310   -0.0130 H   0  0  0  0  0  0  0  0  0  0  0  0
   -4.1350    2.1760    0.0170 H   0  0  0  0  0  0  0  0  0  0  0  0
   -5.8090    0.3330    0.0020 H   0  0  0  0  0  0  0  0  0  0  0  0
   -1.9330   -2.9940    0.6080 H   0  0  0  0  0  0  0  0  0  0  0  0
   -4.8960   -3.0380   -0.0550 H   0  0  0  0  0  0  0  0  0  0  0  0
    1.5080    4.2000    0.0240 H   0  0  0  0  0  0  0  0  0  0  0  0
    6.0470   -0.5860   -1.2500 H   0  0  0  0  0  0  0  0  0  0  0  0
    5.6870   -2.3170   -1.2580 H   0  0  0  0  0  0  0  0  0  0  0  0
    4.6880   -1.1980   -2.1970 H   0  0  0  0  0  0  0  0  0  0  0  0
  1  2  1  0
  1 25  1  0
  1 27  1  0
  1 26  1  0
  2 24  1  0
  2  3  1  0
  2  7  1  0
  3 28  1  0
  3  4  2  0
  4 29  1  0
  4  5  1  0
  5  6  2  0
  5 11  1  0
  6  7  1  0
  6  8  1  0
  8 30  1  0
  8  9  2  0
  9 10  1  0
  9 23  1  0
 10 11  2  0
 10 15  1  0
 11 12  1  0
 12 13  1  0
 13 20  2  0
 13 14  1  0
 14 17  2  0
 14 15  1  0
 15 16  2  0
 17 18  1  0
 17 31  1  0
 18 19  2  0
 18 32  1  0
 19 22  1  0
 19 20  1  0
 20 21  1  0
 21 33  1  0
 22 34  1  0
 23 35  1  0
 24 38  1  0
 24 37  1  0
 24 36  1  0
M  END
>  <id>  (889) 
1005

>  <scaffolds>  (889) 
['c1ccccc1', 'O=c1c2ccccc2oc2ccccc12', 'C1=Cc2ccccc2OC1', 'O=c1ccoc2ccccc12', 'O=c1c2ccccc2oc2c3c(ccc12)OCC=C3']

>  <name>  (889) 
Isojacareubin

>  <formula>  (889) 
C18H14O6

>  <SMILES>  (889) 
CC1(C=CC2=C(O1)C=C(C3=C2OC4=C(C3=O)C=CC(=C4O)O)O)C

>  <ChEMBL_id>  (889) 


>  <ZINC_id>  (889) 
ZINC14560090

>  <PubChem_id>  (889) 
9996463

>  <DrugBank_id>  (889) 


>  <CAS_no>  (889) 
50597-93-8

>  <references>  (889) 
[{'journal': {'name': 'Journal of Ethnopharmacology', 'id': 7}, 'title': 'Non-toxic melanin production inhibitors from Garcinia livingstonei (Clusiaceae)', 'year': 2013, 'start_page': None, 'volume': None, 'issue': None, 'doi': '10.1016/j.jep.2013.07.023', 'isbn': '', 'despositor': {'code': 'BND', 'first_name': "Bakary N'tji", 'last_name': 'Diallo', 'id': 26}, 'refauthors_set': [{'author': {'first_name': 'Mulholland', 'initials': 'MD', 'last_name': 'Dulcie', 'id': 1040}, 'first_author': True, 'id': 1621}], 'id': 523}]

>  <classifications>  (889) 
[{'classification': 'Xanthenes', 'id': 928}, {'classification': 'Benzopyrans (Classyfire)', 'id': 966}]

>  <molecular_mass>  (889) 
326.3

$$$$
SANC01006_minRM1.pdb
     RDKit          3D

 81 84  0  0  1  0  0  0  0  0999 V2000
    4.8630    2.4050    1.0610 C   0  0  0  0  0  0  0  0  0  0  0  0
    3.7420    1.3740    1.1990 C   0  0  2  0  0  0  0  0  0  0  0  0
    4.2950   -0.0310    0.9390 C   0  0  0  0  0  0  0  0  0  0  0  0
    4.9410   -0.1690   -0.4390 C   0  0  0  0  0  0  0  0  0  0  0  0
    5.1680   -1.6110   -0.7380 C   0  0  0  0  0  0  0  0  0  0  0  0
    6.3270   -2.2450   -0.5520 C   0  0  0  0  0  0  0  0  0  0  0  0
    7.5440   -1.5740   -0.0220 C   0  0  0  0  0  0  0  0  0  0  0  0
    6.4850   -3.6890   -0.8760 C   0  0  0  0  0  0  0  0  0  0  0  0
    2.6010    1.7170    0.2370 C   0  0  2  0  0  0  0  0  0  0  0  0
    2.0880    3.1600    0.4380 C   0  0  0  0  0  0  0  0  0  0  0  0
    0.5710    3.1500    0.1790 C   0  0  0  0  0  0  0  0  0  0  0  0
    0.2990    1.7670   -0.4220 C   0  0  1  0  0  0  0  0  0  0  0  0
    1.3100    0.8830    0.3470 C   0  0  1  0  0  0  0  0  0  0  0  0
    1.3160   -0.4820   -0.3190 C   0  0  0  0  0  0  0  0  0  0  0  0
   -0.0860   -1.0960   -0.2750 C   0  0  0  0  0  0  0  0  0  0  0  0
   -1.2390   -0.1400   -0.3180 C   0  0  0  0  0  0  0  0  0  0  0  0
   -1.0740    1.1890   -0.3070 C   0  0  0  0  0  0  0  0  0  0  0  0
   -2.1870    2.1760   -0.2530 C   0  0  0  0  0  0  0  0  0  0  0  0
   -3.5490    1.5530   -0.5350 C   0  0  0  0  0  0  0  0  0  0  0  0
   -3.6370    0.2140    0.1900 C   0  0  2  0  0  0  0  0  0  0  0  0
   -2.6190   -0.7580   -0.4410 C   0  0  2  0  0  0  0  0  0  0  0  0
   -2.7260   -2.0990    0.2980 C   0  0  0  0  0  0  0  0  0  0  0  0
   -4.1470   -2.6390    0.2890 C   0  0  0  0  0  0  0  0  0  0  0  0
   -5.0780   -1.6580    1.0060 C   0  0  1  0  0  0  0  0  0  0  0  0
   -5.0920   -0.2770    0.3090 C   0  0  2  0  0  0  0  0  0  0  0  0
   -5.8400   -0.3210   -1.0180 C   0  0  0  0  0  0  0  0  0  0  0  0
   -5.8580    0.6940    1.2210 C   0  0  0  0  0  0  0  0  0  0  0  0
   -6.3560   -2.1900    1.1560 O   0  0  0  0  0  0  0  0  0  0  0  0
   -2.8060   -0.9850   -1.9430 C   0  0  0  0  0  0  0  0  0  0  0  0
    0.9020    0.7220    1.8120 C   0  0  0  0  0  0  0  0  0  0  0  0
    0.5770    1.8430   -1.9310 C   0  0  0  0  0  0  0  0  0  0  0  0
    5.1110    2.6360    0.0150 H   0  0  0  0  0  0  0  0  0  0  0  0
    5.7950    2.0680    1.5400 H   0  0  0  0  0  0  0  0  0  0  0  0
    4.6150    3.3660    1.5350 H   0  0  0  0  0  0  0  0  0  0  0  0
    3.3800    1.4090    2.2590 H   0  0  0  0  0  0  0  0  0  0  0  0
    5.0300   -0.3030    1.7270 H   0  0  0  0  0  0  0  0  0  0  0  0
    3.4830   -0.7850    1.0550 H   0  0  0  0  0  0  0  0  0  0  0  0
    5.8780    0.4230   -0.5050 H   0  0  0  0  0  0  0  0  0  0  0  0
    4.2870    0.2810   -1.2220 H   0  0  0  0  0  0  0  0  0  0  0  0
    4.2910   -2.1440   -1.1220 H   0  0  0  0  0  0  0  0  0  0  0  0
    7.9610   -0.8620   -0.7510 H   0  0  0  0  0  0  0  0  0  0  0  0
    7.3400   -1.0100    0.9010 H   0  0  0  0  0  0  0  0  0  0  0  0
    8.3540   -2.2780    0.2220 H   0  0  0  0  0  0  0  0  0  0  0  0
    5.5870   -4.1450   -1.3190 H   0  0  0  0  0  0  0  0  0  0  0  0
    6.7230   -4.2770    0.0240 H   0  0  0  0  0  0  0  0  0  0  0  0
    7.3040   -3.8530   -1.5930 H   0  0  0  0  0  0  0  0  0  0  0  0
    3.0060    1.6050   -0.8060 H   0  0  0  0  0  0  0  0  0  0  0  0
    2.6130    3.8640   -0.2370 H   0  0  0  0  0  0  0  0  0  0  0  0
    2.3000    3.5450    1.4550 H   0  0  0  0  0  0  0  0  0  0  0  0
    0.0010    3.3160    1.1140 H   0  0  0  0  0  0  0  0  0  0  0  0
    0.2560    3.9840   -0.4770 H   0  0  0  0  0  0  0  0  0  0  0  0
    1.7000   -0.4270   -1.3590 H   0  0  0  0  0  0  0  0  0  0  0  0
    2.0470   -1.1620    0.1770 H   0  0  0  0  0  0  0  0  0  0  0  0
   -0.1620   -1.6980    0.6580 H   0  0  0  0  0  0  0  0  0  0  0  0
   -0.1750   -1.8330   -1.1030 H   0  0  0  0  0  0  0  0  0  0  0  0
   -2.0030    3.0160   -0.9570 H   0  0  0  0  0  0  0  0  0  0  0  0
   -2.1900    2.6500    0.7540 H   0  0  0  0  0  0  0  0  0  0  0  0
   -3.7120    1.4500   -1.6260 H   0  0  0  0  0  0  0  0  0  0  0  0
   -4.3570    2.2440   -0.2060 H   0  0  0  0  0  0  0  0  0  0  0  0
   -3.2830    0.3740    1.2490 H   0  0  0  0  0  0  0  0  0  0  0  0
   -2.0560   -2.8660   -0.1440 H   0  0  0  0  0  0  0  0  0  0  0  0
   -2.3740   -1.9880    1.3470 H   0  0  0  0  0  0  0  0  0  0  0  0
   -4.1830   -3.6270    0.7980 H   0  0  0  0  0  0  0  0  0  0  0  0
   -4.4920   -2.8660   -0.7400 H   0  0  0  0  0  0  0  0  0  0  0  0
   -4.7490   -1.5410    2.0750 H   0  0  0  0  0  0  0  0  0  0  0  0
   -5.4080   -1.0290   -1.7410 H   0  0  0  0  0  0  0  0  0  0  0  0
   -6.8970   -0.6040   -0.8990 H   0  0  0  0  0  0  0  0  0  0  0  0
   -5.8650    0.6560   -1.5220 H   0  0  0  0  0  0  0  0  0  0  0  0
   -5.4110    0.7880    2.2210 H   0  0  0  0  0  0  0  0  0  0  0  0
   -5.8930    1.7120    0.8010 H   0  0  0  0  0  0  0  0  0  0  0  0
   -6.8990    0.3770    1.3800 H   0  0  0  0  0  0  0  0  0  0  0  0
   -6.6980   -2.4330    0.2900 H   0  0  0  0  0  0  0  0  0  0  0  0
   -3.8400   -1.2260   -2.2270 H   0  0  0  0  0  0  0  0  0  0  0  0
   -2.5180   -0.1080   -2.5430 H   0  0  0  0  0  0  0  0  0  0  0  0
   -2.1900   -1.8160   -2.3180 H   0  0  0  0  0  0  0  0  0  0  0  0
    1.0480    1.6320    2.4120 H   0  0  0  0  0  0  0  0  0  0  0  0
    1.4750   -0.0710    2.3140 H   0  0  0  0  0  0  0  0  0  0  0  0
   -0.1570    0.4580    1.9460 H   0  0  0  0  0  0  0  0  0  0  0  0
    0.3700    0.8980   -2.4540 H   0  0  0  0  0  0  0  0  0  0  0  0
   -0.0600    2.5960   -2.4200 H   0  0  0  0  0  0  0  0  0  0  0  0
    1.6150    2.1170   -2.1650 H   0  0  0  0  0  0  0  0  0  0  0  0
  1 32  1  0
  1  2  1  0
  1 34  1  0
  1 33  1  0
  2  9  1  0
  2  3  1  0
  2 35  1  1
  3  4  1  0
  3 37  1  0
  3 36  1  0
  4 39  1  0
  4  5  1  0
  4 38  1  0
  5 40  1  0
  5  6  2  0
  6  8  1  0
  6  7  1  0
  7 41  1  0
  7 43  1  0
  7 42  1  0
  8 46  1  0
  8 44  1  0
  8 45  1  0
  9 47  1  6
  9 13  1  0
  9 10  1  0
 10 48  1  0
 10 11  1  0
 10 49  1  0
 11 51  1  0
 11 12  1  0
 11 50  1  0
 12 31  1  6
 12 17  1  0
 12 13  1  0
 13 14  1  0
 13 30  1  1
 14 52  1  0
 14 15  1  0
 14 53  1  0
 15 55  1  0
 15 16  1  0
 15 54  1  0
 16 21  1  0
 16 17  2  0
 17 18  1  0
 18 56  1  0
 18 19  1  0
 18 57  1  0
 19 58  1  0
 19 59  1  0
 19 20  1  0
 20 21  1  0
 20 25  1  0
 20 60  1  1
 21 29  1  6
 21 22  1  0
 22 61  1  0
 22 23  1  0
 22 62  1  0
 23 64  1  0
 23 63  1  0
 23 24  1  0
 24 25  1  0
 24 28  1  0
 24 65  1  1
 25 26  1  6
 25 27  1  0
 26 66  1  0
 26 68  1  0
 26 67  1  0
 27 70  1  0
 27 71  1  0
 27 69  1  0
 28 72  1  0
 29 74  1  0
 29 75  1  0
 29 73  1  0
 30 78  1  0
 30 77  1  0
 30 76  1  0
 31 79  1  0
 31 80  1  0
 31 81  1  0
M  END
>  <id>  (890) 
1006

>  <scaffolds>  (890) 
['C1=CC2CCCCC2CC1', 'C1=CCCCC1', 'C1CCCCC1', 'C1CCC2C3=C(CCC2C1)C1CCCC1CC3']

>  <name>  (890) 
Euphol

>  <formula>  (890) 
C30H50O

>  <SMILES>  (890) 
C[C@H](CCC=C(C)C)[C@@H]1CC[C@]2([C@]1(CCC3=C2CC[C@@H]4[C@@]3(CC[C@@H](C4(C)C)O)C)C)C

>  <ChEMBL_id>  (890) 
CHEMBL465181

>  <ZINC_id>  (890) 
ZINC4097719

>  <PubChem_id>  (890) 
441678

>  <DrugBank_id>  (890) 


>  <CAS_no>  (890) 
514-47-6

>  <references>  (890) 
[{'journal': {'name': 'Journal of Ethnopharmacology', 'id': 7}, 'title': 'Non-toxic melanin production inhibitors from Garcinia livingstonei (Clusiaceae)', 'year': 2013, 'start_page': None, 'volume': None, 'issue': None, 'doi': '10.1016/j.jep.2013.07.023', 'isbn': '', 'despositor': {'code': 'BND', 'first_name': "Bakary N'tji", 'last_name': 'Diallo', 'id': 26}, 'refauthors_set': [{'author': {'first_name': 'Mulholland', 'initials': 'MD', 'last_name': 'Dulcie', 'id': 1040}, 'first_author': True, 'id': 1621}], 'id': 523}]

>  <classifications>  (890) 
[{'classification': 'Triterpene', 'id': 842}, {'classification': 'Phenol lipids (Classyfire)', 'id': 951}]

>  <molecular_mass>  (890) 
426.7

$$$$
SANC01007_minRM1.pdb
     RDKit          3D

 78 81  0  0  1  0  0  0  0  0999 V2000
   -5.5610    3.4520    0.6350 C   0  0  0  0  0  0  0  0  0  0  0  0
   -4.8630    2.2140    0.0980 C   0  0  0  0  0  0  0  0  0  0  0  0
   -5.3850    0.9220    0.7390 C   0  0  2  0  0  0  0  0  0  0  0  0
   -4.6010   -0.2130    0.1530 C   0  0  0  0  0  0  0  0  0  0  0  0
   -3.5450   -0.7360    0.7730 C   0  0  0  0  0  0  0  0  0  0  0  0
   -2.7270   -1.8700    0.2400 C   0  0  1  0  0  0  0  0  0  0  0  0
   -3.6300   -2.8770   -0.4780 C   0  0  0  0  0  0  0  0  0  0  0  0
   -1.5780   -1.4610   -0.6910 C   0  0  1  0  0  0  0  0  0  0  0  0
   -1.8880   -0.3220   -1.6810 C   0  0  0  0  0  0  0  0  0  0  0  0
   -0.5660    0.4330   -1.9200 C   0  0  0  0  0  0  0  0  0  0  0  0
    0.4840   -0.4120   -1.2050 C   0  0  2  0  0  0  0  0  0  0  0  0
   -0.2860   -0.9800    0.0030 C   0  0  2  0  0  0  0  0  0  0  0  0
    0.5830   -2.0710    0.6190 C   0  0  0  0  0  0  0  0  0  0  0  0
    1.9290   -1.4860    1.0510 C   0  0  0  0  0  0  0  0  0  0  0  0
    2.6610   -0.7780   -0.0940 C   0  0  1  0  0  0  0  0  0  0  0  0
    1.7630    0.2800   -0.7570 C   0  0  1  0  0  0  0  0  0  0  0  0
    2.4570    0.9300   -1.9530 C   0  0  0  0  0  0  0  0  0  0  0  0
    3.9330    1.0290   -1.8170 C   0  0  0  0  0  0  0  0  0  0  0  0
    4.6330    0.5200   -0.8010 C   0  0  0  0  0  0  0  0  0  0  0  0
    3.9650   -0.1020    0.3880 C   0  0  2  0  0  0  0  0  0  0  0  0
    4.9120   -1.1480    0.9840 C   0  0  0  0  0  0  0  0  0  0  0  0
    6.2020   -0.5120    1.4830 C   0  0  0  0  0  0  0  0  0  0  0  0
    6.8370    0.4560    0.4690 C   0  0  1  0  0  0  0  0  0  0  0  0
    6.1210    0.4540   -0.8870 C   0  0  0  0  0  0  0  0  0  0  0  0
    6.9340    1.7490    0.9780 O   0  0  0  0  0  0  0  0  0  0  0  0
    3.6600    0.9830    1.4230 C   0  0  0  0  0  0  0  0  0  0  0  0
   -0.6040    0.0910    1.0390 C   0  0  0  0  0  0  0  0  0  0  0  0
   -6.8930    0.7090    0.5330 C   0  0  1  0  0  0  0  0  0  0  0  0
   -7.2950    0.7440   -0.9350 C   0  0  0  0  0  0  0  0  0  0  0  0
   -7.3070   -0.6270    1.1460 C   0  0  0  0  0  0  0  0  0  0  0  0
   -5.6030    3.4680    1.7340 H   0  0  0  0  0  0  0  0  0  0  0  0
   -5.0440    4.3730    0.3270 H   0  0  0  0  0  0  0  0  0  0  0  0
   -6.5950    3.5480    0.2750 H   0  0  0  0  0  0  0  0  0  0  0  0
   -4.9410    2.1730   -1.0080 H   0  0  0  0  0  0  0  0  0  0  0  0
   -3.7680    2.2900    0.2860 H   0  0  0  0  0  0  0  0  0  0  0  0
   -5.2060    0.9860    1.8460 H   0  0  0  0  0  0  0  0  0  0  0  0
   -4.9390   -0.5560   -0.8310 H   0  0  0  0  0  0  0  0  0  0  0  0
   -3.2490   -0.3700    1.7630 H   0  0  0  0  0  0  0  0  0  0  0  0
   -2.2740   -2.3980    1.1230 H   0  0  0  0  0  0  0  0  0  0  0  0
   -3.9260   -2.5420   -1.4820 H   0  0  0  0  0  0  0  0  0  0  0  0
   -3.1380   -3.8520   -0.6110 H   0  0  0  0  0  0  0  0  0  0  0  0
   -4.5560   -3.0720    0.0820 H   0  0  0  0  0  0  0  0  0  0  0  0
   -1.3130   -2.3770   -1.2870 H   0  0  0  0  0  0  0  0  0  0  0  0
   -2.6660    0.3750   -1.3140 H   0  0  0  0  0  0  0  0  0  0  0  0
   -2.3090   -0.7220   -2.6240 H   0  0  0  0  0  0  0  0  0  0  0  0
   -0.3430    0.5610   -2.9970 H   0  0  0  0  0  0  0  0  0  0  0  0
   -0.6020    1.4670   -1.5250 H   0  0  0  0  0  0  0  0  0  0  0  0
    0.7690   -1.2540   -1.8930 H   0  0  0  0  0  0  0  0  0  0  0  0
    0.0790   -2.5480    1.4860 H   0  0  0  0  0  0  0  0  0  0  0  0
    0.7380   -2.9080   -0.0950 H   0  0  0  0  0  0  0  0  0  0  0  0
    2.5680   -2.3020    1.4560 H   0  0  0  0  0  0  0  0  0  0  0  0
    1.7830   -0.8110    1.9190 H   0  0  0  0  0  0  0  0  0  0  0  0
    2.9350   -1.5490   -0.8620 H   0  0  0  0  0  0  0  0  0  0  0  0
    1.5230    1.0790   -0.0020 H   0  0  0  0  0  0  0  0  0  0  0  0
    2.2530    0.3650   -2.8910 H   0  0  0  0  0  0  0  0  0  0  0  0
    2.0220    1.9350   -2.1420 H   0  0  0  0  0  0  0  0  0  0  0  0
    4.4350    1.5160   -2.6610 H   0  0  0  0  0  0  0  0  0  0  0  0
    4.4230   -1.7020    1.8150 H   0  0  0  0  0  0  0  0  0  0  0  0
    5.1350   -1.9330    0.2300 H   0  0  0  0  0  0  0  0  0  0  0  0
    6.0340   -0.0070    2.4600 H   0  0  0  0  0  0  0  0  0  0  0  0
    6.9300   -1.3130    1.7360 H   0  0  0  0  0  0  0  0  0  0  0  0
    7.9190    0.1910    0.3170 H   0  0  0  0  0  0  0  0  0  0  0  0
    6.5290    1.2770   -1.5140 H   0  0  0  0  0  0  0  0  0  0  0  0
    6.3870   -0.4750   -1.4390 H   0  0  0  0  0  0  0  0  0  0  0  0
    6.0410    2.1020    1.0840 H   0  0  0  0  0  0  0  0  0  0  0  0
    4.4570    1.7380    1.5010 H   0  0  0  0  0  0  0  0  0  0  0  0
    2.7450    1.5490    1.1850 H   0  0  0  0  0  0  0  0  0  0  0  0
    3.5260    0.5770    2.4360 H   0  0  0  0  0  0  0  0  0  0  0  0
   -1.4010    0.7790    0.7230 H   0  0  0  0  0  0  0  0  0  0  0  0
    0.2590    0.7420    1.2590 H   0  0  0  0  0  0  0  0  0  0  0  0
   -0.9160   -0.3440    1.9990 H   0  0  0  0  0  0  0  0  0  0  0  0
   -7.4440    1.5230    1.0740 H   0  0  0  0  0  0  0  0  0  0  0  0
   -6.6980    0.0580   -1.5540 H   0  0  0  0  0  0  0  0  0  0  0  0
   -8.3480    0.4550   -1.0770 H   0  0  0  0  0  0  0  0  0  0  0  0
   -7.1950    1.7440   -1.3780 H   0  0  0  0  0  0  0  0  0  0  0  0
   -7.0100   -0.7100    2.2020 H   0  0  0  0  0  0  0  0  0  0  0  0
   -8.3970   -0.7720    1.1170 H   0  0  0  0  0  0  0  0  0  0  0  0
   -6.8620   -1.4880    0.6260 H   0  0  0  0  0  0  0  0  0  0  0  0
  1  2  1  0
  1 33  1  0
  1 32  1  0
  1 31  1  0
  2 34  1  0
  2 35  1  0
  2  3  1  0
  3  4  1  0
  3 28  1  0
  3 36  1  1
  4 37  1  0
  4  5  2  0
  5  6  1  0
  5 38  1  0
  6  8  1  0
  6  7  1  0
  6 39  1  1
  7 40  1  0
  7 41  1  0
  7 42  1  0
  8  9  1  0
  8 43  1  6
  8 12  1  0
  9 45  1  0
  9 10  1  0
  9 44  1  0
 10 46  1  0
 10 47  1  0
 10 11  1  0
 11 48  1  6
 11 16  1  0
 11 12  1  0
 12 13  1  0
 12 27  1  1
 13 50  1  0
 13 14  1  0
 13 49  1  0
 14 15  1  0
 14 51  1  0
 14 52  1  0
 15 53  1  6
 15 16  1  0
 15 20  1  0
 16 17  1  0
 16 54  1  1
 17 55  1  0
 17 56  1  0
 17 18  1  0
 18 57  1  0
 18 19  2  0
 19 24  1  0
 19 20  1  0
 20 21  1  0
 20 26  1  1
 21 59  1  0
 21 22  1  0
 21 58  1  0
 22 23  1  0
 22 61  1  0
 22 60  1  0
 23 24  1  0
 23 62  1  6
 23 25  1  0
 24 63  1  0
 24 64  1  0
 25 65  1  0
 26 67  1  0
 26 66  1  0
 26 68  1  0
 27 69  1  0
 27 70  1  0
 27 71  1  0
 28 29  1  0
 28 72  1  1
 28 30  1  0
 29 73  1  0
 29 75  1  0
 29 74  1  0
 30 78  1  0
 30 77  1  0
 30 76  1  0
M  END
>  <id>  (891) 
1007

>  <scaffolds>  (891) 
['C1=C2CCCCC2C2CCC3CCCC3C2C1', 'C1=CCCCC1', 'C1=CCC2CCCCC2C1', 'C1CCCCC1', 'C1=C2CCCCC2CCC1']

>  <name>  (891) 
Stigmasterol

>  <formula>  (891) 
C29H48O

>  <SMILES>  (891) 
CC[C@H](/C=C/[C@@H](C)[C@H]1CC[C@@H]2[C@@]1(CC[C@H]3[C@H]2CC=C4[C@@]3(CC[C@@H](C4)O)C)C)C(C)C

>  <ChEMBL_id>  (891) 
CHEMBL400247

>  <ZINC_id>  (891) 
ZINC4096712

>  <PubChem_id>  (891) 
5280794

>  <DrugBank_id>  (891) 


>  <CAS_no>  (891) 
83-48-7

>  <references>  (891) 
[{'journal': {'name': 'Journal of Ethnopharmacology', 'id': 7}, 'title': 'Non-toxic melanin production inhibitors from Garcinia livingstonei (Clusiaceae)', 'year': 2013, 'start_page': None, 'volume': None, 'issue': None, 'doi': '10.1016/j.jep.2013.07.023', 'isbn': '', 'despositor': {'code': 'BND', 'first_name': "Bakary N'tji", 'last_name': 'Diallo', 'id': 26}, 'refauthors_set': [{'author': {'first_name': 'Mulholland', 'initials': 'MD', 'last_name': 'Dulcie', 'id': 1040}, 'first_author': True, 'id': 1621}], 'id': 523}]

>  <classifications>  (891) 
[{'classification': 'Steroids and steroid derivatives', 'id': 929}, {'classification': 'Steroids and steroid derivatives (Classyfire)', 'id': 942}]

>  <molecular_mass>  (891) 
412.7

$$$$
SANC01008_minRM1.pdb
     RDKit          3D

 49 52  0  0  1  0  0  0  0  0999 V2000
    0.1790    3.0410    1.0450 C   0  0  0  0  0  0  0  0  0  0  0  0
    1.1000    4.0810    1.1320 C   0  0  0  0  0  0  0  0  0  0  0  0
    2.0880    4.2030    0.1610 C   0  0  0  0  0  0  0  0  0  0  0  0
    2.1530    3.2800   -0.9050 C   0  0  0  0  0  0  0  0  0  0  0  0
    1.2300    2.2460   -0.9930 C   0  0  0  0  0  0  0  0  0  0  0  0
    0.2500    2.1330   -0.0040 C   0  0  0  0  0  0  0  0  0  0  0  0
   -0.7160    1.0420   -0.1010 C   0  0  0  0  0  0  0  0  0  0  0  0
   -0.4500   -0.2560   -0.3620 C   0  0  0  0  0  0  0  0  0  0  0  0
   -1.5110   -1.2710   -0.4790 C   0  0  0  0  0  0  0  0  0  0  0  0
   -1.2740   -2.4380   -0.7290 O   0  0  0  0  0  0  0  0  0  0  0  0
   -2.8460   -0.7310   -0.2570 C   0  0  0  0  0  0  0  0  0  0  0  0
   -4.0000   -1.5310   -0.3300 C   0  0  0  0  0  0  0  0  0  0  0  0
   -5.2730   -1.0060   -0.1010 C   0  0  0  0  0  0  0  0  0  0  0  0
   -5.3780    0.3550    0.2040 C   0  0  0  0  0  0  0  0  0  0  0  0
   -4.2670    1.1960    0.2830 C   0  0  0  0  0  0  0  0  0  0  0  0
   -3.0190    0.6220    0.0450 C   0  0  0  0  0  0  0  0  0  0  0  0
   -1.9800    1.5000    0.1420 O   0  0  0  0  0  0  0  0  0  0  0  0
   -6.5630    0.9530    0.4450 O   0  0  0  0  0  0  0  0  0  0  0  0
   -3.7940   -2.8240   -0.6310 O   0  0  0  0  0  0  0  0  0  0  0  0
    0.7990   -0.6960   -0.6890 O   0  0  0  0  0  0  0  0  0  0  0  0
    1.7020   -0.6990    0.4050 C   0  0  1  0  0  0  0  0  0  0  0  0
    1.4690   -1.9540    1.2900 C   0  0  1  0  0  0  0  0  0  0  0  0
    2.3110   -3.0470    0.5700 C   0  0  2  0  0  0  0  0  0  0  0  0
    3.2120   -2.2440   -0.4110 C   0  0  1  0  0  0  0  0  0  0  0  0
    2.9350   -0.8670   -0.2290 O   0  0  0  0  0  0  0  0  0  0  0  0
    4.7140   -2.4000   -0.0900 C   0  0  0  0  0  0  0  0  0  0  0  0
    4.9880   -3.7550   -0.2990 O   0  0  0  0  0  0  0  0  0  0  0  0
    1.5210   -3.9780   -0.0760 O   0  0  0  0  0  0  0  0  0  0  0  0
    1.8830   -1.7180    2.5910 O   0  0  0  0  0  0  0  0  0  0  0  0
    3.1390    3.5000   -1.8070 O   0  0  0  0  0  0  0  0  0  0  0  0
    3.0340    5.1680    0.1550 O   0  0  0  0  0  0  0  0  0  0  0  0
   -0.5980    2.9460    1.8110 H   0  0  0  0  0  0  0  0  0  0  0  0
    1.0360    4.7900    1.9620 H   0  0  0  0  0  0  0  0  0  0  0  0
    1.2640    1.5320   -1.8230 H   0  0  0  0  0  0  0  0  0  0  0  0
   -6.1600   -1.6400   -0.1580 H   0  0  0  0  0  0  0  0  0  0  0  0
   -4.3750    2.2580    0.5180 H   0  0  0  0  0  0  0  0  0  0  0  0
   -7.2740    0.3050    0.3710 H   0  0  0  0  0  0  0  0  0  0  0  0
   -4.6400   -3.2910   -0.6530 H   0  0  0  0  0  0  0  0  0  0  0  0
    1.7440    0.2740    0.9590 H   0  0  0  0  0  0  0  0  0  0  0  0
    0.3910   -2.2290    1.3980 H   0  0  0  0  0  0  0  0  0  0  0  0
    2.9020   -3.6750    1.2840 H   0  0  0  0  0  0  0  0  0  0  0  0
    3.0160   -2.5130   -1.4800 H   0  0  0  0  0  0  0  0  0  0  0  0
    4.9400   -2.0950    0.9590 H   0  0  0  0  0  0  0  0  0  0  0  0
    5.3210   -1.7270   -0.7390 H   0  0  0  0  0  0  0  0  0  0  0  0
    5.9440   -3.8500   -0.3360 H   0  0  0  0  0  0  0  0  0  0  0  0
    0.9360   -3.5240   -0.6970 H   0  0  0  0  0  0  0  0  0  0  0  0
    2.8300   -1.5380    2.5820 H   0  0  0  0  0  0  0  0  0  0  0  0
    3.1910    2.7330   -2.3900 H   0  0  0  0  0  0  0  0  0  0  0  0
    2.8660    5.7650    0.8940 H   0  0  0  0  0  0  0  0  0  0  0  0
  1  6  2  0
  1  2  1  0
  1 32  1  0
  2  3  2  0
  2 33  1  0
  3  4  1  0
  3 31  1  0
  4 30  1  0
  4  5  2  0
  5 34  1  0
  5  6  1  0
  6  7  1  0
  7  8  2  0
  7 17  1  0
  8 20  1  0
  8  9  1  0
  9 10  2  0
  9 11  1  0
 11 12  2  0
 11 16  1  0
 12 19  1  0
 12 13  1  0
 13 35  1  0
 13 14  2  0
 14 15  1  0
 14 18  1  0
 15 16  2  0
 15 36  1  0
 16 17  1  0
 18 37  1  0
 19 38  1  0
 20 21  1  0
 21 25  1  0
 21 39  1  1
 21 22  1  0
 22 23  1  0
 22 40  1  1
 22 29  1  0
 23 24  1  0
 23 28  1  0
 23 41  1  1
 24 42  1  6
 24 25  1  0
 24 26  1  0
 26 44  1  0
 26 27  1  0
 26 43  1  0
 27 45  1  0
 28 46  1  0
 29 47  1  0
 30 48  1  0
 31 49  1  0
M  END
>  <id>  (892) 
1008

>  <scaffolds>  (892) 
['c1ccccc1', 'O=c1cc(-c2ccccc2)oc2ccccc12', 'O=c1ccoc2ccccc12', 'O=c1c(OC2CCCO2)c(-c2ccccc2)oc2ccccc12']

>  <name>  (892) 
Avicularin

>  <formula>  (892) 
C20H18O11

>  <SMILES>  (892) 
C1=CC(=C(C=C1C2=C(C(=O)C3=C(C=C(C=C3O2)O)O)O[C@H]4[C@@H]([C@H]([C@@H](O4)CO)O)O)O)O

>  <ChEMBL_id>  (892) 
CHEMBL471282

>  <ZINC_id>  (892) 
ZINC28540146

>  <PubChem_id>  (892) 
5490064

>  <DrugBank_id>  (892) 


>  <CAS_no>  (892) 
572-30-5

>  <references>  (892) 
[{'journal': {'name': 'Journal of Ethnopharmacology', 'id': 7}, 'title': 'Isolation and characterization of antimicrobial constituents of Searsia chirindensis L. (Anacardiaceae) leaf extracts', 'year': 2013, 'start_page': None, 'volume': None, 'issue': None, 'doi': '10.1016/j.jep.2013.09.016', 'isbn': '', 'despositor': {'code': 'BND', 'first_name': "Bakary N'tji", 'last_name': 'Diallo', 'id': 26}, 'refauthors_set': [{'author': {'first_name': 'Balungile ', 'initials': 'BM', 'last_name': 'Madikizela', 'id': 1041}, 'first_author': True, 'id': 1622}], 'id': 524}]

>  <classifications>  (892) 
[{'classification': 'Flavonoids', 'id': 776}, {'classification': 'Flavonoids (Classyfire)', 'id': 941}]

>  <molecular_mass>  (892) 
434.3

$$$$
SANC01009_minRM1.pdb
     RDKit          3D

 21 21  0  0  0  0  0  0  0  0999 V2000
   -4.2640   -0.5350    0.1590 C   0  0  0  0  0  0  0  0  0  0  0  0
   -2.8620   -0.6660    0.2280 O   0  0  0  0  0  0  0  0  0  0  0  0
   -2.1200    0.3810   -0.2180 C   0  0  0  0  0  0  0  0  0  0  0  0
   -2.6730    1.3820   -0.6430 O   0  0  0  0  0  0  0  0  0  0  0  0
   -0.6680    0.1600   -0.1100 C   0  0  0  0  0  0  0  0  0  0  0  0
   -0.1320   -1.1230   -0.0780 C   0  0  0  0  0  0  0  0  0  0  0  0
    1.2500   -1.2760    0.0120 C   0  0  0  0  0  0  0  0  0  0  0  0
    2.0980   -0.1550    0.0770 C   0  0  0  0  0  0  0  0  0  0  0  0
    1.5240    1.1220    0.0420 C   0  0  0  0  0  0  0  0  0  0  0  0
    0.1430    1.2890   -0.0570 C   0  0  0  0  0  0  0  0  0  0  0  0
    2.3990    2.1580    0.1190 O   0  0  0  0  0  0  0  0  0  0  0  0
    3.4160   -0.4110    0.2210 O   0  0  0  0  0  0  0  0  0  0  0  0
    1.8770   -2.4750    0.0290 O   0  0  0  0  0  0  0  0  0  0  0  0
   -4.6420    0.3000    0.7700 H   0  0  0  0  0  0  0  0  0  0  0  0
   -4.6370   -1.4870    0.5650 H   0  0  0  0  0  0  0  0  0  0  0  0
   -4.6280   -0.4060   -0.8740 H   0  0  0  0  0  0  0  0  0  0  0  0
   -0.7850   -2.0010   -0.1260 H   0  0  0  0  0  0  0  0  0  0  0  0
   -0.3000    2.2900   -0.0920 H   0  0  0  0  0  0  0  0  0  0  0  0
    1.9260    2.9750   -0.0760 H   0  0  0  0  0  0  0  0  0  0  0  0
    3.9180    0.3740   -0.0310 H   0  0  0  0  0  0  0  0  0  0  0  0
    1.2080   -3.1680    0.0810 H   0  0  0  0  0  0  0  0  0  0  0  0
  1 16  1  0
  1  2  1  0
  1 15  1  0
  1 14  1  0
  2  3  1  0
  3  4  2  0
  3  5  1  0
  5  6  2  0
  5 10  1  0
  6 17  1  0
  6  7  1  0
  7 13  1  0
  7  8  2  0
  8  9  1  0
  8 12  1  0
  9 10  2  0
  9 11  1  0
 10 18  1  0
 11 19  1  0
 12 20  1  0
 13 21  1  0
M  END
>  <id>  (893) 
1009

>  <scaffolds>  (893) 
['c1ccccc1']

>  <name>  (893) 
Methyl gallate

>  <formula>  (893) 
C8H8O5

>  <SMILES>  (893) 
COC(=O)C1=CC(=C(C(=C1)O)O)O

>  <ChEMBL_id>  (893) 
SCHEMBL39513

>  <ZINC_id>  (893) 
ZINC21789

>  <PubChem_id>  (893) 
7428

>  <DrugBank_id>  (893) 
DB-057768

>  <CAS_no>  (893) 
99-24-1

>  <references>  (893) 
[{'journal': {'name': 'Journal of Ethnopharmacology', 'id': 7}, 'title': 'Isolation and characterization of antimicrobial constituents of Searsia chirindensis L. (Anacardiaceae) leaf extracts', 'year': 2013, 'start_page': None, 'volume': None, 'issue': None, 'doi': '10.1016/j.jep.2013.09.016', 'isbn': '', 'despositor': {'code': 'BND', 'first_name': "Bakary N'tji", 'last_name': 'Diallo', 'id': 26}, 'refauthors_set': [{'author': {'first_name': 'Balungile ', 'initials': 'BM', 'last_name': 'Madikizela', 'id': 1041}, 'first_author': True, 'id': 1622}], 'id': 524}]

>  <classifications>  (893) 
[{'classification': 'Hydroxybenzoates', 'id': 912}, {'classification': 'Benzene and substituted derivatives (Classyfire)', 'id': 961}]

>  <molecular_mass>  (893) 
184.15

$$$$
SANC01010_minRM1.pdb
     RDKit          3D

 34 34  0  0  0  0  0  0  0  0999 V2000
   -0.3450   -2.6540    0.4470 C   0  0  0  0  0  0  0  0  0  0  0  0
   -1.1460   -1.4190    0.2230 C   0  0  0  0  0  0  0  0  0  0  0  0
   -0.5820   -0.2090    0.2840 C   0  0  0  0  0  0  0  0  0  0  0  0
   -1.3220    1.0770    0.0720 C   0  0  0  0  0  0  0  0  0  0  0  0
   -2.8380    0.8480    0.1250 C   0  0  0  0  0  0  0  0  0  0  0  0
   -3.2350   -0.3850   -0.6710 C   0  0  0  0  0  0  0  0  0  0  0  0
   -2.5950   -1.6210   -0.0530 C   0  0  0  0  0  0  0  0  0  0  0  0
   -0.9480    2.0840    1.1640 C   0  0  0  0  0  0  0  0  0  0  0  0
   -0.9160    1.6480   -1.2880 C   0  0  0  0  0  0  0  0  0  0  0  0
    0.8490   -0.0740    0.5650 C   0  0  0  0  0  0  0  0  0  0  0  0
    1.7620   -0.2130   -0.3940 C   0  0  0  0  0  0  0  0  0  0  0  0
    3.2090   -0.0950   -0.1330 C   0  0  0  0  0  0  0  0  0  0  0  0
    4.0200   -0.7510   -0.7650 O   0  0  0  0  0  0  0  0  0  0  0  0
    3.6410    0.8720    0.9300 C   0  0  0  0  0  0  0  0  0  0  0  0
    0.3000   -2.8680   -0.4190 H   0  0  0  0  0  0  0  0  0  0  0  0
   -0.9620   -3.5490    0.6130 H   0  0  0  0  0  0  0  0  0  0  0  0
    0.3170   -2.5710    1.3230 H   0  0  0  0  0  0  0  0  0  0  0  0
   -3.1760    0.7370    1.1780 H   0  0  0  0  0  0  0  0  0  0  0  0
   -3.3800    1.7440   -0.2450 H   0  0  0  0  0  0  0  0  0  0  0  0
   -4.3400   -0.4950   -0.6970 H   0  0  0  0  0  0  0  0  0  0  0  0
   -2.9470   -0.2860   -1.7380 H   0  0  0  0  0  0  0  0  0  0  0  0
   -3.1040   -1.8950    0.8980 H   0  0  0  0  0  0  0  0  0  0  0  0
   -2.7480   -2.5000   -0.7160 H   0  0  0  0  0  0  0  0  0  0  0  0
    0.0980    2.4160    1.0960 H   0  0  0  0  0  0  0  0  0  0  0  0
   -1.5640    2.9930    1.1080 H   0  0  0  0  0  0  0  0  0  0  0  0
   -1.0820    1.6690    2.1740 H   0  0  0  0  0  0  0  0  0  0  0  0
    0.1620    1.8620   -1.3420 H   0  0  0  0  0  0  0  0  0  0  0  0
   -1.1320    0.9590   -2.1170 H   0  0  0  0  0  0  0  0  0  0  0  0
   -1.4350    2.5910   -1.5130 H   0  0  0  0  0  0  0  0  0  0  0  0
    1.1020    0.1310    1.6120 H   0  0  0  0  0  0  0  0  0  0  0  0
    1.4850   -0.4440   -1.4290 H   0  0  0  0  0  0  0  0  0  0  0  0
    3.0470    1.7960    0.9140 H   0  0  0  0  0  0  0  0  0  0  0  0
    4.6970    1.1640    0.8270 H   0  0  0  0  0  0  0  0  0  0  0  0
    3.5330    0.4280    1.9310 H   0  0  0  0  0  0  0  0  0  0  0  0
  1 15  1  0
  1  2  1  0
  1 16  1  0
  1 17  1  0
  2  7  1  0
  2  3  2  0
  3  4  1  0
  3 10  1  0
  4  9  1  0
  4  5  1  0
  4  8  1  0
  5  6  1  0
  5 19  1  0
  5 18  1  0
  6 21  1  0
  6 20  1  0
  6  7  1  0
  7 23  1  0
  7 22  1  0
  8 24  1  0
  8 25  1  0
  8 26  1  0
  9 28  1  0
  9 29  1  0
  9 27  1  0
 10 11  2  0
 10 30  1  0
 11 31  1  0
 11 12  1  0
 12 13  2  0
 12 14  1  0
 14 33  1  0
 14 32  1  0
 14 34  1  0
M  END
>  <id>  (894) 
1010

>  <scaffolds>  (894) 
['C1=CCCCC1']

>  <name>  (894) 
[beta]-ionone

>  <formula>  (894) 
C13H20O

>  <SMILES>  (894) 
CC1=C(C(CCC1)(C)C)/C=C/C(=O)C

>  <ChEMBL_id>  (894) 
CHEMBL559945

>  <ZINC_id>  (894) 
ZINC3881456

>  <PubChem_id>  (894) 
638014

>  <DrugBank_id>  (894) 


>  <CAS_no>  (894) 
79-77-6

>  <references>  (894) 
[{'journal': {'name': 'Journal of Ethnopharmacology', 'id': 7}, 'title': 'Lawsonia inermis L. (henna): Ethnobotanical, phytochemical and pharmacological aspects', 'year': 2014, 'start_page': None, 'volume': None, 'issue': None, 'doi': '10.1016/j.jep.2014.05.042', 'isbn': '', 'despositor': {'code': 'BND', 'first_name': "Bakary N'tji", 'last_name': 'Diallo', 'id': 26}, 'refauthors_set': [{'author': {'first_name': 'Ruchi Badoni ', 'initials': 'RBS', 'last_name': 'Semwal', 'id': 1042}, 'first_author': True, 'id': 1623}], 'id': 525}]

>  <classifications>  (894) 
[{'classification': 'Norisoprenoids', 'id': 917}, {'classification': 'Phenol lipids (Classyfire)', 'id': 951}]

>  <molecular_mass>  (894) 
192.3

$$$$
SANC01011_minRM1.pdb
     RDKit          3D

 19 20  0  0  0  0  0  0  0  0999 V2000
    3.0680    0.0290    0.1230 C   0  0  0  0  0  0  0  0  0  0  0  0
    2.7300   -1.3170    0.0750 C   0  0  0  0  0  0  0  0  0  0  0  0
    1.3960   -1.6980   -0.0310 C   0  0  0  0  0  0  0  0  0  0  0  0
    0.4030   -0.7260   -0.0800 C   0  0  0  0  0  0  0  0  0  0  0  0
    0.7390    0.6280   -0.0340 C   0  0  0  0  0  0  0  0  0  0  0  0
    2.0760    1.0000    0.0660 C   0  0  0  0  0  0  0  0  0  0  0  0
   -0.3340    1.6230   -0.0840 C   0  0  0  0  0  0  0  0  0  0  0  0
   -1.6370    1.3010    0.0420 C   0  0  0  0  0  0  0  0  0  0  0  0
   -2.0320   -0.0920    0.2200 C   0  0  0  0  0  0  0  0  0  0  0  0
   -3.1090   -0.4330    0.6660 O   0  0  0  0  0  0  0  0  0  0  0  0
   -1.0120   -1.1280   -0.1930 C   0  0  0  0  0  0  0  0  0  0  0  0
   -1.3520   -2.2180   -0.6060 O   0  0  0  0  0  0  0  0  0  0  0  0
   -0.0580    2.9370   -0.2490 O   0  0  0  0  0  0  0  0  0  0  0  0
    4.1180    0.3280    0.2060 H   0  0  0  0  0  0  0  0  0  0  0  0
    3.5130   -2.0810    0.1190 H   0  0  0  0  0  0  0  0  0  0  0  0
    1.1290   -2.7600   -0.0750 H   0  0  0  0  0  0  0  0  0  0  0  0
    2.3550    2.0610    0.1030 H   0  0  0  0  0  0  0  0  0  0  0  0
   -2.4310    2.0550    0.0350 H   0  0  0  0  0  0  0  0  0  0  0  0
    0.9000    3.0630   -0.3050 H   0  0  0  0  0  0  0  0  0  0  0  0
  1  6  2  0
  1  2  1  0
  1 14  1  0
  2  3  2  0
  2 15  1  0
  3  4  1  0
  3 16  1  0
  4 11  1  0
  4  5  2  0
  5  7  1  0
  5  6  1  0
  6 17  1  0
  7 13  1  0
  7  8  2  0
  8 18  1  0
  8  9  1  0
  9 11  1  0
  9 10  2  0
 11 12  2  0
 13 19  1  0
M  END
>  <id>  (895) 
1011

>  <scaffolds>  (895) 
['c1ccccc1']

>  <name>  (895) 
2-Hydroxy-1,4-naphthalenedione

>  <formula>  (895) 
C10H6O3

>  <SMILES>  (895) 
C1=CC=C2C(=C1)C(=CC(=O)C2=O)O

>  <ChEMBL_id>  (895) 
CHEMBL240963

>  <ZINC_id>  (895) 
ZINC100034686

>  <PubChem_id>  (895) 
6755

>  <DrugBank_id>  (895) 


>  <CAS_no>  (895) 
83-72-7

>  <references>  (895) 
[{'journal': {'name': 'Journal of Ethnopharmacology', 'id': 7}, 'title': 'Lawsonia inermis L. (henna): Ethnobotanical, phytochemical and pharmacological aspects', 'year': 2014, 'start_page': None, 'volume': None, 'issue': None, 'doi': '10.1016/j.jep.2014.05.042', 'isbn': '', 'despositor': {'code': 'BND', 'first_name': "Bakary N'tji", 'last_name': 'Diallo', 'id': 26}, 'refauthors_set': [{'author': {'first_name': 'Ruchi Badoni ', 'initials': 'RBS', 'last_name': 'Semwal', 'id': 1042}, 'first_author': True, 'id': 1623}], 'id': 525}]

>  <classifications>  (895) 
[{'classification': 'Naphthalenes (Classyfire)', 'id': 983}]

>  <molecular_mass>  (895) 
174.15

$$$$
SANC01012_minRM1.pdb
     RDKit          3D

 19 20  0  0  0  0  0  0  0  0999 V2000
    2.7030   -0.6100    0.0010 C   0  0  0  0  0  0  0  0  0  0  0  0
    2.1590   -1.8310   -0.0010 C   0  0  0  0  0  0  0  0  0  0  0  0
    0.8200   -2.0800   -0.0020 O   0  0  0  0  0  0  0  0  0  0  0  0
   -0.0290   -1.0120   -0.0020 C   0  0  0  0  0  0  0  0  0  0  0  0
   -1.3810   -1.3550    0.0010 C   0  0  0  0  0  0  0  0  0  0  0  0
   -2.3020   -0.3070   -0.0000 C   0  0  0  0  0  0  0  0  0  0  0  0
   -1.9130    1.0370   -0.0040 C   0  0  0  0  0  0  0  0  0  0  0  0
   -0.5490    1.3240   -0.0020 C   0  0  0  0  0  0  0  0  0  0  0  0
    0.4250    0.3080   -0.0020 C   0  0  0  0  0  0  0  0  0  0  0  0
    1.8580    0.5910   -0.0010 C   0  0  0  0  0  0  0  0  0  0  0  0
    2.3300    1.7140    0.0000 O   0  0  0  0  0  0  0  0  0  0  0  0
   -0.0780    2.5830   -0.0020 O   0  0  0  0  0  0  0  0  0  0  0  0
   -3.6360   -0.5140    0.0020 O   0  0  0  0  0  0  0  0  0  0  0  0
    3.7870   -0.4690    0.0030 H   0  0  0  0  0  0  0  0  0  0  0  0
    2.6820   -2.7930   -0.0010 H   0  0  0  0  0  0  0  0  0  0  0  0
   -1.6880   -2.4030    0.0040 H   0  0  0  0  0  0  0  0  0  0  0  0
   -2.6720    1.8230   -0.0070 H   0  0  0  0  0  0  0  0  0  0  0  0
   -0.8200    3.2030    0.0100 H   0  0  0  0  0  0  0  0  0  0  0  0
   -3.8130   -1.4620    0.0030 H   0  0  0  0  0  0  0  0  0  0  0  0
  1  2  2  0
  1 10  1  0
  1 14  1  0
  2  3  1  0
  2 15  1  0
  3  4  1  0
  4  9  2  0
  4  5  1  0
  5  6  2  0
  5 16  1  0
  6  7  1  0
  6 13  1  0
  7 17  1  0
  7  8  2  0
  8  9  1  0
  8 12  1  0
  9 10  1  0
 10 11  2  0
 12 18  1  0
 13 19  1  0
M  END
>  <id>  (896) 
1012

>  <scaffolds>  (896) 
['c1ccccc1', 'O=c1ccoc2ccccc12']

>  <name>  (896) 
5,7-Dihydroxychromone

>  <formula>  (896) 
C9H6O4

>  <SMILES>  (896) 
C1=COC2=CC(=CC(=C2C1=O)O)O

>  <ChEMBL_id>  (896) 
SCHEMBL1860859

>  <ZINC_id>  (896) 
ZINC6119185

>  <PubChem_id>  (896) 
5281343

>  <DrugBank_id>  (896) 


>  <CAS_no>  (896) 
31721-94-5

>  <references>  (896) 
[{'journal': {'name': 'Journal of Ethnopharmacology', 'id': 7}, 'title': 'Identification and characterization of potential bioactive compounds from the leaves of Leucosidea sericea', 'year': 2018, 'start_page': None, 'volume': None, 'issue': None, 'doi': '10.1016/j.jep.2018.03.035', 'isbn': '', 'despositor': {'code': 'BND', 'first_name': "Bakary N'tji", 'last_name': 'Diallo', 'id': 26}, 'refauthors_set': [{'author': {'first_name': 'Pendota', 'initials': 'PS', 'last_name': 'Srinivasa', 'id': 1043}, 'first_author': True, 'id': 1624}], 'id': 526}]

>  <classifications>  (896) 
[{'classification': 'Benzopyrans (Classyfire)', 'id': 966}]

>  <molecular_mass>  (896) 
178.14

$$$$
SANC01014_minRM1.pdb
     RDKit          3D

 40 41  0  0  0  0  0  0  0  0999 V2000
    7.2470    0.6320    0.3000 C   0  0  0  0  0  0  0  0  0  0  0  0
    6.0960    1.3900    0.0290 O   0  0  0  0  0  0  0  0  0  0  0  0
    4.8900    0.7640    0.1530 C   0  0  0  0  0  0  0  0  0  0  0  0
    3.7990    1.5990   -0.1320 C   0  0  0  0  0  0  0  0  0  0  0  0
    2.5200    1.0830   -0.0420 C   0  0  0  0  0  0  0  0  0  0  0  0
    2.3150   -0.2470    0.3290 C   0  0  0  0  0  0  0  0  0  0  0  0
    3.4050   -1.0600    0.6050 C   0  0  0  0  0  0  0  0  0  0  0  0
    4.7030   -0.5640    0.5220 C   0  0  0  0  0  0  0  0  0  0  0  0
    0.9240   -0.7810    0.4100 C   0  0  0  0  0  0  0  0  0  0  0  0
    0.4280   -1.0940   -1.0010 C   0  0  0  0  0  0  0  0  0  0  0  0
   -0.9580   -1.6830   -0.9430 C   0  0  0  0  0  0  0  0  0  0  0  0
   -1.1980   -2.8160   -1.3080 O   0  0  0  0  0  0  0  0  0  0  0  0
   -2.0260   -0.7890   -0.4500 C   0  0  0  0  0  0  0  0  0  0  0  0
   -2.7040    0.0850   -1.2990 C   0  0  0  0  0  0  0  0  0  0  0  0
   -3.7130    0.9410   -0.8410 C   0  0  0  0  0  0  0  0  0  0  0  0
   -4.0490    0.8830    0.5070 C   0  0  0  0  0  0  0  0  0  0  0  0
   -3.4160    0.0020    1.3960 C   0  0  0  0  0  0  0  0  0  0  0  0
   -2.4150   -0.8230    0.8950 C   0  0  0  0  0  0  0  0  0  0  0  0
   -1.7350   -1.6930    1.6740 O   0  0  0  0  0  0  0  0  0  0  0  0
   -5.0020    1.6470    1.1020 O   0  0  0  0  0  0  0  0  0  0  0  0
   -5.7140    2.5530    0.2950 C   0  0  0  0  0  0  0  0  0  0  0  0
   -2.4320    0.1950   -2.6180 O   0  0  0  0  0  0  0  0  0  0  0  0
    7.3780   -0.2210   -0.3860 H   0  0  0  0  0  0  0  0  0  0  0  0
    7.2970    0.2710    1.3410 H   0  0  0  0  0  0  0  0  0  0  0  0
    8.0690    1.3450    0.1360 H   0  0  0  0  0  0  0  0  0  0  0  0
    3.9630    2.6410   -0.4220 H   0  0  0  0  0  0  0  0  0  0  0  0
    1.6610    1.7260   -0.2620 H   0  0  0  0  0  0  0  0  0  0  0  0
    3.2540   -2.1060    0.8920 H   0  0  0  0  0  0  0  0  0  0  0  0
    5.5350   -1.2330    0.7480 H   0  0  0  0  0  0  0  0  0  0  0  0
    0.8690   -1.6880    1.0490 H   0  0  0  0  0  0  0  0  0  0  0  0
    0.2550   -0.0490    0.9120 H   0  0  0  0  0  0  0  0  0  0  0  0
    0.4160   -0.1760   -1.6270 H   0  0  0  0  0  0  0  0  0  0  0  0
    1.1320   -1.7840   -1.5140 H   0  0  0  0  0  0  0  0  0  0  0  0
   -4.1980    1.6120   -1.5530 H   0  0  0  0  0  0  0  0  0  0  0  0
   -3.7150   -0.0240    2.4470 H   0  0  0  0  0  0  0  0  0  0  0  0
   -2.1280   -1.7060    2.5550 H   0  0  0  0  0  0  0  0  0  0  0  0
   -6.4110    3.0290    1.0020 H   0  0  0  0  0  0  0  0  0  0  0  0
   -5.0740    3.3320   -0.1500 H   0  0  0  0  0  0  0  0  0  0  0  0
   -6.2970    2.0610   -0.5010 H   0  0  0  0  0  0  0  0  0  0  0  0
   -1.8700   -0.5370   -2.9000 H   0  0  0  0  0  0  0  0  0  0  0  0
  1 23  1  0
  1  2  1  0
  1 25  1  0
  1 24  1  0
  2  3  1  0
  3  4  2  0
  3  8  1  0
  4 26  1  0
  4  5  1  0
  5 27  1  0
  5  6  2  0
  6  9  1  0
  6  7  1  0
  7  8  2  0
  7 28  1  0
  8 29  1  0
  9 10  1  0
  9 31  1  0
  9 30  1  0
 10 32  1  0
 10 33  1  0
 10 11  1  0
 11 12  2  0
 11 13  1  0
 13 14  2  0
 13 18  1  0
 14 22  1  0
 14 15  1  0
 15 34  1  0
 15 16  2  0
 16 20  1  0
 16 17  1  0
 17 18  2  0
 17 35  1  0
 18 19  1  0
 19 36  1  0
 20 21  1  0
 21 39  1  0
 21 38  1  0
 21 37  1  0
 22 40  1  0
M  END
>  <id>  (897) 
1014

>  <scaffolds>  (897) 
['c1ccccc1', 'O=C(CCc1ccccc1)c1ccccc1']

>  <name>  (897) 
Calomelanone

>  <formula>  (897) 
C17H18O5

>  <SMILES>  (897) 
COC1=CC=C(C=C1)CCC(=O)C2=C(C=C(C=C2O)OC)O

>  <ChEMBL_id>  (897) 
CHEMBL3264622

>  <ZINC_id>  (897) 
ZINC2566148

>  <PubChem_id>  (897) 
3084606

>  <DrugBank_id>  (897) 


>  <CAS_no>  (897) 
35241-54-4

>  <references>  (897) 
[{'journal': {'name': 'Phytomedicine', 'id': 68}, 'title': 'Tyrosinase activity of Greyia flanaganii (Bolus) constituents', 'year': 2011, 'start_page': None, 'volume': None, 'issue': None, 'doi': '10.1016/j.phymed.2011.03.013', 'isbn': '', 'despositor': {'code': 'BND', 'first_name': "Bakary N'tji", 'last_name': 'Diallo', 'id': 26}, 'refauthors_set': [{'author': {'first_name': 'Manyatja Brenda ', 'initials': 'MBM', 'last_name': 'Mapunya', 'id': 1044}, 'first_author': True, 'id': 1625}], 'id': 527}]

>  <classifications>  (897) 
[{'classification': 'Linear 1,3-diarylpropanoids (Classyfire)', 'id': 943}]

>  <molecular_mass>  (897) 
302.32

$$$$
SANC01015_minRM1.pdb
     RDKit          3D

 36 37  0  0  0  0  0  0  0  0999 V2000
   -5.3570    0.8190    0.9960 C   0  0  0  0  0  0  0  0  0  0  0  0
   -4.2990    1.3710    0.2520 O   0  0  0  0  0  0  0  0  0  0  0  0
   -3.1940    0.6060    0.0500 C   0  0  0  0  0  0  0  0  0  0  0  0
   -2.2120    1.2490   -0.7100 C   0  0  0  0  0  0  0  0  0  0  0  0
   -1.0330    0.5550   -0.9780 C   0  0  0  0  0  0  0  0  0  0  0  0
   -0.8050   -0.7450   -0.5040 C   0  0  0  0  0  0  0  0  0  0  0  0
   -1.8220   -1.3430    0.2390 C   0  0  0  0  0  0  0  0  0  0  0  0
   -3.0240   -0.6880    0.5350 C   0  0  0  0  0  0  0  0  0  0  0  0
   -1.5870   -2.6090    0.6520 O   0  0  0  0  0  0  0  0  0  0  0  0
    0.4430   -1.4530   -0.8620 C   0  0  0  0  0  0  0  0  0  0  0  0
    0.7370   -1.6310   -2.0280 O   0  0  0  0  0  0  0  0  0  0  0  0
    1.3130   -1.9630    0.2590 C   0  0  0  0  0  0  0  0  0  0  0  0
    1.5370   -0.9160    1.3450 C   0  0  0  0  0  0  0  0  0  0  0  0
    2.5190    0.1170    0.8990 C   0  0  0  0  0  0  0  0  0  0  0  0
    2.1150    1.4210    0.6320 C   0  0  0  0  0  0  0  0  0  0  0  0
    3.0480    2.3700    0.2330 C   0  0  0  0  0  0  0  0  0  0  0  0
    4.3850    2.0220    0.0960 C   0  0  0  0  0  0  0  0  0  0  0  0
    4.7910    0.7200    0.3640 C   0  0  0  0  0  0  0  0  0  0  0  0
    3.8620   -0.2300    0.7660 C   0  0  0  0  0  0  0  0  0  0  0  0
   -0.0210    1.1020   -1.6820 O   0  0  0  0  0  0  0  0  0  0  0  0
   -5.0800    0.5820    2.0360 H   0  0  0  0  0  0  0  0  0  0  0  0
   -6.1080    1.6250    1.0050 H   0  0  0  0  0  0  0  0  0  0  0  0
   -5.8020   -0.0720    0.5230 H   0  0  0  0  0  0  0  0  0  0  0  0
   -2.3810    2.2630   -1.0810 H   0  0  0  0  0  0  0  0  0  0  0  0
   -3.7890   -1.1960    1.1220 H   0  0  0  0  0  0  0  0  0  0  0  0
   -2.3670   -2.9490    1.1050 H   0  0  0  0  0  0  0  0  0  0  0  0
    2.2840   -2.3250   -0.1450 H   0  0  0  0  0  0  0  0  0  0  0  0
    0.8440   -2.8760    0.6860 H   0  0  0  0  0  0  0  0  0  0  0  0
    1.9140   -1.4070    2.2700 H   0  0  0  0  0  0  0  0  0  0  0  0
    0.5730   -0.4610    1.6600 H   0  0  0  0  0  0  0  0  0  0  0  0
    1.0630    1.7040    0.7280 H   0  0  0  0  0  0  0  0  0  0  0  0
    2.7260    3.3950    0.0230 H   0  0  0  0  0  0  0  0  0  0  0  0
    5.1170    2.7690   -0.2210 H   0  0  0  0  0  0  0  0  0  0  0  0
    5.8430    0.4430    0.2560 H   0  0  0  0  0  0  0  0  0  0  0  0
    4.1910   -1.2510    0.9830 H   0  0  0  0  0  0  0  0  0  0  0  0
   -0.3090    1.9440   -2.0550 H   0  0  0  0  0  0  0  0  0  0  0  0
  1  2  1  0
  1 23  1  0
  1 22  1  0
  1 21  1  0
  2  3  1  0
  3  4  2  0
  3  8  1  0
  4 24  1  0
  4  5  1  0
  5 20  1  0
  5  6  2  0
  6 10  1  0
  6  7  1  0
  7  8  2  0
  7  9  1  0
  8 25  1  0
  9 26  1  0
 10 11  2  0
 10 12  1  0
 12 27  1  0
 12 28  1  0
 12 13  1  0
 13 14  1  0
 13 30  1  0
 13 29  1  0
 14 15  2  0
 14 19  1  0
 15 16  1  0
 15 31  1  0
 16 32  1  0
 16 17  2  0
 17 33  1  0
 17 18  1  0
 18 34  1  0
 18 19  2  0
 19 35  1  0
 20 36  1  0
M  END
>  <id>  (898) 
1015

>  <scaffolds>  (898) 
['c1ccccc1', 'O=C(CCc1ccccc1)c1ccccc1']

>  <name>  (898) 
2',6'-Dihydroxy-4'-methoxydihydrochalone

>  <formula>  (898) 
C16H16O4

>  <SMILES>  (898) 
COC1=CC(=C(C(=C1)O)C(=O)CCC2=CC=CC=C2)O

>  <ChEMBL_id>  (898) 
SCHEMBL4742840

>  <ZINC_id>  (898) 
ZINC898788

>  <PubChem_id>  (898) 
169676

>  <DrugBank_id>  (898) 


>  <CAS_no>  (898) 
35241-55-5

>  <references>  (898) 
[{'journal': {'name': 'Phytomedicine', 'id': 68}, 'title': 'Tyrosinase activity of Greyia flanaganii (Bolus) constituents', 'year': 2011, 'start_page': None, 'volume': None, 'issue': None, 'doi': '10.1016/j.phymed.2011.03.013', 'isbn': '', 'despositor': {'code': 'BND', 'first_name': "Bakary N'tji", 'last_name': 'Diallo', 'id': 26}, 'refauthors_set': [{'author': {'first_name': 'Manyatja Brenda ', 'initials': 'MBM', 'last_name': 'Mapunya', 'id': 1044}, 'first_author': True, 'id': 1625}], 'id': 527}]

>  <classifications>  (898) 
[{'classification': 'Chalcones', 'id': 930}, {'classification': 'Linear 1,3-diarylpropanoids (Classyfire)', 'id': 943}]

>  <molecular_mass>  (898) 
272.29

$$$$
SANC01016_minRM1.pdb
     RDKit          3D

 37 38  0  0  0  0  0  0  0  0999 V2000
    5.6930   -2.2940   -0.6870 C   0  0  0  0  0  0  0  0  0  0  0  0
    5.0950   -1.1540   -1.2530 O   0  0  0  0  0  0  0  0  0  0  0  0
    4.0160   -0.6180   -0.6260 C   0  0  0  0  0  0  0  0  0  0  0  0
    3.4240   -1.1360    0.5260 C   0  0  0  0  0  0  0  0  0  0  0  0
    2.3040   -0.4730    1.0330 C   0  0  0  0  0  0  0  0  0  0  0  0
    1.7680    0.6690    0.4320 C   0  0  0  0  0  0  0  0  0  0  0  0
    2.4280    1.1760   -0.6970 C   0  0  0  0  0  0  0  0  0  0  0  0
    3.5390    0.5380   -1.2500 C   0  0  0  0  0  0  0  0  0  0  0  0
    2.0260    2.2710   -1.3750 O   0  0  0  0  0  0  0  0  0  0  0  0
    0.5650    1.3170    0.9820 C   0  0  0  0  0  0  0  0  0  0  0  0
    0.5810    2.4860    1.3270 O   0  0  0  0  0  0  0  0  0  0  0  0
   -0.7030    0.5000    1.0480 C   0  0  0  0  0  0  0  0  0  0  0  0
   -1.6510    1.0250   -0.0290 C   0  0  0  0  0  0  0  0  0  0  0  0
   -2.9570    0.3060   -0.1210 C   0  0  0  0  0  0  0  0  0  0  0  0
   -3.7640    0.5910   -1.2250 C   0  0  0  0  0  0  0  0  0  0  0  0
   -5.0060   -0.0050   -1.3770 C   0  0  0  0  0  0  0  0  0  0  0  0
   -5.4410   -0.9030   -0.4010 C   0  0  0  0  0  0  0  0  0  0  0  0
   -4.6500   -1.2060    0.7080 C   0  0  0  0  0  0  0  0  0  0  0  0
   -3.4100   -0.5940    0.8380 C   0  0  0  0  0  0  0  0  0  0  0  0
   -6.6390   -1.5390   -0.4540 O   0  0  0  0  0  0  0  0  0  0  0  0
    1.6720   -0.8930    2.1520 O   0  0  0  0  0  0  0  0  0  0  0  0
    5.0260   -3.1710   -0.6710 H   0  0  0  0  0  0  0  0  0  0  0  0
    6.5340   -2.5020   -1.3660 H   0  0  0  0  0  0  0  0  0  0  0  0
    6.0920   -2.1190    0.3260 H   0  0  0  0  0  0  0  0  0  0  0  0
    3.8090   -2.0250    1.0270 H   0  0  0  0  0  0  0  0  0  0  0  0
    4.0240    0.9370   -2.1460 H   0  0  0  0  0  0  0  0  0  0  0  0
    1.4330    2.8080   -0.8380 H   0  0  0  0  0  0  0  0  0  0  0  0
   -1.1420    0.5970    2.0630 H   0  0  0  0  0  0  0  0  0  0  0  0
   -0.5080   -0.5820    0.9080 H   0  0  0  0  0  0  0  0  0  0  0  0
   -1.8550    2.1060    0.1410 H   0  0  0  0  0  0  0  0  0  0  0  0
   -1.1380    0.9780   -1.0170 H   0  0  0  0  0  0  0  0  0  0  0  0
   -3.4200    1.2990   -1.9860 H   0  0  0  0  0  0  0  0  0  0  0  0
   -5.6240    0.2310   -2.2470 H   0  0  0  0  0  0  0  0  0  0  0  0
   -5.0070   -1.9130    1.4630 H   0  0  0  0  0  0  0  0  0  0  0  0
   -2.8090   -0.8420    1.7180 H   0  0  0  0  0  0  0  0  0  0  0  0
   -7.1150   -1.2380   -1.2360 H   0  0  0  0  0  0  0  0  0  0  0  0
    2.1380   -1.6540    2.5180 H   0  0  0  0  0  0  0  0  0  0  0  0
  1 23  1  0
  1  2  1  0
  1 22  1  0
  1 24  1  0
  2  3  1  0
  3  8  2  0
  3  4  1  0
  4 25  1  0
  4  5  2  0
  5  6  1  0
  5 21  1  0
  6  7  2  0
  6 10  1  0
  7  9  1  0
  7  8  1  0
  8 26  1  0
  9 27  1  0
 10 12  1  0
 10 11  2  0
 12 13  1  0
 12 29  1  0
 12 28  1  0
 13 31  1  0
 13 14  1  0
 13 30  1  0
 14 15  2  0
 14 19  1  0
 15 32  1  0
 15 16  1  0
 16 33  1  0
 16 17  2  0
 17 20  1  0
 17 18  1  0
 18 19  2  0
 18 34  1  0
 19 35  1  0
 20 36  1  0
 21 37  1  0
M  END
>  <id>  (899) 
1016

>  <scaffolds>  (899) 
['c1ccccc1', 'O=C(CCc1ccccc1)c1ccccc1']

>  <name>  (899) 
Asebogenin

>  <formula>  (899) 
C16H16O5

>  <SMILES>  (899) 
COC1=CC(=C(C(=C1)O)C(=O)CCC2=CC=C(C=C2)O)O

>  <ChEMBL_id>  (899) 
SCHEMBL4740064

>  <ZINC_id>  (899) 
ZINC898583

>  <PubChem_id>  (899) 
442255

>  <DrugBank_id>  (899) 


>  <CAS_no>  (899) 
520-42-3

>  <references>  (899) 
[{'journal': {'name': 'Phytomedicine', 'id': 68}, 'title': 'Tyrosinase activity of Greyia flanaganii (Bolus) constituents', 'year': 2011, 'start_page': None, 'volume': None, 'issue': None, 'doi': '10.1016/j.phymed.2011.03.013', 'isbn': '', 'despositor': {'code': 'BND', 'first_name': "Bakary N'tji", 'last_name': 'Diallo', 'id': 26}, 'refauthors_set': [{'author': {'first_name': 'Manyatja Brenda ', 'initials': 'MBM', 'last_name': 'Mapunya', 'id': 1044}, 'first_author': True, 'id': 1625}], 'id': 527}]

>  <classifications>  (899) 
[{'classification': 'Chalcones', 'id': 930}, {'classification': 'Linear 1,3-diarylpropanoids (Classyfire)', 'id': 943}]

>  <molecular_mass>  (899) 
288.29

$$$$
SANC01017_minRM1.pdb
     RDKit          3D

 37 39  0  0  1  0  0  0  0  0999 V2000
   -0.7810    4.6350    0.9840 C   0  0  0  0  0  0  0  0  0  0  0  0
   -1.4490    3.3520    0.6160 C   0  0  0  0  0  0  0  0  0  0  0  0
   -2.6170    3.0430    0.7560 O   0  0  0  0  0  0  0  0  0  0  0  0
   -0.5640    2.4770    0.0640 O   0  0  0  0  0  0  0  0  0  0  0  0
   -1.0470    1.2240   -0.3660 C   0  0  2  0  0  0  0  0  0  0  0  0
   -1.2120    0.2880    0.8520 C   0  0  2  0  0  0  0  0  0  0  0  0
   -0.0010    0.1250    1.5520 O   0  0  0  0  0  0  0  0  0  0  0  0
    1.1040   -0.1690    0.8200 C   0  0  0  0  0  0  0  0  0  0  0  0
    2.1760   -0.6930    1.5300 C   0  0  0  0  0  0  0  0  0  0  0  0
    3.3410   -0.9980    0.8090 C   0  0  0  0  0  0  0  0  0  0  0  0
    3.4490   -0.8220   -0.5700 C   0  0  0  0  0  0  0  0  0  0  0  0
    2.3490   -0.2880   -1.2460 C   0  0  0  0  0  0  0  0  0  0  0  0
    1.1710    0.0660   -0.5590 C   0  0  0  0  0  0  0  0  0  0  0  0
    0.0840    0.7120   -1.2490 C   0  0  0  0  0  0  0  0  0  0  0  0
    0.0810    0.8740   -2.4630 O   0  0  0  0  0  0  0  0  0  0  0  0
    2.4860   -0.1320   -2.5670 O   0  0  0  0  0  0  0  0  0  0  0  0
    4.4390   -1.5040    1.4080 O   0  0  0  0  0  0  0  0  0  0  0  0
   -1.8160   -1.0100    0.3980 C   0  0  0  0  0  0  0  0  0  0  0  0
   -3.1500   -0.9710   -0.0110 C   0  0  0  0  0  0  0  0  0  0  0  0
   -3.7800   -2.1280   -0.4470 C   0  0  0  0  0  0  0  0  0  0  0  0
   -3.0860   -3.3330   -0.4660 C   0  0  0  0  0  0  0  0  0  0  0  0
   -1.7670   -3.3760   -0.0380 C   0  0  0  0  0  0  0  0  0  0  0  0
   -1.1310   -2.2170    0.3990 C   0  0  0  0  0  0  0  0  0  0  0  0
    0.0360    4.4720    1.7030 H   0  0  0  0  0  0  0  0  0  0  0  0
   -1.4940    5.3380    1.4390 H   0  0  0  0  0  0  0  0  0  0  0  0
   -0.3420    5.1260    0.1020 H   0  0  0  0  0  0  0  0  0  0  0  0
   -2.0050    1.3100   -0.9450 H   0  0  0  0  0  0  0  0  0  0  0  0
   -1.8540    0.7530    1.6480 H   0  0  0  0  0  0  0  0  0  0  0  0
    2.1020   -0.8520    2.6080 H   0  0  0  0  0  0  0  0  0  0  0  0
    4.3640   -1.0870   -1.1060 H   0  0  0  0  0  0  0  0  0  0  0  0
    1.6730    0.2620   -2.9610 H   0  0  0  0  0  0  0  0  0  0  0  0
    4.2810   -1.5840    2.3570 H   0  0  0  0  0  0  0  0  0  0  0  0
   -3.7160   -0.0330    0.0210 H   0  0  0  0  0  0  0  0  0  0  0  0
   -4.8230   -2.0920   -0.7740 H   0  0  0  0  0  0  0  0  0  0  0  0
   -3.5810   -4.2450   -0.8130 H   0  0  0  0  0  0  0  0  0  0  0  0
   -1.2220   -4.3240   -0.0410 H   0  0  0  0  0  0  0  0  0  0  0  0
   -0.0950   -2.2930    0.7430 H   0  0  0  0  0  0  0  0  0  0  0  0
  1 26  1  0
  1  2  1  0
  1 25  1  0
  1 24  1  0
  2  4  1  0
  2  3  2  0
  4  5  1  0
  5 14  1  0
  5 27  1  6
  5  6  1  0
  6 18  1  0
  6  7  1  0
  6 28  1  1
  7  8  1  0
  8 13  2  0
  8  9  1  0
  9 10  2  0
  9 29  1  0
 10 11  1  0
 10 17  1  0
 11 12  2  0
 11 30  1  0
 12 16  1  0
 12 13  1  0
 13 14  1  0
 14 15  2  0
 16 31  1  0
 17 32  1  0
 18 19  2  0
 18 23  1  0
 19 20  1  0
 19 33  1  0
 20 34  1  0
 20 21  2  0
 21 35  1  0
 21 22  1  0
 22 36  1  0
 22 23  2  0
 23 37  1  0
M  END
>  <id>  (900) 
1017

>  <scaffolds>  (900) 
['c1ccccc1', 'O=C1CC(c2ccccc2)Oc2ccccc21', 'c1ccc(C2CCc3ccccc3O2)cc1', 'O=C(CCc1ccccc1)c1ccccc1']

>  <name>  (900) 
(2R,3R)-3,5,7-trihydroxy-3-O-acetylflavanone

>  <formula>  (900) 
C17H14O6

>  <SMILES>  (900) 
CC(=O)O[C@@H]1[C@H](OC2=CC(=CC(=C2C1=O)O)O)C3=CC=CC=C3

>  <ChEMBL_id>  (900) 
CHEMBL1094265

>  <ZINC_id>  (900) 
ZINC5166457

>  <PubChem_id>  (900) 
148556

>  <DrugBank_id>  (900) 


>  <CAS_no>  (900) 
52117-69-8

>  <references>  (900) 
[{'journal': {'name': 'Phytomedicine', 'id': 68}, 'title': 'Tyrosinase activity of Greyia flanaganii (Bolus) constituents', 'year': 2011, 'start_page': None, 'volume': None, 'issue': None, 'doi': '10.1016/j.phymed.2011.03.013', 'isbn': '', 'despositor': {'code': 'BND', 'first_name': "Bakary N'tji", 'last_name': 'Diallo', 'id': 26}, 'refauthors_set': [{'author': {'first_name': 'Manyatja Brenda ', 'initials': 'MBM', 'last_name': 'Mapunya', 'id': 1044}, 'first_author': True, 'id': 1625}], 'id': 527}]

>  <classifications>  (900) 
[{'classification': 'Flavonoids (Classyfire)', 'id': 941}]

>  <molecular_mass>  (900) 
314.29

$$$$
SANC01018_minRM1.pdb
     RDKit          3D

 38 39  0  0  0  0  0  0  0  0999 V2000
    3.8810   -0.9580   -1.2290 C   0  0  0  0  0  0  0  0  0  0  0  0
    3.6090    0.5000   -1.1210 C   0  0  0  0  0  0  0  0  0  0  0  0
    2.9130    1.0430   -0.1200 C   0  0  0  0  0  0  0  0  0  0  0  0
    2.3250    0.2680    1.0120 C   0  0  0  0  0  0  0  0  0  0  0  0
    0.9000   -0.0600    0.6980 C   0  0  0  0  0  0  0  0  0  0  0  0
    0.4440   -1.3890    0.5170 C   0  0  0  0  0  0  0  0  0  0  0  0
   -0.8670   -1.6800    0.1680 C   0  0  0  0  0  0  0  0  0  0  0  0
   -1.7500   -0.6100   -0.0180 C   0  0  0  0  0  0  0  0  0  0  0  0
   -1.3620    0.7180    0.1620 C   0  0  0  0  0  0  0  0  0  0  0  0
   -0.0310    0.9560    0.5510 C   0  0  0  0  0  0  0  0  0  0  0  0
    0.3610    2.2590    0.7340 O   0  0  0  0  0  0  0  0  0  0  0  0
    0.0370    2.7340    2.0230 C   0  0  0  0  0  0  0  0  0  0  0  0
   -2.3180    1.7590   -0.1040 C   0  0  0  0  0  0  0  0  0  0  0  0
   -3.5660    1.4240   -0.4660 C   0  0  0  0  0  0  0  0  0  0  0  0
   -3.9530    0.0270   -0.5890 C   0  0  0  0  0  0  0  0  0  0  0  0
   -5.0450   -0.4250   -0.8740 O   0  0  0  0  0  0  0  0  0  0  0  0
   -3.0100   -0.9640   -0.3740 O   0  0  0  0  0  0  0  0  0  0  0  0
    1.3890   -2.3390    0.7410 O   0  0  0  0  0  0  0  0  0  0  0  0
    1.0300   -3.6880    0.5640 C   0  0  0  0  0  0  0  0  0  0  0  0
    4.1730    1.3380   -2.2150 C   0  0  0  0  0  0  0  0  0  0  0  0
    2.9590   -1.5550   -1.1550 H   0  0  0  0  0  0  0  0  0  0  0  0
    4.5570   -1.3050   -0.4310 H   0  0  0  0  0  0  0  0  0  0  0  0
    4.3550   -1.2410   -2.1810 H   0  0  0  0  0  0  0  0  0  0  0  0
    2.7350    2.1240   -0.0860 H   0  0  0  0  0  0  0  0  0  0  0  0
    2.9340   -0.6270    1.2590 H   0  0  0  0  0  0  0  0  0  0  0  0
    2.3730    0.8670    1.9490 H   0  0  0  0  0  0  0  0  0  0  0  0
   -1.2430   -2.6970    0.0260 H   0  0  0  0  0  0  0  0  0  0  0  0
    0.3830    3.7780    2.0190 H   0  0  0  0  0  0  0  0  0  0  0  0
    0.5560    2.1860    2.8270 H   0  0  0  0  0  0  0  0  0  0  0  0
   -1.0450    2.7120    2.2390 H   0  0  0  0  0  0  0  0  0  0  0  0
   -2.0050    2.8060   -0.0280 H   0  0  0  0  0  0  0  0  0  0  0  0
   -4.3430    2.1590   -0.6910 H   0  0  0  0  0  0  0  0  0  0  0  0
    0.7230   -3.9270   -0.4680 H   0  0  0  0  0  0  0  0  0  0  0  0
    1.9640   -4.2260    0.7880 H   0  0  0  0  0  0  0  0  0  0  0  0
    0.2500   -4.0260    1.2670 H   0  0  0  0  0  0  0  0  0  0  0  0
    3.9860    2.4140   -2.0920 H   0  0  0  0  0  0  0  0  0  0  0  0
    3.7500    1.0570   -3.1920 H   0  0  0  0  0  0  0  0  0  0  0  0
    5.2640    1.2160   -2.2900 H   0  0  0  0  0  0  0  0  0  0  0  0
  1 23  1  0
  1 21  1  0
  1  2  1  0
  1 22  1  0
  2 20  1  0
  2  3  2  0
  3 24  1  0
  3  4  1  0
  4  5  1  0
  4 25  1  0
  4 26  1  0
  5  6  2  0
  5 10  1  0
  6  7  1  0
  6 18  1  0
  7  8  2  0
  7 27  1  0
  8 17  1  0
  8  9  1  0
  9 13  1  0
  9 10  2  0
 10 11  1  0
 11 12  1  0
 12 28  1  0
 12 30  1  0
 12 29  1  0
 13 14  2  0
 13 31  1  0
 14 32  1  0
 14 15  1  0
 15 16  2  0
 15 17  1  0
 18 19  1  0
 19 33  1  0
 19 34  1  0
 19 35  1  0
 20 37  1  0
 20 38  1  0
 20 36  1  0
M  END
>  <id>  (901) 
1018

>  <scaffolds>  (901) 
['c1ccccc1', 'O=c1ccc2ccccc2o1']

>  <name>  (901) 
Toddaculin

>  <formula>  (901) 
C16H18O4

>  <SMILES>  (901) 
CC(=CCC1=C(C=C2C(=C1OC)C=CC(=O)O2)OC)C

>  <ChEMBL_id>  (901) 
SCHEMBL15941538

>  <ZINC_id>  (901) 


>  <PubChem_id>  (901) 
5321960

>  <DrugBank_id>  (901) 


>  <CAS_no>  (901) 
4335-12-0

>  <references>  (901) 
[{'journal': {'name': 'Phytomedicine', 'id': 68}, 'title': 'Toddaculin, a natural coumarin from Toddalia asiatica, induces differentiation and apoptosis in U-937 leukemic cells', 'year': 2012, 'start_page': None, 'volume': None, 'issue': None, 'doi': '10.1016/j.phymed.2012.03.008', 'isbn': '', 'despositor': {'code': 'BND', 'first_name': "Bakary N'tji", 'last_name': 'Diallo', 'id': 26}, 'refauthors_set': [{'author': {'first_name': 'Vázquez', 'initials': 'VR', 'last_name': 'Ramiro', 'id': 1045}, 'first_author': True, 'id': 1626}], 'id': 528}]

>  <classifications>  (901) 
[{'classification': 'Coumarins', 'id': 916}, {'classification': 'Coumarins and derivatives (Classyfire)', 'id': 965}]

>  <molecular_mass>  (901) 
274.31

$$$$
SANC01019_minRM1.pdb
     RDKit          3D

 39 41  0  0  1  0  0  0  0  0999 V2000
    4.8890    1.2040    0.4710 C   0  0  0  0  0  0  0  0  0  0  0  0
    4.2530    0.3200   -0.5650 C   0  0  2  0  0  0  0  0  0  0  0  0
    2.8020   -0.0760   -0.4570 C   0  0  1  0  0  0  0  0  0  0  0  0
    3.8570   -0.9680   -0.1260 O   0  0  0  0  0  0  0  0  0  0  0  0
    1.9610    0.4220    0.7000 C   0  0  0  0  0  0  0  0  0  0  0  0
    0.5270    0.0790    0.4680 C   0  0  0  0  0  0  0  0  0  0  0  0
    0.1230   -1.2800    0.4740 C   0  0  0  0  0  0  0  0  0  0  0  0
   -1.1910   -1.6610    0.2430 C   0  0  0  0  0  0  0  0  0  0  0  0
   -2.1260   -0.6520   -0.0180 C   0  0  0  0  0  0  0  0  0  0  0  0
   -1.7830    0.7010   -0.0420 C   0  0  0  0  0  0  0  0  0  0  0  0
   -0.4410    1.0350    0.2220 C   0  0  0  0  0  0  0  0  0  0  0  0
   -0.0870    2.3590    0.1590 O   0  0  0  0  0  0  0  0  0  0  0  0
   -0.2670    3.0140    1.3960 C   0  0  0  0  0  0  0  0  0  0  0  0
   -2.7970    1.6660   -0.3680 C   0  0  0  0  0  0  0  0  0  0  0  0
   -4.0510    1.2450   -0.5980 C   0  0  0  0  0  0  0  0  0  0  0  0
   -4.3840   -0.1680   -0.5210 C   0  0  0  0  0  0  0  0  0  0  0  0
   -5.4700   -0.6900   -0.6780 O   0  0  0  0  0  0  0  0  0  0  0  0
   -3.3890   -1.0900   -0.2420 O   0  0  0  0  0  0  0  0  0  0  0  0
    1.1320   -2.1440    0.7420 O   0  0  0  0  0  0  0  0  0  0  0  0
    0.8480   -3.5230    0.7200 C   0  0  0  0  0  0  0  0  0  0  0  0
    4.9110    0.3740   -1.9160 C   0  0  0  0  0  0  0  0  0  0  0  0
    4.6260    2.2570    0.2960 H   0  0  0  0  0  0  0  0  0  0  0  0
    4.5870    0.9540    1.4990 H   0  0  0  0  0  0  0  0  0  0  0  0
    5.9870    1.1330    0.4480 H   0  0  0  0  0  0  0  0  0  0  0  0
    2.2280   -0.3300   -1.3690 H   0  0  0  0  0  0  0  0  0  0  0  0
    2.1190    1.5160    0.8120 H   0  0  0  0  0  0  0  0  0  0  0  0
    2.2990   -0.0130    1.6670 H   0  0  0  0  0  0  0  0  0  0  0  0
   -1.5280   -2.7010    0.2520 H   0  0  0  0  0  0  0  0  0  0  0  0
    0.3570    2.5920    2.2020 H   0  0  0  0  0  0  0  0  0  0  0  0
   -1.3160    3.0130    1.7370 H   0  0  0  0  0  0  0  0  0  0  0  0
    0.0480    4.0500    1.2010 H   0  0  0  0  0  0  0  0  0  0  0  0
   -2.5260    2.7250   -0.4380 H   0  0  0  0  0  0  0  0  0  0  0  0
   -4.8720    1.9190   -0.8560 H   0  0  0  0  0  0  0  0  0  0  0  0
    1.8290   -3.9800    0.9260 H   0  0  0  0  0  0  0  0  0  0  0  0
    0.1390   -3.8320    1.5050 H   0  0  0  0  0  0  0  0  0  0  0  0
    0.4900   -3.8790   -0.2600 H   0  0  0  0  0  0  0  0  0  0  0  0
    4.4200   -0.2740   -2.6570 H   0  0  0  0  0  0  0  0  0  0  0  0
    4.8950    1.3970   -2.3170 H   0  0  0  0  0  0  0  0  0  0  0  0
    5.9620    0.0540   -1.8670 H   0  0  0  0  0  0  0  0  0  0  0  0
  2  1  1  1
  1 22  1  0
  1 24  1  0
  1 23  1  0
  2 21  1  0
  2  3  1  0
  2  4  1  0
  3 25  1  6
  3  4  1  0
  3  5  1  0
  5  6  1  0
  5 26  1  0
  5 27  1  0
  6 11  2  0
  6  7  1  0
  7  8  2  0
  7 19  1  0
  8  9  1  0
  8 28  1  0
  9 18  1  0
  9 10  2  0
 10 14  1  0
 10 11  1  0
 11 12  1  0
 12 13  1  0
 13 31  1  0
 13 30  1  0
 13 29  1  0
 14 15  2  0
 14 32  1  0
 15 33  1  0
 15 16  1  0
 16 17  2  0
 16 18  1  0
 19 20  1  0
 20 36  1  0
 20 34  1  0
 20 35  1  0
 21 37  1  0
 21 38  1  0
 21 39  1  0
M  END
>  <id>  (902) 
1019

>  <scaffolds>  (902) 
['c1ccccc1', 'O=c1ccc2ccccc2o1', 'O=c1ccc2cc(CC3CO3)ccc2o1']

>  <name>  (902) 
Aculeatin

>  <formula>  (902) 
C16H18O5

>  <SMILES>  (902) 
CC1(C(O1)CC2=C(C=C3C(=C2OC)C=CC(=O)O3)OC)C

>  <ChEMBL_id>  (902) 


>  <ZINC_id>  (902) 


>  <PubChem_id>  (902) 
5316354

>  <DrugBank_id>  (902) 


>  <CAS_no>  (902) 
523-51-3

>  <references>  (902) 
[{'journal': {'name': 'Phytomedicine', 'id': 68}, 'title': 'Toddaculin, a natural coumarin from Toddalia asiatica, induces differentiation and apoptosis in U-937 leukemic cells', 'year': 2012, 'start_page': None, 'volume': None, 'issue': None, 'doi': '10.1016/j.phymed.2012.03.008', 'isbn': '', 'despositor': {'code': 'BND', 'first_name': "Bakary N'tji", 'last_name': 'Diallo', 'id': 26}, 'refauthors_set': [{'author': {'first_name': 'Vázquez', 'initials': 'VR', 'last_name': 'Ramiro', 'id': 1045}, 'first_author': True, 'id': 1626}], 'id': 528}]

>  <classifications>  (902) 
[{'classification': 'Coumarins and derivatives', 'id': 931}, {'classification': 'Coumarins and derivatives (Classyfire)', 'id': 965}]

>  <molecular_mass>  (902) 
290.31

$$$$
SANC01020_minRM1.pdb
     RDKit          3D

 28 29  0  0  0  0  0  0  0  0999 V2000
    2.2380   -2.3630    0.0030 C   0  0  0  0  0  0  0  0  0  0  0  0
    1.8750   -0.9230    0.0010 C   0  0  0  0  0  0  0  0  0  0  0  0
    2.8640   -0.0050   -0.0010 C   0  0  0  0  0  0  0  0  0  0  0  0
    2.5820    1.4120   -0.0020 C   0  0  0  0  0  0  0  0  0  0  0  0
    3.3640    2.3430   -0.0040 O   0  0  0  0  0  0  0  0  0  0  0  0
    1.2630    1.8310   -0.0010 O   0  0  0  0  0  0  0  0  0  0  0  0
    0.2700    0.9100   -0.0000 C   0  0  0  0  0  0  0  0  0  0  0  0
    0.5030   -0.4730   -0.0000 C   0  0  0  0  0  0  0  0  0  0  0  0
   -0.6510   -1.2960   -0.0010 C   0  0  0  0  0  0  0  0  0  0  0  0
   -1.9330   -0.7690   -0.0010 C   0  0  0  0  0  0  0  0  0  0  0  0
   -2.0930    0.6280   -0.0000 C   0  0  0  0  0  0  0  0  0  0  0  0
   -1.0070    1.4870   -0.0000 C   0  0  0  0  0  0  0  0  0  0  0  0
   -3.3940    1.0160    0.0000 O   0  0  0  0  0  0  0  0  0  0  0  0
   -3.6650    2.3970    0.0020 C   0  0  0  0  0  0  0  0  0  0  0  0
   -0.4080   -2.6310   -0.0010 O   0  0  0  0  0  0  0  0  0  0  0  0
   -1.5020   -3.5160   -0.0020 C   0  0  0  0  0  0  0  0  0  0  0  0
    1.8500   -2.8810    0.8940 H   0  0  0  0  0  0  0  0  0  0  0  0
    3.3260   -2.5370    0.0050 H   0  0  0  0  0  0  0  0  0  0  0  0
    1.8530   -2.8830   -0.8880 H   0  0  0  0  0  0  0  0  0  0  0  0
    3.9260   -0.2680   -0.0000 H   0  0  0  0  0  0  0  0  0  0  0  0
   -2.8330   -1.3890   -0.0010 H   0  0  0  0  0  0  0  0  0  0  0  0
   -1.0980    2.5760    0.0000 H   0  0  0  0  0  0  0  0  0  0  0  0
   -3.2890    2.9120    0.9010 H   0  0  0  0  0  0  0  0  0  0  0  0
   -3.2900    2.9130   -0.8980 H   0  0  0  0  0  0  0  0  0  0  0  0
   -4.7650    2.4390    0.0020 H   0  0  0  0  0  0  0  0  0  0  0  0
   -2.1320   -3.4300   -0.9020 H   0  0  0  0  0  0  0  0  0  0  0  0
   -1.0200   -4.5060   -0.0020 H   0  0  0  0  0  0  0  0  0  0  0  0
   -2.1320   -3.4300    0.8990 H   0  0  0  0  0  0  0  0  0  0  0  0
  1 19  1  0
  1  2  1  0
  1 18  1  0
  1 17  1  0
  2  3  2  0
  2  8  1  0
  3  4  1  0
  3 20  1  0
  4  5  2  0
  4  6  1  0
  6  7  1  0
  7  8  2  0
  7 12  1  0
  8  9  1  0
  9 15  1  0
  9 10  2  0
 10 21  1  0
 10 11  1  0
 11 12  2  0
 11 13  1  0
 12 22  1  0
 13 14  1  0
 14 24  1  0
 14 25  1  0
 14 23  1  0
 15 16  1  0
 16 26  1  0
 16 27  1  0
 16 28  1  0
M  END
>  <id>  (903) 
1020

>  <scaffolds>  (903) 
['c1ccccc1', 'O=c1ccc2ccccc2o1']

>  <name>  (903) 
5,7-Dimethoxy-4-methylcoumarin

>  <formula>  (903) 
C12H12O4

>  <SMILES>  (903) 
CC1=CC(=O)OC2=C1C(=CC(=C2)OC)OC

>  <ChEMBL_id>  (903) 
CHEMBL1324939

>  <ZINC_id>  (903) 
ZINC58042

>  <PubChem_id>  (903) 
390799

>  <DrugBank_id>  (903) 


>  <CAS_no>  (903) 
6093-80-7

>  <references>  (903) 
[{'journal': {'name': 'Phytomedicine', 'id': 68}, 'title': 'Toddaculin, a natural coumarin from Toddalia asiatica, induces differentiation and apoptosis in U-937 leukemic cells', 'year': 2012, 'start_page': None, 'volume': None, 'issue': None, 'doi': '10.1016/j.phymed.2012.03.008', 'isbn': '', 'despositor': {'code': 'BND', 'first_name': "Bakary N'tji", 'last_name': 'Diallo', 'id': 26}, 'refauthors_set': [{'author': {'first_name': 'Vázquez', 'initials': 'VR', 'last_name': 'Ramiro', 'id': 1045}, 'first_author': True, 'id': 1626}], 'id': 528}]

>  <classifications>  (903) 
[{'classification': 'Coumarins and derivatives', 'id': 931}, {'classification': 'Coumarins and derivatives (Classyfire)', 'id': 965}]

>  <molecular_mass>  (903) 
220.22

$$$$
SANC01021_minRM1.pdb
     RDKit          3D

 38 39  0  0  0  0  0  0  0  0999 V2000
    4.4890   -0.9950   -1.7860 C   0  0  0  0  0  0  0  0  0  0  0  0
    3.7240   -0.6320   -0.5630 C   0  0  0  0  0  0  0  0  0  0  0  0
    2.3930   -0.7360   -0.5130 C   0  0  0  0  0  0  0  0  0  0  0  0
    1.6100   -0.3850    0.7070 C   0  0  0  0  0  0  0  0  0  0  0  0
    0.1550   -0.2990    0.3780 C   0  0  0  0  0  0  0  0  0  0  0  0
   -0.5260    0.9300    0.2670 C   0  0  0  0  0  0  0  0  0  0  0  0
   -1.8770    0.9990   -0.0670 C   0  0  0  0  0  0  0  0  0  0  0  0
   -2.6000   -0.1790   -0.3060 C   0  0  0  0  0  0  0  0  0  0  0  0
   -1.9490   -1.3920   -0.2110 C   0  0  0  0  0  0  0  0  0  0  0  0
   -0.5770   -1.4500    0.1300 C   0  0  0  0  0  0  0  0  0  0  0  0
    0.0630   -2.6580    0.1160 O   0  0  0  0  0  0  0  0  0  0  0  0
   -0.1770   -3.4230    1.2770 C   0  0  0  0  0  0  0  0  0  0  0  0
   -2.5390   -2.6110   -0.3770 O   0  0  0  0  0  0  0  0  0  0  0  0
   -3.6730   -2.6420   -1.2100 C   0  0  0  0  0  0  0  0  0  0  0  0
   -2.5050    2.2940   -0.1620 C   0  0  0  0  0  0  0  0  0  0  0  0
   -1.7790    3.3950    0.0750 C   0  0  0  0  0  0  0  0  0  0  0  0
   -0.3700    3.2850    0.4270 C   0  0  0  0  0  0  0  0  0  0  0  0
    0.4030    4.1900    0.6750 O   0  0  0  0  0  0  0  0  0  0  0  0
    0.2220    2.0410    0.5080 O   0  0  0  0  0  0  0  0  0  0  0  0
    4.5330   -0.1430    0.5840 C   0  0  0  0  0  0  0  0  0  0  0  0
    3.8550   -1.3050   -2.6290 H   0  0  0  0  0  0  0  0  0  0  0  0
    5.0970   -0.1500   -2.1430 H   0  0  0  0  0  0  0  0  0  0  0  0
    5.1810   -1.8290   -1.5900 H   0  0  0  0  0  0  0  0  0  0  0  0
    1.8210   -1.1070   -1.3680 H   0  0  0  0  0  0  0  0  0  0  0  0
    1.7760   -1.1570    1.4930 H   0  0  0  0  0  0  0  0  0  0  0  0
    1.9830    0.5540    1.1720 H   0  0  0  0  0  0  0  0  0  0  0  0
   -3.6590   -0.1070   -0.5630 H   0  0  0  0  0  0  0  0  0  0  0  0
    0.4340   -4.3250    1.1240 H   0  0  0  0  0  0  0  0  0  0  0  0
    0.1520   -2.9180    2.2000 H   0  0  0  0  0  0  0  0  0  0  0  0
   -1.2290   -3.7230    1.4040 H   0  0  0  0  0  0  0  0  0  0  0  0
   -4.5750   -2.2570   -0.7060 H   0  0  0  0  0  0  0  0  0  0  0  0
   -3.8160   -3.7140   -1.4140 H   0  0  0  0  0  0  0  0  0  0  0  0
   -3.5420   -2.1110   -2.1670 H   0  0  0  0  0  0  0  0  0  0  0  0
   -3.5660    2.3480   -0.4280 H   0  0  0  0  0  0  0  0  0  0  0  0
   -2.1850    4.4090    0.0200 H   0  0  0  0  0  0  0  0  0  0  0  0
    4.3640    0.9300    0.7680 H   0  0  0  0  0  0  0  0  0  0  0  0
    4.2930   -0.6720    1.5190 H   0  0  0  0  0  0  0  0  0  0  0  0
    5.6160   -0.2650    0.4320 H   0  0  0  0  0  0  0  0  0  0  0  0
  1 21  1  0
  1 22  1  0
  1 23  1  0
  1  2  1  0
  2  3  2  0
  2 20  1  0
  3 24  1  0
  3  4  1  0
  4  5  1  0
  4 26  1  0
  4 25  1  0
  5 10  2  0
  5  6  1  0
  6  7  2  0
  6 19  1  0
  7  8  1  0
  7 15  1  0
  8 27  1  0
  8  9  2  0
  9 13  1  0
  9 10  1  0
 10 11  1  0
 11 12  1  0
 12 28  1  0
 12 30  1  0
 12 29  1  0
 13 14  1  0
 14 33  1  0
 14 32  1  0
 14 31  1  0
 15 34  1  0
 15 16  2  0
 16 35  1  0
 16 17  1  0
 17 19  1  0
 17 18  2  0
 20 38  1  0
 20 36  1  0
 20 37  1  0
M  END
>  <id>  (904) 
1021

>  <scaffolds>  (904) 
['c1ccccc1', 'O=c1ccc2ccccc2o1']

>  <name>  (904) 
O-Methylcedrelopsin

>  <formula>  (904) 
C16H18O4

>  <SMILES>  (904) 
CC(=CCC1=C2C(=CC(=C1OC)OC)C=CC(=O)O2)C

>  <ChEMBL_id>  (904) 
SCHEMBL16352043

>  <ZINC_id>  (904) 


>  <PubChem_id>  (904) 
155937

>  <DrugBank_id>  (904) 


>  <CAS_no>  (904) 
72916-61-1

>  <references>  (904) 
[{'journal': {'name': 'Phytomedicine', 'id': 68}, 'title': 'Toddaculin, a natural coumarin from Toddalia asiatica, induces differentiation and apoptosis in U-937 leukemic cells', 'year': 2012, 'start_page': None, 'volume': None, 'issue': None, 'doi': '10.1016/j.phymed.2012.03.008', 'isbn': '', 'despositor': {'code': 'BND', 'first_name': "Bakary N'tji", 'last_name': 'Diallo', 'id': 26}, 'refauthors_set': [{'author': {'first_name': 'Vázquez', 'initials': 'VR', 'last_name': 'Ramiro', 'id': 1045}, 'first_author': True, 'id': 1626}], 'id': 528}]

>  <classifications>  (904) 
[{'classification': 'Coumarins and derivatives', 'id': 931}, {'classification': 'Coumarins and derivatives (Classyfire)', 'id': 965}]

>  <molecular_mass>  (904) 
274.31

$$$$
SANC01022_minRM1.pdb
     RDKit          3D

 39 40  0  0  1  0  0  0  0  0999 V2000
    2.2740   -0.0460   -2.5890 C   0  0  0  0  0  0  0  0  0  0  0  0
    2.9630   -0.1990   -1.2810 C   0  0  0  0  0  0  0  0  0  0  0  0
    3.6170   -1.3060   -0.9460 C   0  0  0  0  0  0  0  0  0  0  0  0
    2.8930    0.9960   -0.3660 C   0  0  1  0  0  0  0  0  0  0  0  0
    2.2090    0.6260    0.9690 C   0  0  0  0  0  0  0  0  0  0  0  0
    0.8220    0.1480    0.7070 C   0  0  0  0  0  0  0  0  0  0  0  0
    0.4750   -1.2250    0.7600 C   0  0  0  0  0  0  0  0  0  0  0  0
   -0.8130   -1.6710    0.4940 C   0  0  0  0  0  0  0  0  0  0  0  0
   -1.7760   -0.7190    0.1390 C   0  0  0  0  0  0  0  0  0  0  0  0
   -1.4880    0.6430    0.0570 C   0  0  0  0  0  0  0  0  0  0  0  0
   -0.1790    1.0480    0.3760 C   0  0  0  0  0  0  0  0  0  0  0  0
    0.1260    2.3820    0.2860 O   0  0  0  0  0  0  0  0  0  0  0  0
   -0.2390    3.0970    1.4470 C   0  0  0  0  0  0  0  0  0  0  0  0
   -2.5190    1.5410   -0.3890 C   0  0  0  0  0  0  0  0  0  0  0  0
   -3.7410    1.0540   -0.6550 C   0  0  0  0  0  0  0  0  0  0  0  0
   -4.0250   -0.3630   -0.4960 C   0  0  0  0  0  0  0  0  0  0  0  0
   -5.0820   -0.9380   -0.6620 O   0  0  0  0  0  0  0  0  0  0  0  0
   -3.0080   -1.2250   -0.1170 O   0  0  0  0  0  0  0  0  0  0  0  0
    1.5000   -2.0460    1.1040 O   0  0  0  0  0  0  0  0  0  0  0  0
    1.2420   -3.4260    1.1950 C   0  0  0  0  0  0  0  0  0  0  0  0
    4.1580    1.5330   -0.1280 O   0  0  0  0  0  0  0  0  0  0  0  0
    1.2080    0.1940   -2.4550 H   0  0  0  0  0  0  0  0  0  0  0  0
    2.7170    0.7700   -3.1800 H   0  0  0  0  0  0  0  0  0  0  0  0
    2.3170   -0.9500   -3.2150 H   0  0  0  0  0  0  0  0  0  0  0  0
    4.1220   -1.4590    0.0020 H   0  0  0  0  0  0  0  0  0  0  0  0
    3.6950   -2.1750   -1.5930 H   0  0  0  0  0  0  0  0  0  0  0  0
    2.3560    1.8550   -0.8500 H   0  0  0  0  0  0  0  0  0  0  0  0
    2.1970    1.5150    1.6370 H   0  0  0  0  0  0  0  0  0  0  0  0
    2.8150   -0.1090    1.5380 H   0  0  0  0  0  0  0  0  0  0  0  0
   -1.1090   -2.7220    0.5410 H   0  0  0  0  0  0  0  0  0  0  0  0
    0.2940    2.7570    2.3500 H   0  0  0  0  0  0  0  0  0  0  0  0
   -1.3210    3.0640    1.6580 H   0  0  0  0  0  0  0  0  0  0  0  0
    0.0560    4.1330    1.2250 H   0  0  0  0  0  0  0  0  0  0  0  0
   -2.2840    2.6030   -0.5260 H   0  0  0  0  0  0  0  0  0  0  0  0
   -4.5710    1.6740   -1.0030 H   0  0  0  0  0  0  0  0  0  0  0  0
    0.5070   -3.6810    1.9750 H   0  0  0  0  0  0  0  0  0  0  0  0
    2.2210   -3.8440    1.4800 H   0  0  0  0  0  0  0  0  0  0  0  0
    0.9330   -3.8750    0.2370 H   0  0  0  0  0  0  0  0  0  0  0  0
    4.7320    0.8450    0.2220 H   0  0  0  0  0  0  0  0  0  0  0  0
  1 24  1  0
  1 23  1  0
  1 22  1  0
  1  2  1  0
  2  3  2  0
  2  4  1  0
  3 26  1  0
  3 25  1  0
  4 27  1  6
  4 21  1  0
  4  5  1  0
  5  6  1  0
  5 29  1  0
  5 28  1  0
  6 11  2  0
  6  7  1  0
  7  8  2  0
  7 19  1  0
  8  9  1  0
  8 30  1  0
  9 18  1  0
  9 10  2  0
 10 14  1  0
 10 11  1  0
 11 12  1  0
 12 13  1  0
 13 33  1  0
 13 32  1  0
 13 31  1  0
 14 15  2  0
 14 34  1  0
 15 35  1  0
 15 16  1  0
 16 17  2  0
 16 18  1  0
 19 20  1  0
 20 38  1  0
 20 37  1  0
 20 36  1  0
 21 39  1  0
M  END
>  <id>  (905) 
1022

>  <scaffolds>  (905) 
['c1ccccc1', 'O=c1ccc2ccccc2o1']

>  <name>  (905) 
Toddanone

>  <formula>  (905) 
C16H18O5

>  <SMILES>  (905) 
CC(=C)C(CC1=C(C=C2C(=C1OC)C=CC(=O)O2)OC)O

>  <ChEMBL_id>  (905) 


>  <ZINC_id>  (905) 


>  <PubChem_id>  (905) 
15071017

>  <DrugBank_id>  (905) 


>  <CAS_no>  (905) 
77715-99-2

>  <references>  (905) 
[{'journal': {'name': 'Phytomedicine', 'id': 68}, 'title': 'Toddaculin, a natural coumarin from Toddalia asiatica, induces differentiation and apoptosis in U-937 leukemic cells', 'year': 2012, 'start_page': None, 'volume': None, 'issue': None, 'doi': '10.1016/j.phymed.2012.03.008', 'isbn': '', 'despositor': {'code': 'BND', 'first_name': "Bakary N'tji", 'last_name': 'Diallo', 'id': 26}, 'refauthors_set': [{'author': {'first_name': 'Vázquez', 'initials': 'VR', 'last_name': 'Ramiro', 'id': 1045}, 'first_author': True, 'id': 1626}], 'id': 528}]

>  <classifications>  (905) 
[{'classification': 'Coumarins and derivatives', 'id': 931}, {'classification': 'Coumarins and derivatives (Classyfire)', 'id': 965}]

>  <molecular_mass>  (905) 
290.31

$$$$
SANC01023_minRM1.pdb
     RDKit          3D

 14 13  0  0  0  0  0  0  0  0999 V2000
    0.6760   -0.4710    1.0540 C   0  0  0  0  0  0  0  0  0  0  0  0
   -0.6580   -1.0180    0.5650 C   0  0  0  0  0  0  0  0  0  0  0  0
   -1.4330    0.0460   -0.1610 C   0  0  0  0  0  0  0  0  0  0  0  0
   -1.8200    0.0180   -1.3160 O   0  0  0  0  0  0  0  0  0  0  0  0
   -1.7180    1.1050    0.6220 O   0  0  0  0  0  0  0  0  0  0  0  0
    1.5180   -0.0180   -0.1130 C   0  0  0  0  0  0  0  0  0  0  0  0
    1.7500    1.1400   -0.4000 O   0  0  0  0  0  0  0  0  0  0  0  0
    2.0900   -0.9410   -0.9220 O   0  0  0  0  0  0  0  0  0  0  0  0
    1.2180   -1.2330    1.6560 H   0  0  0  0  0  0  0  0  0  0  0  0
    0.5240    0.3780    1.7580 H   0  0  0  0  0  0  0  0  0  0  0  0
   -1.2620   -1.3890    1.4220 H   0  0  0  0  0  0  0  0  0  0  0  0
   -0.5300   -1.9000   -0.0970 H   0  0  0  0  0  0  0  0  0  0  0  0
   -2.1740    1.8000    0.1250 H   0  0  0  0  0  0  0  0  0  0  0  0
    1.8470   -1.8310   -0.6480 H   0  0  0  0  0  0  0  0  0  0  0  0
  1  6  1  0
  1  2  1  0
  1  9  1  0
  1 10  1  0
  2  3  1  0
  2 12  1  0
  2 11  1  0
  3  4  2  0
  3  5  1  0
  5 13  1  0
  6  8  1  0
  6  7  2  0
  8 14  1  0
M  END
>  <id>  (906) 
1023

>  <scaffolds>  (906) 
[]

>  <name>  (906) 
Succinic acid

>  <formula>  (906) 
C4H6O4

>  <SMILES>  (906) 
C(CC(=O)O)C(=O)O

>  <ChEMBL_id>  (906) 
CHEMBL576

>  <ZINC_id>  (906) 
ZINC895030

>  <PubChem_id>  (906) 
1110

>  <DrugBank_id>  (906) 
DB00139

>  <CAS_no>  (906) 
110-15-6

>  <references>  (906) 
[{'journal': {'name': 'Phytochemistry', 'id': 10}, 'title': 'Venusol from Gunnera perpensa: Structural and activity studies', 'year': 2004, 'start_page': None, 'volume': None, 'issue': None, 'doi': '10.1016/j.phytochem.2004.02.024', 'isbn': '', 'despositor': {'code': 'BND', 'first_name': "Bakary N'tji", 'last_name': 'Diallo', 'id': 26}, 'refauthors_set': [{'author': {'first_name': 'Khan', 'initials': 'KF', 'last_name': 'Fatima', 'id': 1046}, 'first_author': True, 'id': 1627}], 'id': 529}]

>  <classifications>  (906) 
[{'classification': 'Carboxylic acids and derivatives (Classyfire)', 'id': 950}]

>  <molecular_mass>  (906) 
118.09

$$$$
SANC01024_minRM1.pdb
     RDKit          3D

 12 11  0  0  1  0  0  0  0  0999 V2000
    1.5060    0.3890   -1.2540 C   0  0  0  0  0  0  0  0  0  0  0  0
    0.7110    0.1750    0.0290 C   0  0  1  0  0  0  0  0  0  0  0  0
   -0.7200   -0.2550   -0.2970 C   0  0  0  0  0  0  0  0  0  0  0  0
   -1.2770   -0.0720   -1.3620 O   0  0  0  0  0  0  0  0  0  0  0  0
   -1.4610   -0.8730    0.6490 O   0  0  0  0  0  0  0  0  0  0  0  0
    1.2980   -0.7590    0.8790 O   0  0  0  0  0  0  0  0  0  0  0  0
    1.5220   -0.5030   -1.8970 H   0  0  0  0  0  0  0  0  0  0  0  0
    1.0780    1.2020   -1.8580 H   0  0  0  0  0  0  0  0  0  0  0  0
    2.5510    0.6570   -1.0390 H   0  0  0  0  0  0  0  0  0  0  0  0
    0.6720    1.1140    0.6440 H   0  0  0  0  0  0  0  0  0  0  0  0
   -0.9760   -0.9440    1.4800 H   0  0  0  0  0  0  0  0  0  0  0  0
    1.5700   -1.5240    0.3600 H   0  0  0  0  0  0  0  0  0  0  0  0
  1  7  1  0
  1  8  1  0
  1  9  1  0
  1  2  1  0
  2  3  1  0
  2 10  1  1
  2  6  1  0
  3  4  2  0
  3  5  1  0
  5 11  1  0
  6 12  1  0
M  END
>  <id>  (907) 
1024

>  <scaffolds>  (907) 
[]

>  <name>  (907) 
Lactic acid

>  <formula>  (907) 
C3H6O3

>  <SMILES>  (907) 
CC(C(=O)O)O

>  <ChEMBL_id>  (907) 
CHEMBL1200559

>  <ZINC_id>  (907) 


>  <PubChem_id>  (907) 
612

>  <DrugBank_id>  (907) 


>  <CAS_no>  (907) 
50-21-5

>  <references>  (907) 
[{'journal': {'name': 'Phytochemistry', 'id': 10}, 'title': 'Venusol from Gunnera perpensa: Structural and activity studies', 'year': 2004, 'start_page': None, 'volume': None, 'issue': None, 'doi': '10.1016/j.phytochem.2004.02.024', 'isbn': '', 'despositor': {'code': 'BND', 'first_name': "Bakary N'tji", 'last_name': 'Diallo', 'id': 26}, 'refauthors_set': [{'author': {'first_name': 'Khan', 'initials': 'KF', 'last_name': 'Fatima', 'id': 1046}, 'first_author': True, 'id': 1627}], 'id': 529}]

>  <classifications>  (907) 
[{'classification': 'Hydroxy acids and derivatives (Classyfire)', 'id': 1010}]

>  <molecular_mass>  (907) 
90.08

$$$$
SANC01025_minRM1.pdb
     RDKit          3D

 15 15  0  0  0  0  0  0  0  0999 V2000
   -0.0250   -2.0690    0.0280 C   0  0  0  0  0  0  0  0  0  0  0  0
    1.1850   -1.3920    0.0230 C   0  0  0  0  0  0  0  0  0  0  0  0
    1.1870    0.0060   -0.0190 C   0  0  0  0  0  0  0  0  0  0  0  0
   -0.0190    0.7170   -0.0570 C   0  0  0  0  0  0  0  0  0  0  0  0
   -1.2260    0.0060   -0.0590 C   0  0  0  0  0  0  0  0  0  0  0  0
   -1.2360   -1.3860   -0.0080 C   0  0  0  0  0  0  0  0  0  0  0  0
   -2.3470    0.7690   -0.0850 O   0  0  0  0  0  0  0  0  0  0  0  0
    0.0510    2.0700   -0.1800 O   0  0  0  0  0  0  0  0  0  0  0  0
    2.4060    0.5900   -0.0260 O   0  0  0  0  0  0  0  0  0  0  0  0
   -0.0280   -3.1630    0.0610 H   0  0  0  0  0  0  0  0  0  0  0  0
    2.1330   -1.9370    0.0510 H   0  0  0  0  0  0  0  0  0  0  0  0
   -2.1760   -1.9430   -0.0040 H   0  0  0  0  0  0  0  0  0  0  0  0
   -3.1150    0.1890   -0.0500 H   0  0  0  0  0  0  0  0  0  0  0  0
   -0.6280    2.4460    0.3920 H   0  0  0  0  0  0  0  0  0  0  0  0
    2.3100    1.5490   -0.0650 H   0  0  0  0  0  0  0  0  0  0  0  0
  1  6  2  0
  1  2  1  0
  1 10  1  0
  2  3  2  0
  2 11  1  0
  3  4  1  0
  3  9  1  0
  4  8  1  0
  4  5  2  0
  5  7  1  0
  5  6  1  0
  6 12  1  0
  7 13  1  0
  8 14  1  0
  9 15  1  0
M  END
>  <id>  (908) 
1025

>  <scaffolds>  (908) 
['c1ccccc1']

>  <name>  (908) 
Pyrogallol

>  <formula>  (908) 
C6H6O3

>  <SMILES>  (908) 
C1=CC(=C(C(=C1)O)O)O

>  <ChEMBL_id>  (908) 
SCHEMBL3532

>  <ZINC_id>  (908) 
ZINC330141

>  <PubChem_id>  (908) 
1057

>  <DrugBank_id>  (908) 


>  <CAS_no>  (908) 
87-66-1

>  <references>  (908) 
[{'journal': {'name': 'Phytochemistry', 'id': 10}, 'title': 'Venusol from Gunnera perpensa: Structural and activity studies', 'year': 2004, 'start_page': None, 'volume': None, 'issue': None, 'doi': '10.1016/j.phytochem.2004.02.024', 'isbn': '', 'despositor': {'code': 'BND', 'first_name': "Bakary N'tji", 'last_name': 'Diallo', 'id': 26}, 'refauthors_set': [{'author': {'first_name': 'Khan', 'initials': 'KF', 'last_name': 'Fatima', 'id': 1046}, 'first_author': True, 'id': 1627}], 'id': 529}]

>  <classifications>  (908) 
[{'classification': 'Phenols', 'id': 895}, {'classification': 'Phenols (Classyfire)', 'id': 970}]

>  <molecular_mass>  (908) 
126.11

$$$$
SANC01026_minRM1.pdb
     RDKit          3D

 28 28  0  0  0  0  0  0  0  0999 V2000
    2.5940   -1.4400    1.2920 C   0  0  0  0  0  0  0  0  0  0  0  0
    1.9790   -0.4590    0.3660 C   0  0  0  0  0  0  0  0  0  0  0  0
    2.3870    0.8070    0.2630 C   0  0  0  0  0  0  0  0  0  0  0  0
    1.7280    1.7410   -0.6710 C   0  0  0  0  0  0  0  0  0  0  0  0
    2.2360    2.8050   -0.9770 O   0  0  0  0  0  0  0  0  0  0  0  0
    0.4100    1.3330   -1.1980 C   0  0  0  0  0  0  0  0  0  0  0  0
   -0.0060    0.0690   -1.0970 C   0  0  0  0  0  0  0  0  0  0  0  0
    0.8700   -0.9610   -0.4850 C   0  0  0  0  0  0  0  0  0  0  0  0
    0.7060   -2.1490   -0.6870 O   0  0  0  0  0  0  0  0  0  0  0  0
   -1.3350   -0.4000   -1.5860 C   0  0  0  0  0  0  0  0  0  0  0  0
   -2.0760   -1.0090   -0.4430 C   0  0  0  0  0  0  0  0  0  0  0  0
   -2.8270   -0.3000    0.4030 C   0  0  0  0  0  0  0  0  0  0  0  0
   -3.0030    1.1720    0.2870 C   0  0  0  0  0  0  0  0  0  0  0  0
   -3.5560   -0.9490    1.5260 C   0  0  0  0  0  0  0  0  0  0  0  0
    3.4070   -1.0160    1.8990 H   0  0  0  0  0  0  0  0  0  0  0  0
    1.8470   -1.8480    1.9910 H   0  0  0  0  0  0  0  0  0  0  0  0
    3.0140   -2.2970    0.7420 H   0  0  0  0  0  0  0  0  0  0  0  0
    3.2190    1.2100    0.8500 H   0  0  0  0  0  0  0  0  0  0  0  0
   -0.1910    2.1180   -1.6700 H   0  0  0  0  0  0  0  0  0  0  0  0
   -1.1850   -1.1450   -2.3990 H   0  0  0  0  0  0  0  0  0  0  0  0
   -1.9130    0.4150   -2.0720 H   0  0  0  0  0  0  0  0  0  0  0  0
   -1.9590   -2.0920   -0.3350 H   0  0  0  0  0  0  0  0  0  0  0  0
   -3.6390    1.4320   -0.5740 H   0  0  0  0  0  0  0  0  0  0  0  0
   -2.0450    1.6970    0.1530 H   0  0  0  0  0  0  0  0  0  0  0  0
   -3.4790    1.6200    1.1720 H   0  0  0  0  0  0  0  0  0  0  0  0
   -3.1910   -0.5860    2.5000 H   0  0  0  0  0  0  0  0  0  0  0  0
   -4.6340   -0.7290    1.4850 H   0  0  0  0  0  0  0  0  0  0  0  0
   -3.4590   -2.0440    1.5440 H   0  0  0  0  0  0  0  0  0  0  0  0
  1  2  1  0
  1 17  1  0
  1 15  1  0
  1 16  1  0
  2  8  1  0
  2  3  2  0
  3  4  1  0
  3 18  1  0
  4  6  1  0
  4  5  2  0
  6 19  1  0
  6  7  2  0
  7 10  1  0
  7  8  1  0
  8  9  2  0
 10 20  1  0
 10 21  1  0
 10 11  1  0
 11 22  1  0
 11 12  2  0
 12 13  1  0
 12 14  1  0
 13 23  1  0
 13 24  1  0
 13 25  1  0
 14 27  1  0
 14 28  1  0
 14 26  1  0
M  END
>  <id>  (909) 
1026

>  <scaffolds>  (909) 
[]

>  <name>  (909) 
2-methyl-6-(3-methyl-2-butenyl)benzo-1,4-quinone

>  <formula>  (909) 
C12H14O2

>  <SMILES>  (909) 
CC1=CC(=O)C=C(C1=O)CC=C(C)C

>  <ChEMBL_id>  (909) 


>  <ZINC_id>  (909) 


>  <PubChem_id>  (909) 
6480938

>  <DrugBank_id>  (909) 


>  <CAS_no>  (909) 
131221-81-3

>  <references>  (909) 
[{'journal': {'name': 'Phytochemistry', 'id': 10}, 'title': 'Simple 1,4-benzoquinones with antibacterial activity from stems and leaves of Gunnera perpensa', 'year': 2005, 'start_page': None, 'volume': None, 'issue': None, 'doi': '10.1016/j.phytochem.2005.05.024', 'isbn': '', 'despositor': {'code': 'BND', 'first_name': "Bakary N'tji", 'last_name': 'Diallo', 'id': 26}, 'refauthors_set': [{'author': {'first_name': 'Drewes', 'initials': 'DS', 'last_name': 'Siegfried', 'id': 1047}, 'first_author': True, 'id': 1628}], 'id': 530}]

>  <classifications>  (909) 
[{'classification': 'Phenol lipids', 'id': 899}, {'classification': 'Phenol lipids (Classyfire)', 'id': 951}]

>  <molecular_mass>  (909) 
190.24

$$$$
SANC01027_minRM1.pdb
     RDKit          3D

 61 60  0  0  1  0  0  0  0  0999 V2000
    2.3670   -1.0810    0.8100 C   0  0  0  0  0  0  0  0  0  0  0  0
    2.7400    0.2050    0.0850 C   0  0  1  0  0  0  0  0  0  0  0  0
    1.5220    1.1360   -0.0200 C   0  0  0  0  0  0  0  0  0  0  0  0
    0.4040    0.5350   -0.8670 C   0  0  0  0  0  0  0  0  0  0  0  0
   -0.5790    1.5940   -1.3630 C   0  0  0  0  0  0  0  0  0  0  0  0
   -1.2690    2.3770   -0.2460 C   0  0  1  0  0  0  0  0  0  0  0  0
   -2.2140    3.4050   -0.8650 C   0  0  0  0  0  0  0  0  0  0  0  0
   -2.0150    1.4880    0.7520 C   0  0  0  0  0  0  0  0  0  0  0  0
   -3.0720    0.5940    0.1140 C   0  0  0  0  0  0  0  0  0  0  0  0
   -3.8070   -0.2120    1.1880 C   0  0  0  0  0  0  0  0  0  0  0  0
   -4.8260   -1.0940    0.5420 C   0  0  0  0  0  0  0  0  0  0  0  0
   -6.1160   -0.7540    0.5070 C   0  0  0  0  0  0  0  0  0  0  0  0
   -7.1490   -1.6150   -0.1490 C   0  0  0  0  0  0  0  0  0  0  0  0
   -8.4370   -1.0970   -0.0010 O   0  0  0  0  0  0  0  0  0  0  0  0
   -4.3260   -2.3570   -0.0630 C   0  0  0  0  0  0  0  0  0  0  0  0
    3.8610    0.9440    0.8270 C   0  0  0  0  0  0  0  0  0  0  0  0
    5.1440    0.1320    0.9930 C   0  0  0  0  0  0  0  0  0  0  0  0
    5.7150   -0.3310   -0.3440 C   0  0  0  0  0  0  0  0  0  0  0  0
    7.1940   -0.7190   -0.2330 C   0  0  2  0  0  0  0  0  0  0  0  0
    7.7100   -1.1500   -1.6040 C   0  0  0  0  0  0  0  0  0  0  0  0
    7.3930   -1.8520    0.7660 C   0  0  0  0  0  0  0  0  0  0  0  0
    1.5530   -1.6260    0.3110 H   0  0  0  0  0  0  0  0  0  0  0  0
    2.0400   -0.8980    1.8440 H   0  0  0  0  0  0  0  0  0  0  0  0
    3.2030   -1.7930    0.8620 H   0  0  0  0  0  0  0  0  0  0  0  0
    3.0870   -0.0450   -0.9500 H   0  0  0  0  0  0  0  0  0  0  0  0
    1.1470    1.3830    0.9960 H   0  0  0  0  0  0  0  0  0  0  0  0
    1.8370    2.1120   -0.4480 H   0  0  0  0  0  0  0  0  0  0  0  0
   -0.1320   -0.2600   -0.3090 H   0  0  0  0  0  0  0  0  0  0  0  0
    0.8290    0.0040   -1.7470 H   0  0  0  0  0  0  0  0  0  0  0  0
   -1.3310    1.1170   -2.0280 H   0  0  0  0  0  0  0  0  0  0  0  0
   -0.0500    2.3060   -2.0350 H   0  0  0  0  0  0  0  0  0  0  0  0
   -0.4890    2.9440    0.3280 H   0  0  0  0  0  0  0  0  0  0  0  0
   -1.6690    4.1630   -1.4470 H   0  0  0  0  0  0  0  0  0  0  0  0
   -2.7880    3.9540   -0.1040 H   0  0  0  0  0  0  0  0  0  0  0  0
   -2.9470    2.9620   -1.5530 H   0  0  0  0  0  0  0  0  0  0  0  0
   -2.4850    2.1310    1.5290 H   0  0  0  0  0  0  0  0  0  0  0  0
   -1.2900    0.8700    1.3250 H   0  0  0  0  0  0  0  0  0  0  0  0
   -3.8050    1.1910   -0.4670 H   0  0  0  0  0  0  0  0  0  0  0  0
   -2.6160   -0.0960   -0.6270 H   0  0  0  0  0  0  0  0  0  0  0  0
   -3.0960   -0.8180    1.7890 H   0  0  0  0  0  0  0  0  0  0  0  0
   -4.2750    0.4680    1.9330 H   0  0  0  0  0  0  0  0  0  0  0  0
   -6.4690    0.1870    0.9410 H   0  0  0  0  0  0  0  0  0  0  0  0
   -7.0010   -1.6520   -1.2520 H   0  0  0  0  0  0  0  0  0  0  0  0
   -7.0870   -2.6700    0.2120 H   0  0  0  0  0  0  0  0  0  0  0  0
   -8.6410   -1.0710    0.9390 H   0  0  0  0  0  0  0  0  0  0  0  0
   -3.2300   -2.4420   -0.0570 H   0  0  0  0  0  0  0  0  0  0  0  0
   -4.6380   -2.4640   -1.1130 H   0  0  0  0  0  0  0  0  0  0  0  0
   -4.7070   -3.2390    0.4760 H   0  0  0  0  0  0  0  0  0  0  0  0
    3.5020    1.2630    1.8300 H   0  0  0  0  0  0  0  0  0  0  0  0
    4.0940    1.8950    0.3020 H   0  0  0  0  0  0  0  0  0  0  0  0
    5.8890    0.7530    1.5370 H   0  0  0  0  0  0  0  0  0  0  0  0
    4.9730   -0.7330    1.6680 H   0  0  0  0  0  0  0  0  0  0  0  0
    5.1280   -1.1860   -0.7400 H   0  0  0  0  0  0  0  0  0  0  0  0
    5.6000    0.4680   -1.1080 H   0  0  0  0  0  0  0  0  0  0  0  0
    7.7840    0.1720    0.1050 H   0  0  0  0  0  0  0  0  0  0  0  0
    7.5840   -0.3640   -2.3620 H   0  0  0  0  0  0  0  0  0  0  0  0
    7.1930   -2.0430   -1.9830 H   0  0  0  0  0  0  0  0  0  0  0  0
    8.7820   -1.3930   -1.5820 H   0  0  0  0  0  0  0  0  0  0  0  0
    8.4230   -2.2370    0.7520 H   0  0  0  0  0  0  0  0  0  0  0  0
    7.2020   -1.5380    1.8020 H   0  0  0  0  0  0  0  0  0  0  0  0
    6.7340   -2.7080    0.5650 H   0  0  0  0  0  0  0  0  0  0  0  0
  1  2  1  0
  1 22  1  0
  1 24  1  0
  1 23  1  0
  2 25  1  6
  2  3  1  0
  2 16  1  0
  3  4  1  0
  3 27  1  0
  3 26  1  0
  4 29  1  0
  4  5  1  0
  4 28  1  0
  5 31  1  0
  5 30  1  0
  5  6  1  0
  6  7  1  0
  6 32  1  1
  6  8  1  0
  7 35  1  0
  7 33  1  0
  7 34  1  0
  8  9  1  0
  8 37  1  0
  8 36  1  0
  9 39  1  0
  9 38  1  0
  9 10  1  0
 10 11  1  0
 10 40  1  0
 10 41  1  0
 11 15  1  0
 11 12  2  0
 12 13  1  0
 12 42  1  0
 13 43  1  0
 13 14  1  0
 13 44  1  0
 14 45  1  0
 15 47  1  0
 15 46  1  0
 15 48  1  0
 16 50  1  0
 16 17  1  0
 16 49  1  0
 17 18  1  0
 17 51  1  0
 17 52  1  0
 18 54  1  0
 18 53  1  0
 18 19  1  0
 19 20  1  0
 19 55  1  1
 19 21  1  0
 20 56  1  0
 20 57  1  0
 20 58  1  0
 21 61  1  0
 21 59  1  0
 21 60  1  0
M  END
>  <id>  (910) 
1027

>  <scaffolds>  (910) 
[]

>  <name>  (910) 
Phytol

>  <formula>  (910) 
C20H40O

>  <SMILES>  (910) 
C[C@@H](CCC[C@@H](C)CCC/C(=C/CO)/C)CCCC(C)C

>  <ChEMBL_id>  (910) 
CHEMBL1644111

>  <ZINC_id>  (910) 
ZINC3861087

>  <PubChem_id>  (910) 
5280435

>  <DrugBank_id>  (910) 


>  <CAS_no>  (910) 
150-86-7

>  <references>  (910) 
[{'journal': {'name': 'Phytochemistry', 'id': 10}, 'title': 'Simple 1,4-benzoquinones with antibacterial activity from stems and leaves of Gunnera perpensa', 'year': 2005, 'start_page': None, 'volume': None, 'issue': None, 'doi': '10.1016/j.phytochem.2005.05.024', 'isbn': '', 'despositor': {'code': 'BND', 'first_name': "Bakary N'tji", 'last_name': 'Diallo', 'id': 26}, 'refauthors_set': [{'author': {'first_name': 'Drewes', 'initials': 'DS', 'last_name': 'Siegfried', 'id': 1047}, 'first_author': True, 'id': 1628}], 'id': 530}]

>  <classifications>  (910) 
[{'classification': 'Diterpene', 'id': 771}, {'classification': 'Phenol lipids (Classyfire)', 'id': 951}]

>  <molecular_mass>  (910) 
296.5

$$$$
SANC01028_minRM1.pdb
     RDKit          3D

 28 29  0  0  0  0  0  0  0  0999 V2000
   -0.5980    2.7640   -0.1160 C   0  0  0  0  0  0  0  0  0  0  0  0
   -0.9790    1.3300   -0.0560 C   0  0  0  0  0  0  0  0  0  0  0  0
   -2.2990    0.9480    0.1220 C   0  0  0  0  0  0  0  0  0  0  0  0
   -2.6200   -0.4150    0.1730 C   0  0  0  0  0  0  0  0  0  0  0  0
   -1.6530   -1.4070    0.0520 C   0  0  0  0  0  0  0  0  0  0  0  0
   -0.3270   -1.0220   -0.1350 C   0  0  0  0  0  0  0  0  0  0  0  0
   -0.0000    0.3320   -0.1850 C   0  0  0  0  0  0  0  0  0  0  0  0
    1.2670    0.7610   -0.4520 O   0  0  0  0  0  0  0  0  0  0  0  0
    2.3190   -0.1040   -0.0590 C   0  0  0  0  0  0  0  0  0  0  0  0
    2.0070   -1.5580   -0.2590 C   0  0  0  0  0  0  0  0  0  0  0  0
    0.7450   -1.9880   -0.2830 C   0  0  0  0  0  0  0  0  0  0  0  0
    2.6190    0.1420    1.4230 C   0  0  0  0  0  0  0  0  0  0  0  0
    3.4960    0.3230   -0.9410 C   0  0  0  0  0  0  0  0  0  0  0  0
   -3.9400   -0.6830    0.3560 O   0  0  0  0  0  0  0  0  0  0  0  0
   -1.4470    3.4480    0.0260 H   0  0  0  0  0  0  0  0  0  0  0  0
   -0.1420    3.0150   -1.0860 H   0  0  0  0  0  0  0  0  0  0  0  0
    0.1470    3.0110    0.6570 H   0  0  0  0  0  0  0  0  0  0  0  0
   -3.0920    1.6950    0.2250 H   0  0  0  0  0  0  0  0  0  0  0  0
   -1.9110   -2.4680    0.0960 H   0  0  0  0  0  0  0  0  0  0  0  0
    2.8620   -2.2300   -0.3530 H   0  0  0  0  0  0  0  0  0  0  0  0
    0.4830   -3.0420   -0.4140 H   0  0  0  0  0  0  0  0  0  0  0  0
    2.8540    1.1970    1.6240 H   0  0  0  0  0  0  0  0  0  0  0  0
    3.4760   -0.4530    1.7660 H   0  0  0  0  0  0  0  0  0  0  0  0
    1.7640   -0.1210    2.0620 H   0  0  0  0  0  0  0  0  0  0  0  0
    4.4130   -0.2190   -0.6720 H   0  0  0  0  0  0  0  0  0  0  0  0
    3.3000    0.1290   -2.0060 H   0  0  0  0  0  0  0  0  0  0  0  0
    3.7150    1.3960   -0.8480 H   0  0  0  0  0  0  0  0  0  0  0  0
   -4.0680   -1.6380    0.3280 H   0  0  0  0  0  0  0  0  0  0  0  0
  1 16  1  0
  1  2  1  0
  1 15  1  0
  1 17  1  0
  2  7  2  0
  2  3  1  0
  3  4  2  0
  3 18  1  0
  4  5  1  0
  4 14  1  0
  5  6  2  0
  5 19  1  0
  6 11  1  0
  6  7  1  0
  7  8  1  0
  8  9  1  0
  9 13  1  0
  9 10  1  0
  9 12  1  0
 10 20  1  0
 10 11  2  0
 11 21  1  0
 12 22  1  0
 12 23  1  0
 12 24  1  0
 13 26  1  0
 13 27  1  0
 13 25  1  0
 14 28  1  0
M  END
>  <id>  (911) 
1028

>  <scaffolds>  (911) 
['c1ccccc1', 'C1=Cc2ccccc2OC1']

>  <name>  (911) 
Pterochromene L1

>  <formula>  (911) 
C12H14O2

>  <SMILES>  (911) 
CC1=CC(=CC2=C1OC(C=C2)(C)C)O

>  <ChEMBL_id>  (911) 


>  <ZINC_id>  (911) 


>  <PubChem_id>  (911) 
14761705

>  <DrugBank_id>  (911) 


>  <CAS_no>  (911) 
67349-41-1

>  <references>  (911) 
[{'journal': {'name': 'Phytochemistry', 'id': 10}, 'title': 'Simple 1,4-benzoquinones with antibacterial activity from stems and leaves of Gunnera perpensa', 'year': 2005, 'start_page': None, 'volume': None, 'issue': None, 'doi': '10.1016/j.phytochem.2005.05.024', 'isbn': '', 'despositor': {'code': 'BND', 'first_name': "Bakary N'tji", 'last_name': 'Diallo', 'id': 26}, 'refauthors_set': [{'author': {'first_name': 'Drewes', 'initials': 'DS', 'last_name': 'Siegfried', 'id': 1047}, 'first_author': True, 'id': 1628}], 'id': 530}]

>  <classifications>  (911) 
[{'classification': 'Benzopyrans', 'id': 932}, {'classification': 'Benzopyrans (Classyfire)', 'id': 966}]

>  <molecular_mass>  (911) 
190.24

$$$$
SANC01029_minRM1.pdb
     RDKit          3D

 84 90  0  0  1  0  0  0  0  0999 V2000
   -7.9780    2.0480    0.4240 C   0  0  0  0  0  0  0  0  0  0  0  0
   -6.7440    1.3430    0.9960 C   0  0  1  0  0  0  0  0  0  0  0  0
   -6.4400   -0.0150    0.2920 C   0  0  2  0  0  0  0  0  0  0  0  0
   -5.4880    0.0710   -0.9520 C   0  0  1  0  0  0  0  0  0  0  0  0
   -4.8070    1.4630   -1.0720 C   0  0  2  0  0  0  0  0  0  0  0  0
   -4.5060    1.9330    0.3690 C   0  0  1  0  0  0  0  0  0  0  0  0
   -5.7050    2.2950    0.9790 O   0  0  0  0  0  0  0  0  0  0  0  0
   -4.0020    0.9560    1.2430 O   0  0  0  0  0  0  0  0  0  0  0  0
   -3.0940   -0.0200    0.8400 C   0  0  2  0  0  0  0  0  0  0  0  0
   -1.6400    0.4490    0.9480 C   0  0  0  0  0  0  0  0  0  0  0  0
   -0.6870   -0.7730    0.9330 C   0  0  2  0  0  0  0  0  0  0  0  0
    0.7240   -0.3090    0.4760 C   0  0  1  0  0  0  0  0  0  0  0  0
    1.3950    0.6000    1.5200 C   0  0  1  0  0  0  0  0  0  0  0  0
    2.8580    0.9440    1.2350 C   0  0  0  0  0  0  0  0  0  0  0  0
    3.2950    1.9450    1.7800 O   0  0  0  0  0  0  0  0  0  0  0  0
    3.7860    0.0780    0.4070 C   0  0  2  0  0  0  0  0  0  0  0  0
    4.5700    0.9890   -0.5890 C   0  0  2  0  0  0  0  0  0  0  0  0
    4.0570    0.6550   -1.9990 C   0  0  0  0  0  0  0  0  0  0  0  0
    2.7510   -0.1000   -1.7810 C   0  0  0  0  0  0  0  0  0  0  0  0
    3.0020   -0.9060   -0.4950 C   0  0  2  0  0  0  0  0  0  0  0  0
    1.6920   -1.4660    0.1510 C   0  0  2  0  0  0  0  0  0  0  0  0
    1.0450   -2.4540   -0.8320 C   0  0  0  0  0  0  0  0  0  0  0  0
   -0.2750   -3.0010   -0.2870 C   0  0  2  0  0  0  0  0  0  0  0  0
   -1.1870   -1.8330   -0.0150 C   0  0  0  0  0  0  0  0  0  0  0  0
   -2.3620   -1.8020   -0.6480 C   0  0  0  0  0  0  0  0  0  0  0  0
   -3.2410   -0.5980   -0.5750 C   0  0  1  0  0  0  0  0  0  0  0  0
   -4.5670   -0.9860   -0.8320 O   0  0  0  0  0  0  0  0  0  0  0  0
    0.0340   -3.7620    0.8400 O   0  0  0  0  0  0  0  0  0  0  0  0
    2.0300   -2.0670    1.3550 O   0  0  0  0  0  0  0  0  0  0  0  0
    3.8430   -2.0000   -0.7190 O   0  0  0  0  0  0  0  0  0  0  0  0
    6.0520    0.8610   -0.4880 C   0  0  0  0  0  0  0  0  0  0  0  0
    6.7870    1.8770    0.0280 C   0  0  0  0  0  0  0  0  0  0  0  0
    8.1300    1.8550    0.1340 O   0  0  0  0  0  0  0  0  0  0  0  0
    8.8270    0.7390   -0.2980 C   0  0  0  0  0  0  0  0  0  0  0  0
   10.0300    0.8510   -0.1650 O   0  0  0  0  0  0  0  0  0  0  0  0
    8.0790   -0.3840   -0.8340 C   0  0  0  0  0  0  0  0  0  0  0  0
    6.7370   -0.3240   -0.9240 C   0  0  0  0  0  0  0  0  0  0  0  0
    4.6880   -0.5920    1.4430 C   0  0  0  0  0  0  0  0  0  0  0  0
    0.6960    1.8110    1.4890 O   0  0  0  0  0  0  0  0  0  0  0  0
   -0.7080   -1.3650    2.3470 C   0  0  0  0  0  0  0  0  0  0  0  0
   -5.5550    2.4060   -1.7480 O   0  0  0  0  0  0  0  0  0  0  0  0
   -6.1560   -0.1040   -2.1570 O   0  0  0  0  0  0  0  0  0  0  0  0
   -6.4040   -1.4180   -2.5940 C   0  0  0  0  0  0  0  0  0  0  0  0
   -7.6200   -0.5750   -0.1910 O   0  0  0  0  0  0  0  0  0  0  0  0
   -7.9590    2.1080   -0.6760 H   0  0  0  0  0  0  0  0  0  0  0  0
   -8.9080    1.5300    0.6950 H   0  0  0  0  0  0  0  0  0  0  0  0
   -8.0720    3.0770    0.8010 H   0  0  0  0  0  0  0  0  0  0  0  0
   -6.9170    1.1360    2.0870 H   0  0  0  0  0  0  0  0  0  0  0  0
   -5.9600   -0.6860    1.0610 H   0  0  0  0  0  0  0  0  0  0  0  0
   -3.8780    1.4310   -1.7060 H   0  0  0  0  0  0  0  0  0  0  0  0
   -3.8790    2.8620    0.4030 H   0  0  0  0  0  0  0  0  0  0  0  0
   -3.3250   -0.8090    1.6070 H   0  0  0  0  0  0  0  0  0  0  0  0
   -1.4030    1.1750    0.1420 H   0  0  0  0  0  0  0  0  0  0  0  0
   -1.5210    1.0450    1.8780 H   0  0  0  0  0  0  0  0  0  0  0  0
    0.5910    0.2720   -0.4790 H   0  0  0  0  0  0  0  0  0  0  0  0
    1.3870    0.1120    2.5350 H   0  0  0  0  0  0  0  0  0  0  0  0
    4.3080    2.0640   -0.3980 H   0  0  0  0  0  0  0  0  0  0  0  0
    4.7710    0.0520   -2.5940 H   0  0  0  0  0  0  0  0  0  0  0  0
    3.9130    1.5670   -2.6110 H   0  0  0  0  0  0  0  0  0  0  0  0
    2.4750   -0.7180   -2.6570 H   0  0  0  0  0  0  0  0  0  0  0  0
    1.8920    0.5930   -1.6490 H   0  0  0  0  0  0  0  0  0  0  0  0
    0.8460   -1.9690   -1.8090 H   0  0  0  0  0  0  0  0  0  0  0  0
    1.7200   -3.3060   -1.0620 H   0  0  0  0  0  0  0  0  0  0  0  0
   -0.7270   -3.6850   -1.0650 H   0  0  0  0  0  0  0  0  0  0  0  0
   -2.7200   -2.6190   -1.2850 H   0  0  0  0  0  0  0  0  0  0  0  0
   -2.8660    0.1070   -1.3760 H   0  0  0  0  0  0  0  0  0  0  0  0
   -0.7930   -3.9720    1.2860 H   0  0  0  0  0  0  0  0  0  0  0  0
    2.4330   -2.9250    1.1770 H   0  0  0  0  0  0  0  0  0  0  0  0
    3.7730   -2.2680   -1.6400 H   0  0  0  0  0  0  0  0  0  0  0  0
    6.4120    2.8290    0.4240 H   0  0  0  0  0  0  0  0  0  0  0  0
    8.6630   -1.2530   -1.1440 H   0  0  0  0  0  0  0  0  0  0  0  0
    6.1620   -1.1700   -1.3150 H   0  0  0  0  0  0  0  0  0  0  0  0
    5.3150    0.1490    1.9640 H   0  0  0  0  0  0  0  0  0  0  0  0
    4.1160   -1.1200    2.2200 H   0  0  0  0  0  0  0  0  0  0  0  0
    5.3760   -1.3350    1.0180 H   0  0  0  0  0  0  0  0  0  0  0  0
    0.9460    2.3290    2.2620 H   0  0  0  0  0  0  0  0  0  0  0  0
   -1.6210   -1.9520    2.5320 H   0  0  0  0  0  0  0  0  0  0  0  0
   -0.6930   -0.5940    3.1330 H   0  0  0  0  0  0  0  0  0  0  0  0
    0.1310   -2.0320    2.5810 H   0  0  0  0  0  0  0  0  0  0  0  0
   -6.4780    2.3640   -1.4640 H   0  0  0  0  0  0  0  0  0  0  0  0
   -6.6710   -2.1450   -1.8120 H   0  0  0  0  0  0  0  0  0  0  0  0
   -5.5380   -1.8160   -3.1480 H   0  0  0  0  0  0  0  0  0  0  0  0
   -7.2540   -1.3080   -3.2840 H   0  0  0  0  0  0  0  0  0  0  0  0
   -8.1490   -0.8270    0.5730 H   0  0  0  0  0  0  0  0  0  0  0  0
  1 45  1  0
  1 46  1  0
  1 47  1  0
  1  2  1  0
  2  3  1  0
  2  7  1  0
  2 48  1  1
  3  4  1  0
  3 44  1  0
  3 49  1  1
  4 42  1  6
  4  5  1  0
  4 27  1  0
  5 41  1  0
  5 50  1  6
  5  6  1  0
  6 51  1  6
  6  7  1  0
  6  8  1  0
  8  9  1  0
  9 26  1  0
  9 10  1  0
  9 52  1  1
 10 53  1  0
 10 11  1  0
 10 54  1  0
 11 24  1  0
 11 12  1  0
 11 40  1  1
 12 55  1  6
 12 21  1  0
 12 13  1  0
 13 14  1  0
 13 39  1  0
 13 56  1  1
 14 16  1  0
 14 15  2  0
 16 17  1  0
 16 20  1  0
 16 38  1  1
 17 18  1  0
 17 31  1  0
 17 57  1  1
 18 59  1  0
 18 58  1  0
 18 19  1  0
 19 60  1  0
 19 61  1  0
 19 20  1  0
 20 30  1  6
 20 21  1  0
 21 22  1  0
 21 29  1  1
 22 62  1  0
 22 63  1  0
 22 23  1  0
 23 64  1  6
 23 24  1  0
 23 28  1  0
 24 25  2  0
 25 65  1  0
 25 26  1  0
 26 66  1  6
 26 27  1  0
 28 67  1  0
 29 68  1  0
 30 69  1  0
 31 37  1  0
 31 32  2  0
 32 33  1  0
 32 70  1  0
 33 34  1  0
 34 36  1  0
 34 35  2  0
 36 71  1  0
 36 37  2  0
 37 72  1  0
 38 75  1  0
 38 73  1  0
 38 74  1  0
 39 76  1  0
 40 77  1  0
 40 79  1  0
 40 78  1  0
 41 80  1  0
 42 43  1  0
 43 83  1  0
 43 82  1  0
 43 81  1  0
 44 84  1  0
M  END
>  <id>  (912) 
1029

>  <scaffolds>  (912) 
['C1=CCCCC1', 'C=C1CCC2CCCCC2C1', 'C1CCOCC1', 'C1CCC(C2CCCC2)CC1', 'C1CCCCC1', 'O=C1CC2C3CCCC=C3CCC2C2CCC(c3ccc(=O)oc3)C12', 'C1=C2CCCCC2CCC1', 'O=c1ccc(C2CCC3C2CCC2C4CCCC=C4CCC23)co1', 'C1CCC2CCCCC2C1']

>  <name>  (912) 
Rubellin

>  <formula>  (912) 
C31H40O13

>  <SMILES>  (912) 
C[C@H]1[C@H]([C@]2([C@H]([C@@H](O1)O[C@@H]3C[C@@]4([C@H]5[C@@H](C(=O)[C@@]6([C@H](CC[C@@]6([C@@]5(C[C@H](C4=C[C@H]3O2)O)O)O)C7=COC(=O)C=C7)C)O)C)O)OC)O

>  <ChEMBL_id>  (912) 


>  <ZINC_id>  (912) 


>  <PubChem_id>  (912) 
102150680

>  <DrugBank_id>  (912) 


>  <CAS_no>  (912) 
110237-76-8

>  <references>  (912) 
[{'journal': {'name': 'Phytochemistry', 'id': 10}, 'title': 'Bufadienolides from Drimia macrocentra and Urginea riparia (Hyacinthaceae: Urgineoideae)', 'year': 2007, 'start_page': None, 'volume': None, 'issue': None, 'doi': '10.1016/j.phytochem.2007.05.023', 'isbn': '', 'despositor': {'code': 'BND', 'first_name': "Bakary N'tji", 'last_name': 'Diallo', 'id': 26}, 'refauthors_set': [{'author': {'first_name': 'Moodley', 'initials': 'MN', 'last_name': 'Nivan', 'id': 1048}, 'first_author': True, 'id': 1629}], 'id': 531}]

>  <classifications>  (912) 
[{'classification': 'Phenol lipids (Classyfire)', 'id': 951}]

>  <molecular_mass>  (912) 
620.6

$$$$
SANC01030_minRM1.pdb
     RDKit          3D

 39 41  0  0  0  0  0  0  0  0999 V2000
   -6.4150   -0.8800    0.3870 C   0  0  0  0  0  0  0  0  0  0  0  0
   -5.4480    0.1330    0.2780 O   0  0  0  0  0  0  0  0  0  0  0  0
   -4.1410   -0.2630    0.2200 C   0  0  0  0  0  0  0  0  0  0  0  0
   -3.2740    0.7370   -0.2250 C   0  0  0  0  0  0  0  0  0  0  0  0
   -1.9100    0.4680   -0.2860 C   0  0  0  0  0  0  0  0  0  0  0  0
   -1.4480   -0.7910    0.0910 C   0  0  0  0  0  0  0  0  0  0  0  0
   -2.3150   -1.7930    0.5360 C   0  0  0  0  0  0  0  0  0  0  0  0
   -3.6710   -1.5230    0.6030 C   0  0  0  0  0  0  0  0  0  0  0  0
   -0.1300   -1.1550    0.0580 O   0  0  0  0  0  0  0  0  0  0  0  0
    0.7750   -0.2170   -0.3440 C   0  0  0  0  0  0  0  0  0  0  0  0
    0.4320    1.0240   -0.7550 C   0  0  0  0  0  0  0  0  0  0  0  0
   -0.9580    1.4870   -0.7500 C   0  0  0  0  0  0  0  0  0  0  0  0
   -1.3010    2.6050   -1.0950 O   0  0  0  0  0  0  0  0  0  0  0  0
    1.4090    1.8100   -1.2940 O   0  0  0  0  0  0  0  0  0  0  0  0
    1.5520    3.0590   -0.6520 C   0  0  0  0  0  0  0  0  0  0  0  0
    2.1250   -0.7740   -0.3140 C   0  0  0  0  0  0  0  0  0  0  0  0
    2.4260   -1.8900   -1.0850 C   0  0  0  0  0  0  0  0  0  0  0  0
    3.7140   -2.4110   -1.0830 C   0  0  0  0  0  0  0  0  0  0  0  0
    4.7010   -1.8170   -0.3080 C   0  0  0  0  0  0  0  0  0  0  0  0
    4.4190   -0.7070    0.4790 C   0  0  0  0  0  0  0  0  0  0  0  0
    3.1250   -0.1890    0.4770 C   0  0  0  0  0  0  0  0  0  0  0  0
    2.7050    0.8750    1.2160 O   0  0  0  0  0  0  0  0  0  0  0  0
    3.6470    1.4930    2.0570 C   0  0  0  0  0  0  0  0  0  0  0  0
   -6.4290   -1.3510    1.3840 H   0  0  0  0  0  0  0  0  0  0  0  0
   -7.3660   -0.3450    0.2410 H   0  0  0  0  0  0  0  0  0  0  0  0
   -6.3280   -1.6650   -0.3810 H   0  0  0  0  0  0  0  0  0  0  0  0
   -3.6570    1.7220   -0.5190 H   0  0  0  0  0  0  0  0  0  0  0  0
   -1.9250   -2.7730    0.8290 H   0  0  0  0  0  0  0  0  0  0  0  0
   -4.3440   -2.3070    0.9600 H   0  0  0  0  0  0  0  0  0  0  0  0
    2.5900    3.3560   -0.8700 H   0  0  0  0  0  0  0  0  0  0  0  0
    1.4110    3.0350    0.4400 H   0  0  0  0  0  0  0  0  0  0  0  0
    0.8730    3.8140   -1.0810 H   0  0  0  0  0  0  0  0  0  0  0  0
    1.6460   -2.3550   -1.6960 H   0  0  0  0  0  0  0  0  0  0  0  0
    3.9490   -3.2870   -1.6940 H   0  0  0  0  0  0  0  0  0  0  0  0
    5.7170   -2.2270   -0.3140 H   0  0  0  0  0  0  0  0  0  0  0  0
    5.2220   -0.2700    1.0760 H   0  0  0  0  0  0  0  0  0  0  0  0
    4.4890    1.9480    1.5080 H   0  0  0  0  0  0  0  0  0  0  0  0
    3.0670    2.2950    2.5400 H   0  0  0  0  0  0  0  0  0  0  0  0
    4.0420    0.8230    2.8390 H   0  0  0  0  0  0  0  0  0  0  0  0
  1 26  1  0
  1 25  1  0
  1  2  1  0
  1 24  1  0
  2  3  1  0
  3  4  2  0
  3  8  1  0
  4 27  1  0
  4  5  1  0
  5 12  1  0
  5  6  2  0
  6  9  1  0
  6  7  1  0
  7  8  2  0
  7 28  1  0
  8 29  1  0
  9 10  1  0
 10 11  2  0
 10 16  1  0
 11 14  1  0
 11 12  1  0
 12 13  2  0
 14 15  1  0
 15 32  1  0
 15 30  1  0
 15 31  1  0
 16 17  2  0
 16 21  1  0
 17 33  1  0
 17 18  1  0
 18 34  1  0
 18 19  2  0
 19 35  1  0
 19 20  1  0
 20 21  2  0
 20 36  1  0
 21 22  1  0
 22 23  1  0
 23 37  1  0
 23 38  1  0
 23 39  1  0
M  END
>  <id>  (913) 
1030

>  <scaffolds>  (913) 
['c1ccccc1', 'O=c1cc(-c2ccccc2)oc2ccccc12', 'O=c1ccoc2ccccc12']

>  <name>  (913) 
2',5,6-Trimethoxyflavone

>  <formula>  (913) 
C18H16O5

>  <SMILES>  (913) 
COC1=C(C2=C(C=C1)OC(=CC2=O)C3=CC=CC=C3OC)OC

>  <ChEMBL_id>  (913) 


>  <ZINC_id>  (913) 
ZINC14807241

>  <PubChem_id>  (913) 
14484690

>  <DrugBank_id>  (913) 


>  <CAS_no>  (913) 
16266-97-0

>  <references>  (913) 
[{'journal': {'name': 'Phytochemistry', 'id': 10}, 'title': 'Flavones from Struthiola argentea with anthelmintic activity in vitro', 'year': 2008, 'start_page': None, 'volume': None, 'issue': None, 'doi': '10.1016/j.phytochem.2007.08.003', 'isbn': '', 'despositor': {'code': 'BND', 'first_name': "Bakary N'tji", 'last_name': 'Diallo', 'id': 26}, 'refauthors_set': [{'author': {'first_name': 'Ayers', 'initials': 'AS', 'last_name': 'Sloan', 'id': 1049}, 'first_author': True, 'id': 1630}], 'id': 532}]

>  <classifications>  (913) 
[{'classification': 'Flavonoids', 'id': 776}, {'classification': 'Flavonoids (Classyfire)', 'id': 941}]

>  <molecular_mass>  (913) 
312.3

$$$$
SANC01031_minRM1.pdb
     RDKit          3D

 43 45  0  0  0  0  0  0  0  0999 V2000
   -2.3530    2.4440   -1.9070 C   0  0  0  0  0  0  0  0  0  0  0  0
   -2.9400    2.3570   -0.6280 O   0  0  0  0  0  0  0  0  0  0  0  0
   -3.4360    1.1080   -0.3590 C   0  0  0  0  0  0  0  0  0  0  0  0
   -2.5840    0.0840    0.0500 C   0  0  0  0  0  0  0  0  0  0  0  0
   -3.1560   -1.1490    0.4040 C   0  0  0  0  0  0  0  0  0  0  0  0
   -4.5360   -1.3450    0.3390 C   0  0  0  0  0  0  0  0  0  0  0  0
   -5.3520   -0.2980   -0.0750 C   0  0  0  0  0  0  0  0  0  0  0  0
   -4.8170    0.9320   -0.4300 C   0  0  0  0  0  0  0  0  0  0  0  0
   -2.2550   -2.0790    0.8170 O   0  0  0  0  0  0  0  0  0  0  0  0
   -2.7460   -3.3420    1.1930 C   0  0  0  0  0  0  0  0  0  0  0  0
   -1.1440    0.3080    0.1380 C   0  0  0  0  0  0  0  0  0  0  0  0
   -0.5570    1.2980    0.8250 C   0  0  0  0  0  0  0  0  0  0  0  0
    0.9010    1.4210    0.8700 C   0  0  0  0  0  0  0  0  0  0  0  0
    1.4600    2.2700    1.5420 O   0  0  0  0  0  0  0  0  0  0  0  0
    1.6140    0.4240    0.0620 C   0  0  0  0  0  0  0  0  0  0  0  0
    0.8920   -0.5650   -0.5990 C   0  0  0  0  0  0  0  0  0  0  0  0
   -0.4710   -0.6400   -0.5790 O   0  0  0  0  0  0  0  0  0  0  0  0
    1.5060   -1.5730   -1.3540 C   0  0  0  0  0  0  0  0  0  0  0  0
    2.8830   -1.5770   -1.4460 C   0  0  0  0  0  0  0  0  0  0  0  0
    3.6400   -0.5950   -0.8000 C   0  0  0  0  0  0  0  0  0  0  0  0
    3.0180    0.4190   -0.0610 C   0  0  0  0  0  0  0  0  0  0  0  0
    3.6220    1.4920    0.4970 O   0  0  0  0  0  0  0  0  0  0  0  0
    4.9460    1.3580    0.9560 C   0  0  0  0  0  0  0  0  0  0  0  0
    4.9970   -0.5560   -0.9900 O   0  0  0  0  0  0  0  0  0  0  0  0
    5.6650   -1.6850   -0.4720 C   0  0  0  0  0  0  0  0  0  0  0  0
   -3.0790    2.2680   -2.7180 H   0  0  0  0  0  0  0  0  0  0  0  0
   -1.5000    1.7600   -2.0450 H   0  0  0  0  0  0  0  0  0  0  0  0
   -1.9920    3.4820   -1.9650 H   0  0  0  0  0  0  0  0  0  0  0  0
   -5.0020   -2.2960    0.6050 H   0  0  0  0  0  0  0  0  0  0  0  0
   -6.4360   -0.4490   -0.1230 H   0  0  0  0  0  0  0  0  0  0  0  0
   -5.4610    1.7550   -0.7480 H   0  0  0  0  0  0  0  0  0  0  0  0
   -3.2420   -3.8800    0.3690 H   0  0  0  0  0  0  0  0  0  0  0  0
   -1.8340   -3.8920    1.4750 H   0  0  0  0  0  0  0  0  0  0  0  0
   -3.4200   -3.3060    2.0640 H   0  0  0  0  0  0  0  0  0  0  0  0
   -1.1500    2.0360    1.3740 H   0  0  0  0  0  0  0  0  0  0  0  0
    0.9040   -2.3320   -1.8600 H   0  0  0  0  0  0  0  0  0  0  0  0
    3.3820   -2.3460   -2.0460 H   0  0  0  0  0  0  0  0  0  0  0  0
    5.1530    0.4100    1.4770 H   0  0  0  0  0  0  0  0  0  0  0  0
    5.6800    1.5040    0.1480 H   0  0  0  0  0  0  0  0  0  0  0  0
    5.0440    2.1870    1.6750 H   0  0  0  0  0  0  0  0  0  0  0  0
    5.4880   -2.5980   -1.0630 H   0  0  0  0  0  0  0  0  0  0  0  0
    6.7310   -1.4220   -0.5460 H   0  0  0  0  0  0  0  0  0  0  0  0
    5.4190   -1.9040    0.5800 H   0  0  0  0  0  0  0  0  0  0  0  0
  1 26  1  0
  1 27  1  0
  1 28  1  0
  1  2  1  0
  2  3  1  0
  3  8  2  0
  3  4  1  0
  4 11  1  0
  4  5  2  0
  5  6  1  0
  5  9  1  0
  6  7  2  0
  6 29  1  0
  7  8  1  0
  7 30  1  0
  8 31  1  0
  9 10  1  0
 10 32  1  0
 10 33  1  0
 10 34  1  0
 11 17  1  0
 11 12  2  0
 12 13  1  0
 12 35  1  0
 13 15  1  0
 13 14  2  0
 15 16  2  0
 15 21  1  0
 16 18  1  0
 16 17  1  0
 18 36  1  0
 18 19  2  0
 19 37  1  0
 19 20  1  0
 20 24  1  0
 20 21  2  0
 21 22  1  0
 22 23  1  0
 23 39  1  0
 23 38  1  0
 23 40  1  0
 24 25  1  0
 25 41  1  0
 25 42  1  0
 25 43  1  0
M  END
>  <id>  (914) 
1031

>  <scaffolds>  (914) 
['c1ccccc1', 'O=c1cc(-c2ccccc2)oc2ccccc12', 'O=c1ccoc2ccccc12']

>  <name>  (914) 
Zapotin

>  <formula>  (914) 
C19H18O6

>  <SMILES>  (914) 
COC1=C(C(=CC=C1)OC)C2=CC(=O)C3=C(O2)C=CC(=C3OC)OC

>  <ChEMBL_id>  (914) 
SCHEMBL3307703

>  <ZINC_id>  (914) 
ZINC14756841

>  <PubChem_id>  (914) 
629965

>  <DrugBank_id>  (914) 


>  <CAS_no>  (914) 
14813-19-5

>  <references>  (914) 
[{'journal': {'name': 'Phytochemistry', 'id': 10}, 'title': 'Flavones from Struthiola argentea with anthelmintic activity in vitro', 'year': 2008, 'start_page': None, 'volume': None, 'issue': None, 'doi': '10.1016/j.phytochem.2007.08.003', 'isbn': '', 'despositor': {'code': 'BND', 'first_name': "Bakary N'tji", 'last_name': 'Diallo', 'id': 26}, 'refauthors_set': [{'author': {'first_name': 'Ayers', 'initials': 'AS', 'last_name': 'Sloan', 'id': 1049}, 'first_author': True, 'id': 1630}], 'id': 532}]

>  <classifications>  (914) 
[{'classification': 'Flavones', 'id': 925}, {'classification': 'Flavonoids (Classyfire)', 'id': 941}]

>  <molecular_mass>  (914) 
342.3

$$$$
SANC01032_minRM1.pdb
     RDKit          3D

 58 63  0  0  0  0  0  0  0  0999 V2000
   -4.7370    2.2500    1.6830 C   0  0  0  0  0  0  0  0  0  0  0  0
   -4.9510    3.6160    1.6410 C   0  0  0  0  0  0  0  0  0  0  0  0
   -4.6860    4.3030    0.4490 C   0  0  0  0  0  0  0  0  0  0  0  0
   -4.2120    3.6430   -0.6860 C   0  0  0  0  0  0  0  0  0  0  0  0
   -4.0030    2.2720   -0.6240 C   0  0  0  0  0  0  0  0  0  0  0  0
   -4.2670    1.5780    0.5530 C   0  0  0  0  0  0  0  0  0  0  0  0
   -4.0740    0.1310    0.6260 C   0  0  0  0  0  0  0  0  0  0  0  0
   -4.9290   -0.7340    1.1900 C   0  0  0  0  0  0  0  0  0  0  0  0
   -4.6350   -2.1690    1.2240 C   0  0  0  0  0  0  0  0  0  0  0  0
   -5.3870   -2.9730    1.7480 O   0  0  0  0  0  0  0  0  0  0  0  0
   -3.3760   -2.5350    0.5790 C   0  0  0  0  0  0  0  0  0  0  0  0
   -2.5690   -1.5510    0.0090 C   0  0  0  0  0  0  0  0  0  0  0  0
   -2.8900   -0.2270    0.0410 O   0  0  0  0  0  0  0  0  0  0  0  0
   -1.3510   -1.8400   -0.6180 C   0  0  0  0  0  0  0  0  0  0  0  0
   -0.9580   -3.1810   -0.6770 C   0  0  0  0  0  0  0  0  0  0  0  0
   -1.7280   -4.2060   -0.1180 C   0  0  0  0  0  0  0  0  0  0  0  0
   -2.9290   -3.8670    0.5020 C   0  0  0  0  0  0  0  0  0  0  0  0
   -3.7330   -4.7860    1.0630 O   0  0  0  0  0  0  0  0  0  0  0  0
    0.1840   -3.5940   -1.2630 O   0  0  0  0  0  0  0  0  0  0  0  0
   -0.5380   -0.7810   -1.1960 C   0  0  0  0  0  0  0  0  0  0  0  0
   -1.0090   -0.0200   -2.2770 C   0  0  0  0  0  0  0  0  0  0  0  0
   -0.2430    1.0160   -2.8190 C   0  0  0  0  0  0  0  0  0  0  0  0
    1.0000    1.2960   -2.2720 C   0  0  0  0  0  0  0  0  0  0  0  0
    1.4730    0.5450   -1.1980 C   0  0  0  0  0  0  0  0  0  0  0  0
    0.7080   -0.4860   -0.6570 C   0  0  0  0  0  0  0  0  0  0  0  0
    2.7800    0.8730   -0.6310 C   0  0  0  0  0  0  0  0  0  0  0  0
    3.2050    2.1090   -0.3360 C   0  0  0  0  0  0  0  0  0  0  0  0
    4.5400    2.3340    0.2270 C   0  0  0  0  0  0  0  0  0  0  0  0
    4.9560    3.4510    0.4830 O   0  0  0  0  0  0  0  0  0  0  0  0
    5.3080    1.1100    0.4430 C   0  0  0  0  0  0  0  0  0  0  0  0
    6.5990    1.1140    0.9990 C   0  0  0  0  0  0  0  0  0  0  0  0
    7.3240   -0.0650    1.1830 C   0  0  0  0  0  0  0  0  0  0  0  0
    6.7300   -1.2700    0.7970 C   0  0  0  0  0  0  0  0  0  0  0  0
    5.4470   -1.3340    0.2500 C   0  0  0  0  0  0  0  0  0  0  0  0
    4.7670   -0.1280    0.0900 C   0  0  0  0  0  0  0  0  0  0  0  0
    3.5200   -0.2620   -0.4470 O   0  0  0  0  0  0  0  0  0  0  0  0
    7.3530   -2.4610    0.9280 O   0  0  0  0  0  0  0  0  0  0  0  0
    7.0840    2.3190    1.3410 O   0  0  0  0  0  0  0  0  0  0  0  0
   -2.2260   -0.3600   -2.7570 O   0  0  0  0  0  0  0  0  0  0  0  0
   -4.9240    5.6350    0.4870 O   0  0  0  0  0  0  0  0  0  0  0  0
   -4.9310    1.7000    2.6110 H   0  0  0  0  0  0  0  0  0  0  0  0
   -5.3190    4.1560    2.5180 H   0  0  0  0  0  0  0  0  0  0  0  0
   -4.0060    4.1840   -1.6130 H   0  0  0  0  0  0  0  0  0  0  0  0
   -3.6310    1.7390   -1.5060 H   0  0  0  0  0  0  0  0  0  0  0  0
   -5.8720   -0.4020    1.6300 H   0  0  0  0  0  0  0  0  0  0  0  0
   -1.3800   -5.2410   -0.1800 H   0  0  0  0  0  0  0  0  0  0  0  0
   -3.3420   -5.6640    0.9550 H   0  0  0  0  0  0  0  0  0  0  0  0
    0.6190   -2.8510   -1.7010 H   0  0  0  0  0  0  0  0  0  0  0  0
   -0.6080    1.6070   -3.6630 H   0  0  0  0  0  0  0  0  0  0  0  0
    1.6090    2.1040   -2.6920 H   0  0  0  0  0  0  0  0  0  0  0  0
    1.0800   -1.0580    0.2010 H   0  0  0  0  0  0  0  0  0  0  0  0
    2.5680    2.9830   -0.4900 H   0  0  0  0  0  0  0  0  0  0  0  0
    8.3270   -0.0460    1.6150 H   0  0  0  0  0  0  0  0  0  0  0  0
    5.0010   -2.2880   -0.0400 H   0  0  0  0  0  0  0  0  0  0  0  0
    8.2280   -2.3260    1.3110 H   0  0  0  0  0  0  0  0  0  0  0  0
    7.9690    2.2170    1.7150 H   0  0  0  0  0  0  0  0  0  0  0  0
   -2.4420    0.2160   -3.5000 H   0  0  0  0  0  0  0  0  0  0  0  0
   -4.7000    6.0200   -0.3680 H   0  0  0  0  0  0  0  0  0  0  0  0
  1  6  2  0
  1  2  1  0
  1 41  1  0
  2  3  2  0
  2 42  1  0
  3  4  1  0
  3 40  1  0
  4 43  1  0
  4  5  2  0
  5 44  1  0
  5  6  1  0
  6  7  1  0
  7 13  1  0
  7  8  2  0
  8  9  1  0
  8 45  1  0
  9 11  1  0
  9 10  2  0
 11 12  2  0
 11 17  1  0
 12 14  1  0
 12 13  1  0
 14 20  1  0
 14 15  2  0
 15 19  1  0
 15 16  1  0
 16 46  1  0
 16 17  2  0
 17 18  1  0
 18 47  1  0
 19 48  1  0
 20 21  2  0
 20 25  1  0
 21 22  1  0
 21 39  1  0
 22 49  1  0
 22 23  2  0
 23 50  1  0
 23 24  1  0
 24 25  2  0
 24 26  1  0
 25 51  1  0
 26 36  1  0
 26 27  2  0
 27 52  1  0
 27 28  1  0
 28 30  1  0
 28 29  2  0
 30 35  2  0
 30 31  1  0
 31 32  2  0
 31 38  1  0
 32 33  1  0
 32 53  1  0
 33 34  2  0
 33 37  1  0
 34 54  1  0
 34 35  1  0
 35 36  1  0
 37 55  1  0
 38 56  1  0
 39 57  1  0
 40 58  1  0
M  END
>  <id>  (915) 
1032

>  <scaffolds>  (915) 
['c1ccccc1', 'O=c1cc(-c2ccccc2)oc2ccccc12', 'O=c1ccoc2ccccc12', 'O=c1cc(-c2cccc(-c3cccc4c(=O)cc(-c5ccccc5)oc34)c2)oc2ccccc12']

>  <name>  (915) 
Amentoflavone

>  <formula>  (915) 
C30H18O10

>  <SMILES>  (915) 
C1=CC(=CC=C1C2=CC(=O)C3=C(O2)C(=C(C=C3O)O)C4=C(C=CC(=C4)C5=CC(=O)C6=C(C=C(C=C6O5)O)O)O)O

>  <ChEMBL_id>  (915) 
SCHEMBL312563

>  <ZINC_id>  (915) 
ZINC3984030

>  <PubChem_id>  (915) 
5281600

>  <DrugBank_id>  (915) 


>  <CAS_no>  (915) 
1617-53-4

>  <references>  (915) 
[{'journal': {'name': 'Phytochemistry', 'id': 10}, 'title': 'Flavones from Struthiola argentea with anthelmintic activity in vitro', 'year': 2008, 'start_page': None, 'volume': None, 'issue': None, 'doi': '10.1016/j.phytochem.2007.08.003', 'isbn': '', 'despositor': {'code': 'BND', 'first_name': "Bakary N'tji", 'last_name': 'Diallo', 'id': 26}, 'refauthors_set': [{'author': {'first_name': 'Ayers', 'initials': 'AS', 'last_name': 'Sloan', 'id': 1049}, 'first_author': True, 'id': 1630}], 'id': 532}]

>  <classifications>  (915) 
[{'classification': 'Flavonoids', 'id': 776}, {'classification': 'Flavonoids (Classyfire)', 'id': 941}]

>  <molecular_mass>  (915) 
538.5

$$$$
SANC01033_minRM1.pdb
     RDKit          3D

 71 75  0  0  1  0  0  0  0  0999 V2000
   -2.7130   -5.1910   -0.0400 C   0  0  0  0  0  0  0  0  0  0  0  0
   -1.8020   -4.1950   -0.4370 O   0  0  0  0  0  0  0  0  0  0  0  0
   -2.2190   -2.9030   -0.3970 C   0  0  0  0  0  0  0  0  0  0  0  0
   -3.5200   -2.5020   -0.1110 C   0  0  0  0  0  0  0  0  0  0  0  0
   -3.7770   -1.1280   -0.1350 C   0  0  0  0  0  0  0  0  0  0  0  0
   -2.8070   -0.1710   -0.4160 C   0  0  0  0  0  0  0  0  0  0  0  0
   -1.4900   -0.6330   -0.6420 C   0  0  0  0  0  0  0  0  0  0  0  0
   -1.1920   -1.9860   -0.6770 C   0  0  0  0  0  0  0  0  0  0  0  0
   -0.5810    0.3640   -0.7660 O   0  0  0  0  0  0  0  0  0  0  0  0
    0.6600    0.1000   -1.3800 C   0  0  1  0  0  0  0  0  0  0  0  0
    1.3050    1.5080   -1.5130 C   0  0  1  0  0  0  0  0  0  0  0  0
    2.7420    1.3520   -2.0810 C   0  0  2  0  0  0  0  0  0  0  0  0
    3.3130   -0.0720   -1.8460 C   0  0  1  0  0  0  0  0  0  0  0  0
    2.7390   -0.7650   -0.5930 C   0  0  2  0  0  0  0  0  0  0  0  0
    1.3500   -0.6510   -0.4190 O   0  0  0  0  0  0  0  0  0  0  0  0
    3.3850   -0.2120    0.7000 C   0  0  0  0  0  0  0  0  0  0  0  0
    4.6630   -0.7900    0.7940 O   0  0  0  0  0  0  0  0  0  0  0  0
    5.7480    0.1000    0.7610 C   0  0  1  0  0  0  0  0  0  0  0  0
    6.4160    0.0480    2.1720 C   0  0  1  0  0  0  0  0  0  0  0  0
    7.9590    0.2070    2.0750 C   0  0  2  0  0  0  0  0  0  0  0  0
    8.3500    0.9250    0.7610 C   0  0  1  0  0  0  0  0  0  0  0  0
    7.7590    0.1810   -0.4570 C   0  0  0  0  0  0  0  0  0  0  0  0
    6.5830   -0.5290   -0.1830 O   0  0  0  0  0  0  0  0  0  0  0  0
    7.7950    2.2030    0.8790 O   0  0  0  0  0  0  0  0  0  0  0  0
    8.6030   -1.0280    1.9880 O   0  0  0  0  0  0  0  0  0  0  0  0
    5.8640    1.0140    3.0020 O   0  0  0  0  0  0  0  0  0  0  0  0
    2.9310   -0.7960   -2.9810 O   0  0  0  0  0  0  0  0  0  0  0  0
    3.6090    2.2090   -1.3940 O   0  0  0  0  0  0  0  0  0  0  0  0
    0.6160    2.2710   -2.4510 O   0  0  0  0  0  0  0  0  0  0  0  0
   -3.1770    1.2400   -0.4830 C   0  0  0  0  0  0  0  0  0  0  0  0
   -2.4050    2.1300   -0.8040 O   0  0  0  0  0  0  0  0  0  0  0  0
   -4.5790    1.5100   -0.1600 C   0  0  0  0  0  0  0  0  0  0  0  0
   -5.4270    0.5110    0.1290 C   0  0  0  0  0  0  0  0  0  0  0  0
   -5.0760   -0.8100    0.1380 O   0  0  0  0  0  0  0  0  0  0  0  0
   -6.8390    0.6700    0.4700 C   0  0  0  0  0  0  0  0  0  0  0  0
   -7.8010   -0.1830   -0.0640 C   0  0  0  0  0  0  0  0  0  0  0  0
   -9.1400   -0.0110    0.2580 C   0  0  0  0  0  0  0  0  0  0  0  0
   -9.4970    1.0250    1.1230 C   0  0  0  0  0  0  0  0  0  0  0  0
   -8.5390    1.8870    1.6690 C   0  0  0  0  0  0  0  0  0  0  0  0
   -7.2090    1.7010    1.3370 C   0  0  0  0  0  0  0  0  0  0  0  0
  -10.7750    1.2720    1.4970 O   0  0  0  0  0  0  0  0  0  0  0  0
   -2.1170   -6.1160   -0.0960 H   0  0  0  0  0  0  0  0  0  0  0  0
   -3.0760   -5.0660    0.9930 H   0  0  0  0  0  0  0  0  0  0  0  0
   -3.5740   -5.2830   -0.7220 H   0  0  0  0  0  0  0  0  0  0  0  0
   -4.3270   -3.1970    0.1250 H   0  0  0  0  0  0  0  0  0  0  0  0
   -0.1890   -2.3710   -0.8840 H   0  0  0  0  0  0  0  0  0  0  0  0
    0.5490   -0.4390   -2.3600 H   0  0  0  0  0  0  0  0  0  0  0  0
    1.3220    2.0030   -0.5000 H   0  0  0  0  0  0  0  0  0  0  0  0
    2.7540    1.5770   -3.1870 H   0  0  0  0  0  0  0  0  0  0  0  0
    4.4340   -0.0250   -1.7450 H   0  0  0  0  0  0  0  0  0  0  0  0
    2.9200   -1.8740   -0.6550 H   0  0  0  0  0  0  0  0  0  0  0  0
    3.3470    0.8980    0.7440 H   0  0  0  0  0  0  0  0  0  0  0  0
    2.8360   -0.5710    1.6010 H   0  0  0  0  0  0  0  0  0  0  0  0
    5.4870    1.1520    0.4470 H   0  0  0  0  0  0  0  0  0  0  0  0
    6.1490   -0.9100    2.6960 H   0  0  0  0  0  0  0  0  0  0  0  0
    8.3410    0.7930    2.9580 H   0  0  0  0  0  0  0  0  0  0  0  0
    9.4700    0.9680    0.6660 H   0  0  0  0  0  0  0  0  0  0  0  0
    8.4560   -0.6070   -0.8160 H   0  0  0  0  0  0  0  0  0  0  0  0
    7.5860    0.8770   -1.3090 H   0  0  0  0  0  0  0  0  0  0  0  0
    8.1730    2.7520    0.1860 H   0  0  0  0  0  0  0  0  0  0  0  0
    8.3710   -1.5380    2.7710 H   0  0  0  0  0  0  0  0  0  0  0  0
    6.0670    1.8880    2.6470 H   0  0  0  0  0  0  0  0  0  0  0  0
    3.5190   -1.5530   -3.0540 H   0  0  0  0  0  0  0  0  0  0  0  0
    3.3570    3.1110   -1.6210 H   0  0  0  0  0  0  0  0  0  0  0  0
   -0.2640    2.4590   -2.1010 H   0  0  0  0  0  0  0  0  0  0  0  0
   -4.9100    2.5510   -0.1800 H   0  0  0  0  0  0  0  0  0  0  0  0
   -7.5090   -0.9920   -0.7420 H   0  0  0  0  0  0  0  0  0  0  0  0
   -9.8920   -0.6830   -0.1650 H   0  0  0  0  0  0  0  0  0  0  0  0
   -8.8430    2.6910    2.3470 H   0  0  0  0  0  0  0  0  0  0  0  0
   -6.4470    2.3620    1.7650 H   0  0  0  0  0  0  0  0  0  0  0  0
  -11.3560    0.6280    1.0760 H   0  0  0  0  0  0  0  0  0  0  0  0
  1 44  1  0
  1  2  1  0
  1 42  1  0
  1 43  1  0
  2  3  1  0
  3  8  2  0
  3  4  1  0
  4  5  2  0
  4 45  1  0
  5  6  1  0
  5 34  1  0
  6  7  2  0
  6 30  1  0
  7  9  1  0
  7  8  1  0
  8 46  1  0
  9 10  1  0
 10 47  1  6
 10 11  1  0
 10 15  1  0
 11 29  1  0
 11 12  1  0
 11 48  1  1
 12 49  1  6
 12 13  1  0
 12 28  1  0
 13 27  1  0
 13 50  1  1
 13 14  1  0
 14 51  1  6
 14 15  1  0
 14 16  1  0
 16 52  1  0
 16 17  1  0
 16 53  1  0
 17 18  1  0
 18 23  1  0
 18 54  1  6
 18 19  1  0
 19 20  1  0
 19 55  1  1
 19 26  1  0
 20 21  1  0
 20 25  1  0
 20 56  1  1
 21 22  1  0
 21 57  1  6
 21 24  1  0
 22 59  1  0
 22 58  1  0
 22 23  1  0
 24 60  1  0
 25 61  1  0
 26 62  1  0
 27 63  1  0
 28 64  1  0
 29 65  1  0
 30 31  2  0
 30 32  1  0
 32 66  1  0
 32 33  2  0
 33 34  1  0
 33 35  1  0
 35 36  2  0
 35 40  1  0
 36 67  1  0
 36 37  1  0
 37 68  1  0
 37 38  2  0
 38 41  1  0
 38 39  1  0
 39 40  2  0
 39 69  1  0
 40 70  1  0
 41 71  1  0
M  END
>  <id>  (916) 
1033

>  <scaffolds>  (916) 
['c1ccccc1', 'O=c1cc(-c2ccccc2)oc2ccccc12', 'C1CCOCC1', 'c1ccc(OC2CCCCO2)cc1', 'O=c1ccoc2ccccc12', 'O=c1cc(-c2ccccc2)oc2cccc(OC3CCCCO3)c12', 'O=c1cc(-c2ccccc2)oc2cccc(OC3CCCC(COC4CCCCO4)O3)c12']

>  <name>  (916) 
Yuankanin

>  <formula>  (916) 
C27H30O14

>  <SMILES>  (916) 
COC1=CC2=C(C(=C1)O[C@H]3[C@@H]([C@H]([C@@H]([C@H](O3)CO[C@H]4[C@@H]([C@H]([C@@H](CO4)O)O)O)O)O)O)C(=O)C=C(O2)C5=CC=C(C=C5)O

>  <ChEMBL_id>  (916) 
CHEMBL3121247

>  <ZINC_id>  (916) 


>  <PubChem_id>  (916) 
157000

>  <DrugBank_id>  (916) 


>  <CAS_no>  (916) 
77099-20-8

>  <references>  (916) 
[{'journal': {'name': 'Phytochemistry', 'id': 10}, 'title': 'Flavones from Struthiola argentea with anthelmintic activity in vitro', 'year': 2008, 'start_page': None, 'volume': None, 'issue': None, 'doi': '10.1016/j.phytochem.2007.08.003', 'isbn': '', 'despositor': {'code': 'BND', 'first_name': "Bakary N'tji", 'last_name': 'Diallo', 'id': 26}, 'refauthors_set': [{'author': {'first_name': 'Ayers', 'initials': 'AS', 'last_name': 'Sloan', 'id': 1049}, 'first_author': True, 'id': 1630}], 'id': 532}]

>  <classifications>  (916) 
[{'classification': 'Flavonoids', 'id': 776}, {'classification': 'Flavonoids (Classyfire)', 'id': 941}]

>  <molecular_mass>  (916) 
578.5

$$$$
SANC01034_minRM1.pdb
     RDKit          3D

 46 48  0  0  1  0  0  0  0  0999 V2000
   -2.9290   -2.9050    0.7950 C   0  0  0  0  0  0  0  0  0  0  0  0
   -1.9360   -1.8160    0.8190 N   0  0  0  0  0  0  0  0  0  0  0  0
   -1.8020   -1.1770    2.1630 C   0  0  0  0  0  0  0  0  0  0  0  0
   -1.5480    0.3190    1.9100 C   0  0  0  0  0  0  0  0  0  0  0  0
   -1.2680    0.4090    0.3990 C   0  0  1  0  0  0  0  0  0  0  0  0
   -2.1870   -0.7090   -0.1530 C   0  0  2  0  0  0  0  0  0  0  0  0
   -3.6560   -0.2800   -0.2260 C   0  0  0  0  0  0  0  0  0  0  0  0
   -3.8190    1.0310   -1.0010 C   0  0  1  0  0  0  0  0  0  0  0  0
   -3.0240    2.1350   -0.3020 C   0  0  0  0  0  0  0  0  0  0  0  0
   -1.5490    1.7770   -0.2180 C   0  0  0  0  0  0  0  0  0  0  0  0
   -3.3070    0.9380   -2.2990 O   0  0  0  0  0  0  0  0  0  0  0  0
    0.1930    0.1140    0.1540 C   0  0  0  0  0  0  0  0  0  0  0  0
    1.1460    0.9310    0.7660 C   0  0  0  0  0  0  0  0  0  0  0  0
    2.4970    0.6830    0.5670 C   0  0  0  0  0  0  0  0  0  0  0  0
    2.9200   -0.3670   -0.2630 C   0  0  0  0  0  0  0  0  0  0  0  0
    1.9730   -1.1650   -0.8920 C   0  0  0  0  0  0  0  0  0  0  0  0
    0.6200   -0.9140   -0.6780 C   0  0  0  0  0  0  0  0  0  0  0  0
    4.2720   -0.4720   -0.4080 O   0  0  0  0  0  0  0  0  0  0  0  0
    4.7540   -1.7000   -0.8950 C   0  0  0  0  0  0  0  0  0  0  0  0
    3.4120    1.4230    1.2680 O   0  0  0  0  0  0  0  0  0  0  0  0
    4.0020    2.4330    0.4820 C   0  0  0  0  0  0  0  0  0  0  0  0
   -3.9450   -2.6740    1.1700 H   0  0  0  0  0  0  0  0  0  0  0  0
   -3.0430   -3.2930   -0.2320 H   0  0  0  0  0  0  0  0  0  0  0  0
   -2.5500   -3.7370    1.4150 H   0  0  0  0  0  0  0  0  0  0  0  0
   -0.9440   -1.6680    2.6730 H   0  0  0  0  0  0  0  0  0  0  0  0
   -2.6690   -1.3300    2.8470 H   0  0  0  0  0  0  0  0  0  0  0  0
   -2.4210    0.9350    2.2020 H   0  0  0  0  0  0  0  0  0  0  0  0
   -0.7290    0.7060    2.5440 H   0  0  0  0  0  0  0  0  0  0  0  0
   -1.8590   -1.0540   -1.1700 H   0  0  0  0  0  0  0  0  0  0  0  0
   -4.0970   -0.1630    0.7860 H   0  0  0  0  0  0  0  0  0  0  0  0
   -4.2670   -1.0780   -0.7000 H   0  0  0  0  0  0  0  0  0  0  0  0
   -4.9100    1.3120   -1.0350 H   0  0  0  0  0  0  0  0  0  0  0  0
   -3.4580    2.3250    0.7010 H   0  0  0  0  0  0  0  0  0  0  0  0
   -3.1480    3.0980   -0.8430 H   0  0  0  0  0  0  0  0  0  0  0  0
   -1.1040    1.8150   -1.2370 H   0  0  0  0  0  0  0  0  0  0  0  0
   -1.0170    2.5690    0.3510 H   0  0  0  0  0  0  0  0  0  0  0  0
   -3.7650    0.2170   -2.7410 H   0  0  0  0  0  0  0  0  0  0  0  0
    0.8610    1.7630    1.4170 H   0  0  0  0  0  0  0  0  0  0  0  0
    2.2570   -1.9870   -1.5510 H   0  0  0  0  0  0  0  0  0  0  0  0
   -0.1080   -1.5550   -1.1910 H   0  0  0  0  0  0  0  0  0  0  0  0
    5.8420   -1.6310   -0.7380 H   0  0  0  0  0  0  0  0  0  0  0  0
    4.5620   -1.8340   -1.9720 H   0  0  0  0  0  0  0  0  0  0  0  0
    4.3710   -2.5780   -0.3500 H   0  0  0  0  0  0  0  0  0  0  0  0
    4.6860    2.9470    1.1740 H   0  0  0  0  0  0  0  0  0  0  0  0
    3.2660    3.1600    0.0990 H   0  0  0  0  0  0  0  0  0  0  0  0
    4.5830    2.0470   -0.3700 H   0  0  0  0  0  0  0  0  0  0  0  0
  1 23  1  0
  1  2  1  0
  1 22  1  0
  1 24  1  0
  2  6  1  0
  2  3  1  0
  3  4  1  0
  3 25  1  0
  3 26  1  0
  4  5  1  0
  4 27  1  0
  4 28  1  0
  5 10  1  0
  5  6  1  0
  5 12  1  1
  6 29  1  6
  6  7  1  0
  7  8  1  0
  7 31  1  0
  7 30  1  0
  8 11  1  0
  8 32  1  6
  8  9  1  0
  9 34  1  0
  9 10  1  0
  9 33  1  0
 10 35  1  0
 10 36  1  0
 11 37  1  0
 12 17  2  0
 12 13  1  0
 13 14  2  0
 13 38  1  0
 14 15  1  0
 14 20  1  0
 15 16  2  0
 15 18  1  0
 16 39  1  0
 16 17  1  0
 17 40  1  0
 18 19  1  0
 19 42  1  0
 19 41  1  0
 19 43  1  0
 20 21  1  0
 21 46  1  0
 21 45  1  0
 21 44  1  0
M  END
>  <id>  (917) 
1034

>  <scaffolds>  (917) 
['c1ccccc1', 'C1CCCCC1', 'c1ccc(C23CCCCC2NCC3)cc1', 'C1CCNC1']

>  <name>  (917) 
Mesembrinol

>  <formula>  (917) 
C17H25NO3

>  <SMILES>  (917) 
CN1CC[C@]2([C@@H]1C[C@@H](CC2)O)C3=CC(=C(C=C3)OC)OC

>  <ChEMBL_id>  (917) 


>  <ZINC_id>  (917) 


>  <PubChem_id>  (917) 
442112

>  <DrugBank_id>  (917) 


>  <CAS_no>  (917) 
23544-42-5

>  <references>  (917) 
[{'journal': {'name': 'Phytochemistry Letters', 'id': 39}, 'title': 'Isolation of Sceletium alkaloids by high-speed countercurrent chromatography', 'year': 2011, 'start_page': None, 'volume': None, 'issue': None, 'doi': '10.1016/j.phytol.2011.03.003', 'isbn': '', 'despositor': {'code': 'BND', 'first_name': "Bakary N'tji", 'last_name': 'Diallo', 'id': 26}, 'refauthors_set': [{'author': {'first_name': 'Shikanga', 'initials': 'SE', 'last_name': 'Emmanuel', 'id': 1050}, 'first_author': True, 'id': 1631}], 'id': 533}]

>  <classifications>  (917) 
[{'classification': 'Pyrrolidines (Classyfire)', 'id': 1012}]

>  <molecular_mass>  (917) 
291.4

$$$$
SANC01035_minRM1.pdb
     RDKit          3D

 44 46  0  0  1  0  0  0  0  0999 V2000
    4.1140    0.4840   -2.0180 C   0  0  0  0  0  0  0  0  0  0  0  0
    2.8840    0.9660   -1.3660 N   0  0  0  0  0  0  0  0  0  0  0  0
    3.1230    2.0790   -0.4130 C   0  0  0  0  0  0  0  0  0  0  0  0
    1.7900    2.1800    0.3310 C   0  0  0  0  0  0  0  0  0  0  0  0
    1.2760    0.7260    0.4400 C   0  0  1  0  0  0  0  0  0  0  0  0
    2.0820   -0.0600   -0.6400 C   0  0  2  0  0  0  0  0  0  0  0  0
    2.9060   -1.2110   -0.0420 C   0  0  0  0  0  0  0  0  0  0  0  0
    2.0440   -2.0490    0.8600 C   0  0  0  0  0  0  0  0  0  0  0  0
    1.9950   -3.2610    0.7620 O   0  0  0  0  0  0  0  0  0  0  0  0
    1.2550   -1.3080    1.9020 C   0  0  0  0  0  0  0  0  0  0  0  0
    1.5530    0.1820    1.8490 C   0  0  0  0  0  0  0  0  0  0  0  0
   -0.2150    0.6870    0.2400 C   0  0  0  0  0  0  0  0  0  0  0  0
   -0.8310   -0.2400   -0.5970 C   0  0  0  0  0  0  0  0  0  0  0  0
   -2.2130   -0.2410   -0.7300 C   0  0  0  0  0  0  0  0  0  0  0  0
   -3.0040    0.6720   -0.0160 C   0  0  0  0  0  0  0  0  0  0  0  0
   -2.3930    1.5920    0.8290 C   0  0  0  0  0  0  0  0  0  0  0  0
   -1.0070    1.5910    0.9470 C   0  0  0  0  0  0  0  0  0  0  0  0
   -4.3460    0.5290   -0.1990 O   0  0  0  0  0  0  0  0  0  0  0  0
   -5.1510    1.6180    0.1830 C   0  0  0  0  0  0  0  0  0  0  0  0
   -2.7860   -1.0840   -1.6450 O   0  0  0  0  0  0  0  0  0  0  0  0
   -3.3490   -2.2290   -1.0440 C   0  0  0  0  0  0  0  0  0  0  0  0
    4.9360    0.1470   -1.3570 H   0  0  0  0  0  0  0  0  0  0  0  0
    3.8790   -0.3490   -2.7020 H   0  0  0  0  0  0  0  0  0  0  0  0
    4.5260    1.3010   -2.6370 H   0  0  0  0  0  0  0  0  0  0  0  0
    3.9760    1.9260    0.2910 H   0  0  0  0  0  0  0  0  0  0  0  0
    3.3760    3.0020   -0.9780 H   0  0  0  0  0  0  0  0  0  0  0  0
    1.9000    2.6790    1.3120 H   0  0  0  0  0  0  0  0  0  0  0  0
    1.0820    2.8200   -0.2350 H   0  0  0  0  0  0  0  0  0  0  0  0
    1.4070   -0.5010   -1.4240 H   0  0  0  0  0  0  0  0  0  0  0  0
    3.7800   -0.8450    0.5380 H   0  0  0  0  0  0  0  0  0  0  0  0
    3.3520   -1.8370   -0.8460 H   0  0  0  0  0  0  0  0  0  0  0  0
    0.1710   -1.5060    1.7530 H   0  0  0  0  0  0  0  0  0  0  0  0
    1.4750   -1.7230    2.9080 H   0  0  0  0  0  0  0  0  0  0  0  0
    0.9480    0.7170    2.6110 H   0  0  0  0  0  0  0  0  0  0  0  0
    2.6010    0.3870    2.1540 H   0  0  0  0  0  0  0  0  0  0  0  0
   -0.2410   -0.9610   -1.1780 H   0  0  0  0  0  0  0  0  0  0  0  0
   -2.9700    2.3190    1.4040 H   0  0  0  0  0  0  0  0  0  0  0  0
   -0.5510    2.3250    1.6190 H   0  0  0  0  0  0  0  0  0  0  0  0
   -5.2380    1.7190    1.2770 H   0  0  0  0  0  0  0  0  0  0  0  0
   -6.1410    1.3610   -0.2250 H   0  0  0  0  0  0  0  0  0  0  0  0
   -4.8290    2.5810   -0.2440 H   0  0  0  0  0  0  0  0  0  0  0  0
   -3.7620   -2.7970   -1.8900 H   0  0  0  0  0  0  0  0  0  0  0  0
   -4.1630   -2.0020   -0.3370 H   0  0  0  0  0  0  0  0  0  0  0  0
   -2.6000   -2.8490   -0.5250 H   0  0  0  0  0  0  0  0  0  0  0  0
  1 23  1  0
  1 24  1  0
  1  2  1  0
  1 22  1  0
  2  6  1  0
  2  3  1  0
  3 26  1  0
  3 25  1  0
  3  4  1  0
  4 28  1  0
  4  5  1  0
  4 27  1  0
  5  6  1  0
  5 12  1  6
  5 11  1  0
  6 29  1  6
  6  7  1  0
  7 31  1  0
  7 30  1  0
  7  8  1  0
  8  9  2  0
  8 10  1  0
 10 32  1  0
 10 11  1  0
 10 33  1  0
 11 35  1  0
 11 34  1  0
 12 13  2  0
 12 17  1  0
 13 36  1  0
 13 14  1  0
 14 20  1  0
 14 15  2  0
 15 18  1  0
 15 16  1  0
 16 17  2  0
 16 37  1  0
 17 38  1  0
 18 19  1  0
 19 41  1  0
 19 40  1  0
 19 39  1  0
 20 21  1  0
 21 42  1  0
 21 44  1  0
 21 43  1  0
M  END
>  <id>  (918) 
1035

>  <scaffolds>  (918) 
['c1ccccc1', 'C1CCCCC1', 'c1ccc(C23CCCCC2NCC3)cc1', 'C1CCNC1', 'O=C1CCC2(c3ccccc3)CCNC2C1']

>  <name>  (918) 
Mesembrine

>  <formula>  (918) 
C17H23NO3

>  <SMILES>  (918) 
CN1CC[C@]2([C@@H]1CC(=O)CC2)C3=CC(=C(C=C3)OC)OC

>  <ChEMBL_id>  (918) 
CHEMBL2008762

>  <ZINC_id>  (918) 
ZINC898198

>  <PubChem_id>  (918) 
394162

>  <DrugBank_id>  (918) 


>  <CAS_no>  (918) 
24880-43-1

>  <references>  (918) 
[{'journal': {'name': 'Phytochemistry Letters', 'id': 39}, 'title': 'Isolation of Sceletium alkaloids by high-speed countercurrent chromatography', 'year': 2011, 'start_page': None, 'volume': None, 'issue': None, 'doi': '10.1016/j.phytol.2011.03.003', 'isbn': '', 'despositor': {'code': 'BND', 'first_name': "Bakary N'tji", 'last_name': 'Diallo', 'id': 26}, 'refauthors_set': [{'author': {'first_name': 'Shikanga', 'initials': 'SE', 'last_name': 'Emmanuel', 'id': 1050}, 'first_author': True, 'id': 1631}], 'id': 533}]

>  <classifications>  (918) 
[{'classification': 'Indole Alkaloids', 'id': 933}, {'classification': 'Pyrrolidines (Classyfire)', 'id': 1012}]

>  <molecular_mass>  (918) 
289.4

$$$$
SANC01036_minRM1.pdb
     RDKit          3D

 42 44  0  0  1  0  0  0  0  0999 V2000
   -4.3790   -0.6390   -0.5500 C   0  0  0  0  0  0  0  0  0  0  0  0
   -3.1820   -0.6750   -1.4210 N   0  0  0  0  0  0  0  0  0  0  0  0
   -2.5740   -2.0400   -1.4640 C   0  0  0  0  0  0  0  0  0  0  0  0
   -1.2320   -2.0130   -0.7120 C   0  0  0  0  0  0  0  0  0  0  0  0
   -1.0760   -0.5850   -0.1450 C   0  0  1  0  0  0  0  0  0  0  0  0
   -2.0600    0.2280   -1.0240 C   0  0  2  0  0  0  0  0  0  0  0  0
   -2.4930    1.5380   -0.3790 C   0  0  0  0  0  0  0  0  0  0  0  0
   -2.9610    1.3640    1.0380 C   0  0  0  0  0  0  0  0  0  0  0  0
   -3.8350    2.0700    1.5100 O   0  0  0  0  0  0  0  0  0  0  0  0
   -2.2840    0.3340    1.8410 C   0  0  0  0  0  0  0  0  0  0  0  0
   -1.4450   -0.5490    1.3050 C   0  0  0  0  0  0  0  0  0  0  0  0
    0.3550   -0.1280   -0.2070 C   0  0  0  0  0  0  0  0  0  0  0  0
    1.3430   -1.0120    0.2510 C   0  0  0  0  0  0  0  0  0  0  0  0
    2.6720   -0.6320    0.2160 C   0  0  0  0  0  0  0  0  0  0  0  0
    3.0380    0.6470   -0.2700 C   0  0  0  0  0  0  0  0  0  0  0  0
    2.0580    1.5220   -0.7000 C   0  0  0  0  0  0  0  0  0  0  0  0
    0.7170    1.1290   -0.6570 C   0  0  0  0  0  0  0  0  0  0  0  0
    4.3780    0.8850   -0.2360 O   0  0  0  0  0  0  0  0  0  0  0  0
    4.8250    2.0660   -0.8530 C   0  0  0  0  0  0  0  0  0  0  0  0
    3.7360   -1.3990    0.5880 O   0  0  0  0  0  0  0  0  0  0  0  0
    3.4530   -2.5390    1.3600 C   0  0  0  0  0  0  0  0  0  0  0  0
   -4.8530    0.3570   -0.5830 H   0  0  0  0  0  0  0  0  0  0  0  0
   -5.1340   -1.3400   -0.9500 H   0  0  0  0  0  0  0  0  0  0  0  0
   -4.2300   -0.9050    0.5130 H   0  0  0  0  0  0  0  0  0  0  0  0
   -2.4330   -2.2900   -2.5390 H   0  0  0  0  0  0  0  0  0  0  0  0
   -3.2430   -2.8400   -1.0760 H   0  0  0  0  0  0  0  0  0  0  0  0
   -1.1920   -2.7930    0.0730 H   0  0  0  0  0  0  0  0  0  0  0  0
   -0.3990   -2.2650   -1.3980 H   0  0  0  0  0  0  0  0  0  0  0  0
   -1.5660    0.4580   -2.0100 H   0  0  0  0  0  0  0  0  0  0  0  0
   -1.6300    2.2460   -0.3660 H   0  0  0  0  0  0  0  0  0  0  0  0
   -3.2560    2.0540   -1.0010 H   0  0  0  0  0  0  0  0  0  0  0  0
   -2.5150    0.3310    2.9120 H   0  0  0  0  0  0  0  0  0  0  0  0
   -0.9540   -1.2970    1.9410 H   0  0  0  0  0  0  0  0  0  0  0  0
    1.0550   -1.9950    0.6320 H   0  0  0  0  0  0  0  0  0  0  0  0
    2.2950    2.5230   -1.0700 H   0  0  0  0  0  0  0  0  0  0  0  0
   -0.0320    1.8640   -0.9750 H   0  0  0  0  0  0  0  0  0  0  0  0
    4.5490    2.1410   -1.9180 H   0  0  0  0  0  0  0  0  0  0  0  0
    4.4960    2.9790   -0.3290 H   0  0  0  0  0  0  0  0  0  0  0  0
    5.9210    1.9940   -0.7760 H   0  0  0  0  0  0  0  0  0  0  0  0
    2.9560   -3.3370    0.7820 H   0  0  0  0  0  0  0  0  0  0  0  0
    4.4510   -2.8960    1.6610 H   0  0  0  0  0  0  0  0  0  0  0  0
    2.8630   -2.3290    2.2670 H   0  0  0  0  0  0  0  0  0  0  0  0
  1  2  1  0
  1 23  1  0
  1 22  1  0
  1 24  1  0
  2  3  1  0
  2  6  1  0
  3 25  1  0
  3 26  1  0
  3  4  1  0
  4 28  1  0
  4  5  1  0
  4 27  1  0
  5  6  1  0
  5 12  1  1
  5 11  1  0
  6 29  1  6
  6  7  1  0
  7 31  1  0
  7 30  1  0
  7  8  1  0
  8  9  2  0
  8 10  1  0
 10 11  2  0
 10 32  1  0
 11 33  1  0
 12 17  2  0
 12 13  1  0
 13 14  2  0
 13 34  1  0
 14 15  1  0
 14 20  1  0
 15 16  2  0
 15 18  1  0
 16 35  1  0
 16 17  1  0
 17 36  1  0
 18 19  1  0
 19 37  1  0
 19 39  1  0
 19 38  1  0
 20 21  1  0
 21 40  1  0
 21 41  1  0
 21 42  1  0
M  END
>  <id>  (919) 
1036

>  <scaffolds>  (919) 
['c1ccccc1', 'C1=CCCCC1', 'O=C1C=CCCC1', 'O=C1C=CC2(c3ccccc3)CCNC2C1', 'C1CCNC1']

>  <name>  (919) 
Mesembrenone

>  <formula>  (919) 
C17H21NO3

>  <SMILES>  (919) 
CN1CC[C@]2([C@@H]1CC(=O)C=C2)C3=CC(=C(C=C3)OC)OC

>  <ChEMBL_id>  (919) 
SCHEMBL226088

>  <ZINC_id>  (919) 
ZINC56871300

>  <PubChem_id>  (919) 
216272

>  <DrugBank_id>  (919) 


>  <CAS_no>  (919) 
468-54-2

>  <references>  (919) 
[{'journal': {'name': 'Phytochemistry Letters', 'id': 39}, 'title': 'Isolation of Sceletium alkaloids by high-speed countercurrent chromatography', 'year': 2011, 'start_page': None, 'volume': None, 'issue': None, 'doi': '10.1016/j.phytol.2011.03.003', 'isbn': '', 'despositor': {'code': 'BND', 'first_name': "Bakary N'tji", 'last_name': 'Diallo', 'id': 26}, 'refauthors_set': [{'author': {'first_name': 'Shikanga', 'initials': 'SE', 'last_name': 'Emmanuel', 'id': 1050}, 'first_author': True, 'id': 1631}], 'id': 533}]

>  <classifications>  (919) 
[{'classification': 'Pyrrolidines (Classyfire)', 'id': 1012}]

>  <molecular_mass>  (919) 
287.35

$$$$
SANC01037_minRM1.pdb
     RDKit          3D

 81 85  0  0  1  0  0  0  0  0999 V2000
    3.0730    0.1170    2.6630 C   0  0  0  0  0  0  0  0  0  0  0  0
    3.5040   -0.3820    1.2730 C   0  0  1  0  0  0  0  0  0  0  0  0
    2.7560   -1.6940    0.9780 C   0  0  0  0  0  0  0  0  0  0  0  0
    1.9050   -1.6840   -0.2880 C   0  0  0  0  0  0  0  0  0  0  0  0
    1.0180   -0.4410   -0.4690 C   0  0  2  0  0  0  0  0  0  0  0  0
    1.6880    0.7680    0.1050 C   0  0  0  0  0  0  0  0  0  0  0  0
    0.9880    1.8230    0.5270 C   0  0  0  0  0  0  0  0  0  0  0  0
   -0.4970    1.8780    0.5830 C   0  0  0  0  0  0  0  0  0  0  0  0
   -1.1790    0.6900   -0.0970 C   0  0  1  0  0  0  0  0  0  0  0  0
   -0.3910   -0.6040    0.1930 C   0  0  1  0  0  0  0  0  0  0  0  0
   -1.1220   -1.7990   -0.4280 C   0  0  0  0  0  0  0  0  0  0  0  0
   -2.5940   -1.8380   -0.0380 C   0  0  0  0  0  0  0  0  0  0  0  0
   -3.2910   -0.5670   -0.5200 C   0  0  2  0  0  0  0  0  0  0  0  0
   -2.7020    0.6510    0.2170 C   0  0  2  0  0  0  0  0  0  0  0  0
   -3.3360    1.9540   -0.3320 C   0  0  0  0  0  0  0  0  0  0  0  0
   -4.5630    1.7260   -1.2040 C   0  0  0  0  0  0  0  0  0  0  0  0
   -5.5100    0.7030   -0.5690 C   0  0  1  0  0  0  0  0  0  0  0  0
   -4.8310   -0.6920   -0.4790 C   0  0  1  0  0  0  0  0  0  0  0  0
   -5.2670   -1.4740   -1.7340 C   0  0  0  0  0  0  0  0  0  0  0  0
   -5.3620   -1.4720    0.7230 C   0  0  0  0  0  0  0  0  0  0  0  0
   -5.8960    1.0950    0.7160 O   0  0  0  0  0  0  0  0  0  0  0  0
   -2.9460    0.5890    1.7200 C   0  0  0  0  0  0  0  0  0  0  0  0
   -0.1980   -0.8660    1.6820 C   0  0  0  0  0  0  0  0  0  0  0  0
    3.1810    0.7250    0.2530 C   0  0  2  0  0  0  0  0  0  0  0  0
    3.8710    0.5520   -1.0990 C   0  0  0  0  0  0  0  0  0  0  0  0
    5.3800    0.3320   -0.9790 C   0  0  2  0  0  0  0  0  0  0  0  0
    5.6300   -0.8500   -0.0400 C   0  0  0  0  0  0  0  0  0  0  0  0
    5.0210   -0.6110    1.3310 C   0  0  0  0  0  0  0  0  0  0  0  0
    6.0850    1.5920   -0.4830 C   0  0  0  0  0  0  0  0  0  0  0  0
    5.9450   -0.0060   -2.3640 C   0  0  0  0  0  0  0  0  0  0  0  0
    0.8570   -0.2170   -1.9830 C   0  0  0  0  0  0  0  0  0  0  0  0
    1.9870    0.3060    2.7190 H   0  0  0  0  0  0  0  0  0  0  0  0
    3.5630    1.0570    2.9540 H   0  0  0  0  0  0  0  0  0  0  0  0
    3.3110   -0.6090    3.4550 H   0  0  0  0  0  0  0  0  0  0  0  0
    3.4640   -2.5500    0.9150 H   0  0  0  0  0  0  0  0  0  0  0  0
    2.1090   -1.9850    1.8380 H   0  0  0  0  0  0  0  0  0  0  0  0
    1.2880   -2.6080   -0.3320 H   0  0  0  0  0  0  0  0  0  0  0  0
    2.5940   -1.7880   -1.1590 H   0  0  0  0  0  0  0  0  0  0  0  0
    1.4870    2.7200    0.9120 H   0  0  0  0  0  0  0  0  0  0  0  0
   -0.8400    2.8360    0.1330 H   0  0  0  0  0  0  0  0  0  0  0  0
   -0.8070    1.9580    1.6520 H   0  0  0  0  0  0  0  0  0  0  0  0
   -1.1090    0.8680   -1.2090 H   0  0  0  0  0  0  0  0  0  0  0  0
   -1.0270   -1.7870   -1.5390 H   0  0  0  0  0  0  0  0  0  0  0  0
   -0.6230   -2.7500   -0.1370 H   0  0  0  0  0  0  0  0  0  0  0  0
   -3.0590   -2.7440   -0.4820 H   0  0  0  0  0  0  0  0  0  0  0  0
   -2.7130   -1.9800    1.0570 H   0  0  0  0  0  0  0  0  0  0  0  0
   -3.0170   -0.4380   -1.6050 H   0  0  0  0  0  0  0  0  0  0  0  0
   -3.5980    2.6400    0.5030 H   0  0  0  0  0  0  0  0  0  0  0  0
   -2.6120    2.5540   -0.9260 H   0  0  0  0  0  0  0  0  0  0  0  0
   -4.2790    1.3950   -2.2240 H   0  0  0  0  0  0  0  0  0  0  0  0
   -5.0880    2.6890   -1.3840 H   0  0  0  0  0  0  0  0  0  0  0  0
   -6.4430    0.6300   -1.2000 H   0  0  0  0  0  0  0  0  0  0  0  0
   -5.0740   -0.9280   -2.6690 H   0  0  0  0  0  0  0  0  0  0  0  0
   -4.7510   -2.4400   -1.8290 H   0  0  0  0  0  0  0  0  0  0  0  0
   -6.3420   -1.7070   -1.7290 H   0  0  0  0  0  0  0  0  0  0  0  0
   -6.4610   -1.4270    0.7810 H   0  0  0  0  0  0  0  0  0  0  0  0
   -5.1100   -2.5420    0.6830 H   0  0  0  0  0  0  0  0  0  0  0  0
   -4.9930   -1.0990    1.6870 H   0  0  0  0  0  0  0  0  0  0  0  0
   -6.1680    2.0160    0.6720 H   0  0  0  0  0  0  0  0  0  0  0  0
   -3.9820    0.8010    2.0120 H   0  0  0  0  0  0  0  0  0  0  0  0
   -2.7090   -0.3990    2.1490 H   0  0  0  0  0  0  0  0  0  0  0  0
   -2.3280    1.3210    2.2690 H   0  0  0  0  0  0  0  0  0  0  0  0
    0.3500   -1.8040    1.8780 H   0  0  0  0  0  0  0  0  0  0  0  0
    0.3780   -0.0800    2.1990 H   0  0  0  0  0  0  0  0  0  0  0  0
   -1.1400   -0.9700    2.2390 H   0  0  0  0  0  0  0  0  0  0  0  0
    3.5460    1.7000    0.6740 H   0  0  0  0  0  0  0  0  0  0  0  0
    3.6640    1.4460   -1.7280 H   0  0  0  0  0  0  0  0  0  0  0  0
    3.4260   -0.2930   -1.6750 H   0  0  0  0  0  0  0  0  0  0  0  0
    6.7200   -1.0420    0.0570 H   0  0  0  0  0  0  0  0  0  0  0  0
    5.2270   -1.7840   -0.4870 H   0  0  0  0  0  0  0  0  0  0  0  0
    5.5250    0.2470    1.8250 H   0  0  0  0  0  0  0  0  0  0  0  0
    5.2540   -1.4660    2.0040 H   0  0  0  0  0  0  0  0  0  0  0  0
    7.1680    1.4390   -0.3690 H   0  0  0  0  0  0  0  0  0  0  0  0
    5.7210    1.9460    0.4910 H   0  0  0  0  0  0  0  0  0  0  0  0
    5.9570    2.4340   -1.1790 H   0  0  0  0  0  0  0  0  0  0  0  0
    7.0330   -0.1590   -2.3390 H   0  0  0  0  0  0  0  0  0  0  0  0
    5.5120   -0.9230   -2.7870 H   0  0  0  0  0  0  0  0  0  0  0  0
    5.7560    0.7940   -3.0940 H   0  0  0  0  0  0  0  0  0  0  0  0
    0.3320   -1.0570   -2.4670 H   0  0  0  0  0  0  0  0  0  0  0  0
    0.2810    0.6930   -2.2160 H   0  0  0  0  0  0  0  0  0  0  0  0
    1.8200   -0.1050   -2.5040 H   0  0  0  0  0  0  0  0  0  0  0  0
  1 32  1  0
  1 33  1  0
  1 34  1  0
  2  1  1  1
  2 24  1  0
  2  3  1  0
  2 28  1  0
  3  4  1  0
  3 35  1  0
  3 36  1  0
  4 38  1  0
  4  5  1  0
  4 37  1  0
  5 31  1  6
  5  6  1  0
  5 10  1  0
  6 24  1  0
  6  7  2  0
  7  8  1  0
  7 39  1  0
  8  9  1  0
  8 40  1  0
  8 41  1  0
  9 42  1  6
  9 10  1  0
  9 14  1  0
 10 11  1  0
 10 23  1  1
 11 43  1  0
 11 44  1  0
 11 12  1  0
 12 13  1  0
 12 45  1  0
 12 46  1  0
 13 47  1  6
 13 18  1  0
 13 14  1  0
 14 15  1  0
 14 22  1  1
 15 16  1  0
 15 49  1  0
 15 48  1  0
 16 50  1  0
 16 51  1  0
 16 17  1  0
 17 52  1  6
 17 18  1  0
 17 21  1  0
 18 19  1  6
 18 20  1  0
 19 53  1  0
 19 54  1  0
 19 55  1  0
 20 57  1  0
 20 56  1  0
 20 58  1  0
 21 59  1  0
 22 60  1  0
 22 61  1  0
 22 62  1  0
 23 63  1  0
 23 64  1  0
 23 65  1  0
 24 25  1  0
 24 66  1  1
 25 67  1  0
 25 68  1  0
 25 26  1  0
 26 30  1  6
 26 29  1  0
 26 27  1  0
 27 70  1  0
 27 69  1  0
 27 28  1  0
 28 71  1  0
 28 72  1  0
 29 75  1  0
 29 73  1  0
 29 74  1  0
 30 78  1  0
 30 77  1  0
 30 76  1  0
 31 81  1  0
 31 79  1  0
 31 80  1  0
M  END
>  <id>  (920) 
1037

>  <scaffolds>  (920) 
['C1=C2C3CCCCC3CCC2C2CCC3CCCCC3C2C1', 'C1=CCCCC1', 'C1=CCC2CCCCC2C1', 'C1CCCCC1', 'C=C1CCCC2CCCCC12', 'C1=C2CCCCC2CCC1', 'C1=C2C3CCCCC3CCC2C2CCCCC2C1', 'C1CCC2CCCCC2C1']

>  <name>  (920) 
[beta]-amyrin

>  <formula>  (920) 
C30H50O

>  <SMILES>  (920) 
C[C@@]12CC[C@@]3(C(=CC[C@H]4[C@]3(CC[C@@H]5[C@@]4(CC[C@@H](C5(C)C)O)C)C)[C@@H]1CC(CC2)(C)C)C

>  <ChEMBL_id>  (920) 
SCHEMBL377754

>  <ZINC_id>  (920) 
ZINC3978270

>  <PubChem_id>  (920) 
73145

>  <DrugBank_id>  (920) 


>  <CAS_no>  (920) 
559-70-6

>  <references>  (920) 
[{'journal': {'name': 'Phytochemistry Letters', 'id': 39}, 'title': 'Ent-kauren-19-oic acid derivatives from the stem bark of Croton pseudopulchellus Pax', 'year': 2012, 'start_page': None, 'volume': None, 'issue': None, 'doi': '10.1016/j.phytol.2012.03.002', 'isbn': '', 'despositor': {'code': 'BND', 'first_name': "Bakary N'tji", 'last_name': 'Diallo', 'id': 26}, 'refauthors_set': [{'author': {'first_name': 'Langat', 'initials': 'LM', 'last_name': 'Moses', 'id': 1051}, 'first_author': True, 'id': 1632}], 'id': 534}]

>  <classifications>  (920) 
[{'classification': 'Phenol lipids', 'id': 899}, {'classification': 'Phenol lipids (Classyfire)', 'id': 951}]

>  <molecular_mass>  (920) 
426.7

$$$$
SANC01038_minRM1.pdb
     RDKit          3D

 55 57  0  0  1  0  0  0  0  0999 V2000
   -4.2560   -0.4470    1.5630 C   0  0  0  0  0  0  0  0  0  0  0  0
   -3.2240   -0.3990    0.4220 C   0  0  2  0  0  0  0  0  0  0  0  0
   -2.5720   -1.7850    0.2710 C   0  0  0  0  0  0  0  0  0  0  0  0
   -1.2740   -1.6950   -0.5220 C   0  0  0  0  0  0  0  0  0  0  0  0
   -0.3740   -0.6860    0.1860 C   0  0  1  0  0  0  0  0  0  0  0  0
    1.0890   -0.6700   -0.3100 C   0  0  2  0  0  0  0  0  0  0  0  0
    1.7100   -2.0490    0.0200 C   0  0  0  0  0  0  0  0  0  0  0  0
    3.1920   -1.9850    0.3790 C   0  0  0  0  0  0  0  0  0  0  0  0
    3.8800   -0.8400   -0.3430 C   0  0  0  0  0  0  0  0  0  0  0  0
    3.3500    0.5170    0.1430 C   0  0  1  0  0  0  0  0  0  0  0  0
    1.8440    0.4180    0.4860 C   0  0  1  0  0  0  0  0  0  0  0  0
    1.1460    1.7740    0.3900 C   0  0  0  0  0  0  0  0  0  0  0  0
   -0.2740    1.7010    0.9390 C   0  0  0  0  0  0  0  0  0  0  0  0
   -1.0870    0.6770    0.1300 C   0  0  2  0  0  0  0  0  0  0  0  0
   -2.3100    0.5870    0.8330 O   0  0  0  0  0  0  0  0  0  0  0  0
   -1.3350    1.2080   -1.2800 C   0  0  0  0  0  0  0  0  0  0  0  0
    4.1160    0.9150    1.4150 C   0  0  0  0  0  0  0  0  0  0  0  0
    3.6880    1.5680   -0.9180 C   0  0  0  0  0  0  0  0  0  0  0  0
    1.1790   -0.4620   -1.8160 C   0  0  0  0  0  0  0  0  0  0  0  0
   -3.9390    0.0090   -0.8390 C   0  0  0  0  0  0  0  0  0  0  0  0
   -4.5030    1.2020   -0.9710 C   0  0  0  0  0  0  0  0  0  0  0  0
   -4.7540    0.5200    1.7180 H   0  0  0  0  0  0  0  0  0  0  0  0
   -5.0400   -1.1870    1.3530 H   0  0  0  0  0  0  0  0  0  0  0  0
   -3.8000   -0.7150    2.5270 H   0  0  0  0  0  0  0  0  0  0  0  0
   -2.3780   -2.2330    1.2700 H   0  0  0  0  0  0  0  0  0  0  0  0
   -3.2810   -2.4950   -0.2020 H   0  0  0  0  0  0  0  0  0  0  0  0
   -0.8060   -2.6960   -0.6040 H   0  0  0  0  0  0  0  0  0  0  0  0
   -1.4830   -1.3970   -1.5730 H   0  0  0  0  0  0  0  0  0  0  0  0
   -0.3320   -0.9730    1.2750 H   0  0  0  0  0  0  0  0  0  0  0  0
    1.1730   -2.5480    0.8550 H   0  0  0  0  0  0  0  0  0  0  0  0
    1.5660   -2.7470   -0.8330 H   0  0  0  0  0  0  0  0  0  0  0  0
    3.3280   -1.8940    1.4780 H   0  0  0  0  0  0  0  0  0  0  0  0
    3.6860   -2.9500    0.1340 H   0  0  0  0  0  0  0  0  0  0  0  0
    4.9810   -0.9010   -0.2130 H   0  0  0  0  0  0  0  0  0  0  0  0
    3.7330   -0.9520   -1.4420 H   0  0  0  0  0  0  0  0  0  0  0  0
    1.7800    0.1000    1.5650 H   0  0  0  0  0  0  0  0  0  0  0  0
    1.7120    2.5420    0.9590 H   0  0  0  0  0  0  0  0  0  0  0  0
    1.1260    2.1630   -0.6500 H   0  0  0  0  0  0  0  0  0  0  0  0
   -0.7600    2.6990    0.9030 H   0  0  0  0  0  0  0  0  0  0  0  0
   -0.2690    1.4420    2.0190 H   0  0  0  0  0  0  0  0  0  0  0  0
   -1.7270    0.4420   -1.9660 H   0  0  0  0  0  0  0  0  0  0  0  0
   -2.0460    2.0460   -1.2820 H   0  0  0  0  0  0  0  0  0  0  0  0
   -0.4110    1.5890   -1.7470 H   0  0  0  0  0  0  0  0  0  0  0  0
    3.7320    1.8420    1.8650 H   0  0  0  0  0  0  0  0  0  0  0  0
    5.1840    1.0900    1.2190 H   0  0  0  0  0  0  0  0  0  0  0  0
    4.0730    0.1490    2.2020 H   0  0  0  0  0  0  0  0  0  0  0  0
    4.7400    1.4940   -1.2360 H   0  0  0  0  0  0  0  0  0  0  0  0
    3.5610    2.5990   -0.5590 H   0  0  0  0  0  0  0  0  0  0  0  0
    3.0910    1.4790   -1.8340 H   0  0  0  0  0  0  0  0  0  0  0  0
    0.9130    0.5560   -2.1380 H   0  0  0  0  0  0  0  0  0  0  0  0
    2.1940   -0.6530   -2.2050 H   0  0  0  0  0  0  0  0  0  0  0  0
    0.5230   -1.1400   -2.3810 H   0  0  0  0  0  0  0  0  0  0  0  0
   -4.0050   -0.7380   -1.6360 H   0  0  0  0  0  0  0  0  0  0  0  0
   -5.0450    1.5090   -1.8600 H   0  0  0  0  0  0  0  0  0  0  0  0
   -4.4640    1.9810   -0.2140 H   0  0  0  0  0  0  0  0  0  0  0  0
  1  2  1  0
  1 23  1  0
  1 22  1  0
  1 24  1  0
  2 20  1  6
  2  3  1  0
  2 15  1  0
  3  4  1  0
  3 26  1  0
  3 25  1  0
  4 28  1  0
  4 27  1  0
  4  5  1  0
  5  6  1  0
  5 14  1  0
  5 29  1  1
  6 19  1  6
  6  7  1  0
  6 11  1  0
  7 31  1  0
  7  8  1  0
  7 30  1  0
  8  9  1  0
  8 33  1  0
  8 32  1  0
  9 35  1  0
  9 34  1  0
  9 10  1  0
 10 18  1  6
 10 11  1  0
 10 17  1  0
 11 12  1  0
 11 36  1  1
 12 38  1  0
 12 13  1  0
 12 37  1  0
 13 14  1  0
 13 39  1  0
 13 40  1  0
 14 16  1  6
 14 15  1  0
 16 41  1  0
 16 43  1  0
 16 42  1  0
 17 45  1  0
 17 44  1  0
 17 46  1  0
 18 49  1  0
 18 47  1  0
 18 48  1  0
 19 52  1  0
 19 51  1  0
 19 50  1  0
 20 53  1  0
 20 21  2  0
 21 54  1  0
 21 55  1  0
M  END
>  <id>  (921) 
1038

>  <scaffolds>  (921) 
['C1CCOCC1', 'C1CCCCC1', 'C1CCC2C(C1)CCC1OCCCC12', 'C1CCC2CCCCC2C1']

>  <name>  (921) 
8[alpha],13-Epoxylabd-14-ene 

>  <formula>  (921) 
C20H34O

>  <SMILES>  (921) 
C[C@@]1(CC[C@H]2[C@@]3(CCCC([C@H]3CC[C@@]2(O1)C)(C)C)C)C=C

>  <ChEMBL_id>  (921) 


>  <ZINC_id>  (921) 


>  <PubChem_id>  (921) 
6453839

>  <DrugBank_id>  (921) 


>  <CAS_no>  (921) 
596-84-9

>  <references>  (921) 
[{'journal': {'name': 'Phytochemistry Letters', 'id': 39}, 'title': 'Ent-kauren-19-oic acid derivatives from the stem bark of Croton pseudopulchellus Pax', 'year': 2012, 'start_page': None, 'volume': None, 'issue': None, 'doi': '10.1016/j.phytol.2012.03.002', 'isbn': '', 'despositor': {'code': 'BND', 'first_name': "Bakary N'tji", 'last_name': 'Diallo', 'id': 26}, 'refauthors_set': [{'author': {'first_name': 'Langat', 'initials': 'LM', 'last_name': 'Moses', 'id': 1051}, 'first_author': True, 'id': 1632}], 'id': 534}]

>  <classifications>  (921) 
[{'classification': 'Terpenes', 'id': 888}, {'classification': 'Phenol lipids (Classyfire)', 'id': 951}]

>  <molecular_mass>  (921) 
290.5

$$$$
SANC01039_minRM1.pdb
     RDKit          3D

 40 40  0  0  1  0  0  0  0  0999 V2000
    3.3050   -1.2930   -1.2240 C   0  0  0  0  0  0  0  0  0  0  0  0
    2.4270   -0.3190   -0.4400 C   0  0  2  0  0  0  0  0  0  0  0  0
    3.3310    0.6450    0.3230 C   0  0  0  0  0  0  0  0  0  0  0  0
    1.5210   -1.0810    0.5350 C   0  0  2  0  0  0  0  0  0  0  0  0
    0.6370   -2.1380   -0.1460 C   0  0  0  0  0  0  0  0  0  0  0  0
   -0.6420   -1.6190   -0.8010 C   0  0  0  0  0  0  0  0  0  0  0  0
   -1.6300   -1.0850    0.1790 C   0  0  0  0  0  0  0  0  0  0  0  0
   -2.0010   -1.8180    1.2290 C   0  0  0  0  0  0  0  0  0  0  0  0
   -2.3210    0.2460   -0.0070 C   0  0  1  0  0  0  0  0  0  0  0  0
   -1.8470    1.1520   -1.1520 C   0  0  0  0  0  0  0  0  0  0  0  0
   -0.3660    1.5090   -1.1520 C   0  0  0  0  0  0  0  0  0  0  0  0
    0.1900    1.9240    0.1680 C   0  0  0  0  0  0  0  0  0  0  0  0
    0.6880    3.1470    0.3530 C   0  0  0  0  0  0  0  0  0  0  0  0
    0.1650    0.9880    1.2890 C   0  0  0  0  0  0  0  0  0  0  0  0
    0.6900   -0.2270    1.4310 C   0  0  0  0  0  0  0  0  0  0  0  0
   -3.6970    0.0240   -0.1580 O   0  0  0  0  0  0  0  0  0  0  0  0
    4.0010   -1.8480   -0.5800 H   0  0  0  0  0  0  0  0  0  0  0  0
    2.7090   -2.0460   -1.7640 H   0  0  0  0  0  0  0  0  0  0  0  0
    3.9170   -0.7760   -1.9770 H   0  0  0  0  0  0  0  0  0  0  0  0
    1.8050    0.2570   -1.1710 H   0  0  0  0  0  0  0  0  0  0  0  0
    3.9730    0.1310    1.0530 H   0  0  0  0  0  0  0  0  0  0  0  0
    2.7640    1.4030    0.8820 H   0  0  0  0  0  0  0  0  0  0  0  0
    4.0020    1.1950   -0.3520 H   0  0  0  0  0  0  0  0  0  0  0  0
    2.2220   -1.6480    1.2130 H   0  0  0  0  0  0  0  0  0  0  0  0
    1.2370   -2.6790   -0.9150 H   0  0  0  0  0  0  0  0  0  0  0  0
    0.3880   -2.9270    0.5960 H   0  0  0  0  0  0  0  0  0  0  0  0
   -0.3780   -0.8990   -1.6020 H   0  0  0  0  0  0  0  0  0  0  0  0
   -1.1310   -2.4520   -1.3580 H   0  0  0  0  0  0  0  0  0  0  0  0
   -2.7360   -1.4900    1.9580 H   0  0  0  0  0  0  0  0  0  0  0  0
   -1.6210   -2.8100    1.4500 H   0  0  0  0  0  0  0  0  0  0  0  0
   -2.2880    0.8260    0.9560 H   0  0  0  0  0  0  0  0  0  0  0  0
   -2.4490    2.0880   -1.1140 H   0  0  0  0  0  0  0  0  0  0  0  0
   -2.1120    0.7030   -2.1340 H   0  0  0  0  0  0  0  0  0  0  0  0
   -0.2000    2.3050   -1.9140 H   0  0  0  0  0  0  0  0  0  0  0  0
    0.2410    0.6560   -1.5400 H   0  0  0  0  0  0  0  0  0  0  0  0
    1.1130    3.4820    1.2950 H   0  0  0  0  0  0  0  0  0  0  0  0
    0.7210    3.9150   -0.4120 H   0  0  0  0  0  0  0  0  0  0  0  0
   -0.3700    1.4090    2.1570 H   0  0  0  0  0  0  0  0  0  0  0  0
    0.4870   -0.7320    2.3900 H   0  0  0  0  0  0  0  0  0  0  0  0
   -3.8330   -0.5610   -0.9100 H   0  0  0  0  0  0  0  0  0  0  0  0
  1 19  1  0
  1 18  1  0
  1 17  1  0
  1  2  1  0
  2 20  1  6
  2  3  1  0
  2  4  1  0
  3 23  1  0
  3 22  1  0
  3 21  1  0
  4  5  1  0
  4 24  1  1
  4 15  1  0
  5 25  1  0
  5  6  1  0
  5 26  1  0
  6 27  1  0
  6 28  1  0
  6  7  1  0
  7  9  1  0
  7  8  2  0
  8 30  1  0
  8 29  1  0
  9 10  1  0
  9 16  1  0
  9 31  1  1
 10 33  1  0
 10 11  1  0
 10 32  1  0
 11 34  1  0
 11 35  1  0
 11 12  1  0
 12 13  2  0
 12 14  1  0
 13 37  1  0
 13 36  1  0
 14 15  2  0
 14 38  1  0
 15 39  1  0
 16 40  1  0
M  END
>  <id>  (922) 
1039

>  <scaffolds>  (922) 
['C=C1C=CCCCC(=C)CCC1']

>  <name>  (922) 
4(15),5,10(14)-germacratrien-1-ol

>  <formula>  (922) 
C15H24O

>  <SMILES>  (922) 
CC(C)[C@@H]\1CCC(=C)[C@@H](CCC(=C)/C=C1)O

>  <ChEMBL_id>  (922) 
CHEMBL3262201

>  <ZINC_id>  (922) 
ZINC15255746

>  <PubChem_id>  (922) 
643709

>  <DrugBank_id>  (922) 


>  <CAS_no>  (922) 
81968-62-9

>  <references>  (922) 
[{'journal': {'name': 'Phytochemistry Letters', 'id': 39}, 'title': 'Ent-kauren-19-oic acid derivatives from the stem bark of Croton pseudopulchellus Pax', 'year': 2012, 'start_page': None, 'volume': None, 'issue': None, 'doi': '10.1016/j.phytol.2012.03.002', 'isbn': '', 'despositor': {'code': 'BND', 'first_name': "Bakary N'tji", 'last_name': 'Diallo', 'id': 26}, 'refauthors_set': [{'author': {'first_name': 'Langat', 'initials': 'LM', 'last_name': 'Moses', 'id': 1051}, 'first_author': True, 'id': 1632}], 'id': 534}]

>  <classifications>  (922) 
[{'classification': 'Phenol lipids', 'id': 899}, {'classification': 'Phenol lipids (Classyfire)', 'id': 951}]

>  <molecular_mass>  (922) 
220.35

$$$$
SANC01040_minRM1.pdb
     RDKit          3D

 22 22  0  0  0  0  0  0  0  0999 V2000
    4.2910    1.0000    0.0610 C   0  0  0  0  0  0  0  0  0  0  0  0
    2.9020    0.7970   -0.0590 O   0  0  0  0  0  0  0  0  0  0  0  0
    2.4550   -0.4870   -0.0140 C   0  0  0  0  0  0  0  0  0  0  0  0
    3.2470   -1.4040    0.1180 O   0  0  0  0  0  0  0  0  0  0  0  0
    0.9980   -0.6010   -0.1550 C   0  0  0  0  0  0  0  0  0  0  0  0
    0.1570    0.3450    0.2690 C   0  0  0  0  0  0  0  0  0  0  0  0
   -1.2890    0.1960    0.1440 C   0  0  0  0  0  0  0  0  0  0  0  0
   -2.0540    1.2940   -0.2480 C   0  0  0  0  0  0  0  0  0  0  0  0
   -3.4300    1.1650   -0.3770 C   0  0  0  0  0  0  0  0  0  0  0  0
   -4.0460   -0.0520   -0.1050 C   0  0  0  0  0  0  0  0  0  0  0  0
   -3.2840   -1.1410    0.2970 C   0  0  0  0  0  0  0  0  0  0  0  0
   -1.9050   -1.0210    0.4220 C   0  0  0  0  0  0  0  0  0  0  0  0
    4.8610    0.5170   -0.7490 H   0  0  0  0  0  0  0  0  0  0  0  0
    4.4070    2.0920   -0.0100 H   0  0  0  0  0  0  0  0  0  0  0  0
    4.6890    0.6480    1.0260 H   0  0  0  0  0  0  0  0  0  0  0  0
    0.6670   -1.5330   -0.6270 H   0  0  0  0  0  0  0  0  0  0  0  0
    0.5080    1.2790    0.7280 H   0  0  0  0  0  0  0  0  0  0  0  0
   -1.5720    2.2520   -0.4610 H   0  0  0  0  0  0  0  0  0  0  0  0
   -4.0310    2.0230   -0.6910 H   0  0  0  0  0  0  0  0  0  0  0  0
   -5.1310   -0.1500   -0.2050 H   0  0  0  0  0  0  0  0  0  0  0  0
   -3.7690   -2.0970    0.5170 H   0  0  0  0  0  0  0  0  0  0  0  0
   -1.3130   -1.8810    0.7500 H   0  0  0  0  0  0  0  0  0  0  0  0
  1 13  1  0
  1  2  1  0
  1 14  1  0
  1 15  1  0
  2  3  1  0
  3  5  1  0
  3  4  2  0
  5 16  1  0
  5  6  2  0
  6  7  1  0
  6 17  1  0
  7  8  2  0
  7 12  1  0
  8 18  1  0
  8  9  1  0
  9 19  1  0
  9 10  2  0
 10 20  1  0
 10 11  1  0
 11 12  2  0
 11 21  1  0
 12 22  1  0
M  END
>  <id>  (923) 
1040

>  <scaffolds>  (923) 
['c1ccccc1']

>  <name>  (923) 
Methyl cinnamate

>  <formula>  (923) 
C10H10O2

>  <SMILES>  (923) 
COC(=O)/C=C/C1=CC=CC=C1

>  <ChEMBL_id>  (923) 
SCHEMBL101530

>  <ZINC_id>  (923) 
ZINC896129

>  <PubChem_id>  (923) 
637520

>  <DrugBank_id>  (923) 


>  <CAS_no>  (923) 
103-26-4

>  <references>  (923) 
[{'journal': {'name': 'Phytochemistry Letters', 'id': 39}, 'title': 'Antibacterial activity of an epoxidised prenylated cinnamaldehdye derivative from Vepris glomerata', 'year': 2012, 'start_page': None, 'volume': None, 'issue': None, 'doi': '10.1016/j.phytol.2012.03.017', 'isbn': '', 'despositor': {'code': 'BND', 'first_name': "Bakary N'tji", 'last_name': 'Diallo', 'id': 26}, 'refauthors_set': [{'author': {'first_name': 'Kiplimo', 'initials': 'KJ', 'last_name': 'Joyce', 'id': 1052}, 'first_author': True, 'id': 1633}], 'id': 535}]

>  <classifications>  (923) 
[{'classification': 'Cinnamic acids and derivatives (Classyfire)', 'id': 975}]

>  <molecular_mass>  (923) 
162.18

$$$$
SANC01041_minRM1.pdb
     RDKit          3D

 64 70  0  0  1  0  0  0  0  0999 V2000
    2.0370    0.2730   -1.4760 C   0  0  0  0  0  0  0  0  0  0  0  0
    2.0750    0.1160    0.0440 C   0  0  1  0  0  0  0  0  0  0  0  0
    1.4450    1.3310    0.7160 C   0  0  0  0  0  0  0  0  0  0  0  0
   -0.0120    1.5060    0.2890 C   0  0  0  0  0  0  0  0  0  0  0  0
   -0.6860    0.1830   -0.0730 C   0  0  1  0  0  0  0  0  0  0  0  0
   -0.1720   -0.9670    0.8200 C   0  0  2  0  0  0  0  0  0  0  0  0
    1.3160   -1.1380    0.4920 C   0  0  1  0  0  0  0  0  0  0  0  0
    2.0400   -2.4010    0.0890 C   0  0  2  0  0  0  0  0  0  0  0  0
    1.9940   -1.9580    1.4300 O   0  0  0  0  0  0  0  0  0  0  0  0
    3.4170   -2.2290   -0.4890 C   0  0  0  0  0  0  0  0  0  0  0  0
    3.9550   -3.0260   -1.2300 O   0  0  0  0  0  0  0  0  0  0  0  0
    4.1770   -1.1480   -0.1590 O   0  0  0  0  0  0  0  0  0  0  0  0
    3.5610   -0.0380    0.4720 C   0  0  1  0  0  0  0  0  0  0  0  0
    4.3670    1.1370    0.0580 C   0  0  0  0  0  0  0  0  0  0  0  0
    4.6710    2.2320    0.8310 C   0  0  0  0  0  0  0  0  0  0  0  0
    5.4520    3.1060    0.1250 O   0  0  0  0  0  0  0  0  0  0  0  0
    5.6600    2.5470   -1.1110 C   0  0  0  0  0  0  0  0  0  0  0  0
    5.0190    1.3390   -1.2070 C   0  0  0  0  0  0  0  0  0  0  0  0
   -0.9840   -2.2560    0.6720 C   0  0  0  0  0  0  0  0  0  0  0  0
   -0.4830   -3.3460    0.8600 O   0  0  0  0  0  0  0  0  0  0  0  0
   -2.4730   -2.1570    0.4010 C   0  0  0  0  0  0  0  0  0  0  0  0
   -2.6580   -1.0990   -0.6540 C   0  0  2  0  0  0  0  0  0  0  0  0
   -2.2160    0.2730   -0.1090 C   0  0  1  0  0  0  0  0  0  0  0  0
   -2.7580    0.6890    1.2650 C   0  0  0  0  0  0  0  0  0  0  0  0
   -4.0370    1.2650    1.2700 O   0  0  0  0  0  0  0  0  0  0  0  0
   -4.2130    2.3610    0.4720 C   0  0  0  0  0  0  0  0  0  0  0  0
   -5.1690    3.0530    0.7500 O   0  0  0  0  0  0  0  0  0  0  0  0
   -3.2530    2.5550   -0.6620 C   0  0  0  0  0  0  0  0  0  0  0  0
   -2.8420    1.1800   -1.1910 C   0  0  2  0  0  0  0  0  0  0  0  0
   -4.0450    0.5460   -1.5850 O   0  0  0  0  0  0  0  0  0  0  0  0
   -4.0380   -0.8390   -1.2740 C   0  0  2  0  0  0  0  0  0  0  0  0
   -5.2090   -1.1640   -0.3560 C   0  0  0  0  0  0  0  0  0  0  0  0
   -4.2180   -1.5850   -2.6020 C   0  0  0  0  0  0  0  0  0  0  0  0
   -0.2810   -0.6840    2.3270 C   0  0  0  0  0  0  0  0  0  0  0  0
    1.0340    0.1520   -1.9120 H   0  0  0  0  0  0  0  0  0  0  0  0
    2.6660   -0.4460   -2.0220 H   0  0  0  0  0  0  0  0  0  0  0  0
    2.3850    1.2700   -1.7840 H   0  0  0  0  0  0  0  0  0  0  0  0
    1.5110    1.2230    1.8230 H   0  0  0  0  0  0  0  0  0  0  0  0
    2.0200    2.2550    0.4940 H   0  0  0  0  0  0  0  0  0  0  0  0
   -0.0770    2.1940   -0.5820 H   0  0  0  0  0  0  0  0  0  0  0  0
   -0.5710    2.0360    1.0940 H   0  0  0  0  0  0  0  0  0  0  0  0
   -0.3790   -0.0730   -1.1290 H   0  0  0  0  0  0  0  0  0  0  0  0
    1.5710   -3.3670   -0.1760 H   0  0  0  0  0  0  0  0  0  0  0  0
    3.6500   -0.1760    1.5840 H   0  0  0  0  0  0  0  0  0  0  0  0
    4.4340    2.5290    1.8450 H   0  0  0  0  0  0  0  0  0  0  0  0
    6.2770    3.1290   -1.7830 H   0  0  0  0  0  0  0  0  0  0  0  0
    5.0140    0.6480   -2.0400 H   0  0  0  0  0  0  0  0  0  0  0  0
   -2.8920   -3.1330    0.0760 H   0  0  0  0  0  0  0  0  0  0  0  0
   -3.0110   -1.9270    1.3470 H   0  0  0  0  0  0  0  0  0  0  0  0
   -1.9820   -1.3850   -1.5120 H   0  0  0  0  0  0  0  0  0  0  0  0
   -2.0510    1.4050    1.7560 H   0  0  0  0  0  0  0  0  0  0  0  0
   -2.8750   -0.1810    1.9550 H   0  0  0  0  0  0  0  0  0  0  0  0
   -2.3720    3.1420   -0.3310 H   0  0  0  0  0  0  0  0  0  0  0  0
   -3.7260    3.1620   -1.4630 H   0  0  0  0  0  0  0  0  0  0  0  0
   -2.1760    1.2890   -2.0850 H   0  0  0  0  0  0  0  0  0  0  0  0
   -5.0920   -0.7900    0.6680 H   0  0  0  0  0  0  0  0  0  0  0  0
   -5.3600   -2.2500   -0.2760 H   0  0  0  0  0  0  0  0  0  0  0  0
   -6.1490   -0.7330   -0.7330 H   0  0  0  0  0  0  0  0  0  0  0  0
   -3.4920   -1.2750   -3.3660 H   0  0  0  0  0  0  0  0  0  0  0  0
   -5.2120   -1.4040   -3.0350 H   0  0  0  0  0  0  0  0  0  0  0  0
   -4.1110   -2.6700   -2.4700 H   0  0  0  0  0  0  0  0  0  0  0  0
    0.1790   -1.4790    2.9370 H   0  0  0  0  0  0  0  0  0  0  0  0
   -1.3200   -0.6330    2.6860 H   0  0  0  0  0  0  0  0  0  0  0  0
    0.2170    0.2500    2.6290 H   0  0  0  0  0  0  0  0  0  0  0  0
  1 36  1  0
  1 35  1  0
  1 37  1  0
  2  1  1  6
  2 13  1  0
  2  7  1  0
  2  3  1  0
  3  4  1  0
  3 39  1  0
  3 38  1  0
  4 40  1  0
  4  5  1  0
  4 41  1  0
  5 42  1  6
  5 23  1  0
  5  6  1  0
  6  7  1  0
  6 19  1  0
  6 34  1  1
  7  8  1  0
  7  9  1  1
  8 10  1  0
  8 43  1  1
  8  9  1  0
 10 11  2  0
 10 12  1  0
 12 13  1  0
 13 14  1  0
 13 44  1  1
 14 18  1  0
 14 15  2  0
 15 16  1  0
 15 45  1  0
 16 17  1  0
 17 46  1  0
 17 18  2  0
 18 47  1  0
 19 21  1  0
 19 20  2  0
 21 22  1  0
 21 48  1  0
 21 49  1  0
 22 50  1  6
 22 31  1  0
 22 23  1  0
 23 29  1  0
 23 24  1  1
 24 25  1  0
 24 51  1  0
 24 52  1  0
 25 26  1  0
 26 28  1  0
 26 27  2  0
 28 54  1  0
 28 29  1  0
 28 53  1  0
 29 55  1  6
 29 30  1  0
 30 31  1  0
 31 33  1  6
 31 32  1  0
 32 58  1  0
 32 57  1  0
 32 56  1  0
 33 59  1  0
 33 60  1  0
 33 61  1  0
 34 64  1  0
 34 63  1  0
 34 62  1  0
M  END
>  <id>  (924) 
1041

>  <scaffolds>  (924) 
['C1CCOCC1', 'c1ccoc1', 'C1CCCCC1', 'O=C1CC2OCC3CC(=O)C4C(CCC5C(c6ccoc6)OC(=O)C6OC654)C32CO1', 'C1CCC2CCCCC2C1']

>  <name>  (924) 
Limonin

>  <formula>  (924) 
C26H30O8

>  <SMILES>  (924) 
C[C@@]12CC[C@H]3[C@]([C@@]14[C@H](O4)C(=O)O[C@H]2C5=COC=C5)(C(=O)C[C@@H]6[C@@]37COC(=O)C[C@@H]7OC6(C)C)C

>  <ChEMBL_id>  (924) 
CHEMBL517449

>  <ZINC_id>  (924) 
ZINC4096134

>  <PubChem_id>  (924) 
179651

>  <DrugBank_id>  (924) 


>  <CAS_no>  (924) 
1180-71-8

>  <references>  (924) 
[{'journal': {'name': 'Phytochemistry Letters', 'id': 39}, 'title': 'Antibacterial activity of an epoxidised prenylated cinnamaldehdye derivative from Vepris glomerata', 'year': 2012, 'start_page': None, 'volume': None, 'issue': None, 'doi': '10.1016/j.phytol.2012.03.017', 'isbn': '', 'despositor': {'code': 'BND', 'first_name': "Bakary N'tji", 'last_name': 'Diallo', 'id': 26}, 'refauthors_set': [{'author': {'first_name': 'Kiplimo', 'initials': 'KJ', 'last_name': 'Joyce', 'id': 1052}, 'first_author': True, 'id': 1633}], 'id': 535}]

>  <classifications>  (924) 
[{'classification': 'Phenol lipids (Classyfire)', 'id': 951}]

>  <molecular_mass>  (924) 
470.5

$$$$
SANC01042_minRM1.pdb
     RDKit          3D

 56 59  0  0  1  0  0  0  0  0999 V2000
    5.0910    2.9220    2.0190 C   0  0  0  0  0  0  0  0  0  0  0  0
    5.6820    1.7860    1.4380 O   0  0  0  0  0  0  0  0  0  0  0  0
    4.8710    0.9920    0.6860 C   0  0  0  0  0  0  0  0  0  0  0  0
    3.6520    1.3800    0.1310 C   0  0  0  0  0  0  0  0  0  0  0  0
    2.9500    0.4780   -0.6590 C   0  0  0  0  0  0  0  0  0  0  0  0
    3.4480   -0.7990   -0.9160 C   0  0  0  0  0  0  0  0  0  0  0  0
    4.6620   -1.1780   -0.3550 C   0  0  0  0  0  0  0  0  0  0  0  0
    5.3870   -0.2930    0.4560 C   0  0  0  0  0  0  0  0  0  0  0  0
    6.5230   -0.6320    1.1110 O   0  0  0  0  0  0  0  0  0  0  0  0
    5.2390   -2.4080   -0.4960 O   0  0  0  0  0  0  0  0  0  0  0  0
    4.8960   -3.1270   -1.6550 C   0  0  0  0  0  0  0  0  0  0  0  0
    1.6420    0.8270   -1.3080 C   0  0  1  0  0  0  0  0  0  0  0  0
    0.5190   -0.1770   -0.9840 C   0  0  1  0  0  0  0  0  0  0  0  0
    0.6250   -0.8180    0.4070 C   0  0  0  0  0  0  0  0  0  0  0  0
   -0.6700   -0.8060    0.9610 O   0  0  0  0  0  0  0  0  0  0  0  0
   -1.3850    0.3060    0.4680 C   0  0  1  0  0  0  0  0  0  0  0  0
   -0.7470    0.6880   -0.8880 C   0  0  1  0  0  0  0  0  0  0  0  0
   -0.2210    2.1290   -0.9520 C   0  0  0  0  0  0  0  0  0  0  0  0
    1.1840    2.0830   -0.8560 O   0  0  0  0  0  0  0  0  0  0  0  0
   -2.8380   -0.0430    0.3000 C   0  0  0  0  0  0  0  0  0  0  0  0
   -3.3360   -1.3130    0.5380 C   0  0  0  0  0  0  0  0  0  0  0  0
   -4.7000   -1.5480    0.3570 C   0  0  0  0  0  0  0  0  0  0  0  0
   -5.5610   -0.5260   -0.0550 C   0  0  0  0  0  0  0  0  0  0  0  0
   -5.0310    0.7580   -0.2840 C   0  0  0  0  0  0  0  0  0  0  0  0
   -3.6740    0.9990   -0.1100 C   0  0  0  0  0  0  0  0  0  0  0  0
   -5.9660    1.6800   -0.6410 O   0  0  0  0  0  0  0  0  0  0  0  0
   -5.4910    2.9060   -1.1370 C   0  0  0  0  0  0  0  0  0  0  0  0
   -6.8730   -0.7080   -0.3370 O   0  0  0  0  0  0  0  0  0  0  0  0
   -5.3070   -2.7610    0.5220 O   0  0  0  0  0  0  0  0  0  0  0  0
   -4.6900   -3.6460    1.4260 C   0  0  0  0  0  0  0  0  0  0  0  0
    5.8640    3.2820    2.7160 H   0  0  0  0  0  0  0  0  0  0  0  0
    4.1720    2.7060    2.5880 H   0  0  0  0  0  0  0  0  0  0  0  0
    4.8830    3.7170    1.2850 H   0  0  0  0  0  0  0  0  0  0  0  0
    3.2530    2.3820    0.3050 H   0  0  0  0  0  0  0  0  0  0  0  0
    2.8810   -1.4860   -1.5470 H   0  0  0  0  0  0  0  0  0  0  0  0
    7.0540   -1.1730    0.5130 H   0  0  0  0  0  0  0  0  0  0  0  0
    5.6440   -3.9350   -1.6910 H   0  0  0  0  0  0  0  0  0  0  0  0
    4.9590   -2.5380   -2.5840 H   0  0  0  0  0  0  0  0  0  0  0  0
    3.8940   -3.5820   -1.5850 H   0  0  0  0  0  0  0  0  0  0  0  0
    1.8050    0.8900   -2.4200 H   0  0  0  0  0  0  0  0  0  0  0  0
    0.4420   -0.9590   -1.7730 H   0  0  0  0  0  0  0  0  0  0  0  0
    1.3240   -0.2810    1.0840 H   0  0  0  0  0  0  0  0  0  0  0  0
    0.9440   -1.8790    0.3910 H   0  0  0  0  0  0  0  0  0  0  0  0
   -1.2950    1.1280    1.2290 H   0  0  0  0  0  0  0  0  0  0  0  0
   -1.4550    0.4940   -1.7260 H   0  0  0  0  0  0  0  0  0  0  0  0
   -0.5630    2.7910   -0.1310 H   0  0  0  0  0  0  0  0  0  0  0  0
   -0.5100    2.6340   -1.9010 H   0  0  0  0  0  0  0  0  0  0  0  0
   -2.6690   -2.1210    0.8500 H   0  0  0  0  0  0  0  0  0  0  0  0
   -3.2440    1.9900   -0.2740 H   0  0  0  0  0  0  0  0  0  0  0  0
   -4.8040    2.8030   -1.9930 H   0  0  0  0  0  0  0  0  0  0  0  0
   -5.0120    3.5270   -0.3610 H   0  0  0  0  0  0  0  0  0  0  0  0
   -6.4060    3.4150   -1.4770 H   0  0  0  0  0  0  0  0  0  0  0  0
   -7.2290   -1.3260    0.3130 H   0  0  0  0  0  0  0  0  0  0  0  0
   -3.8050   -4.1380    0.9900 H   0  0  0  0  0  0  0  0  0  0  0  0
   -5.4600   -4.4110    1.6080 H   0  0  0  0  0  0  0  0  0  0  0  0
   -4.4070   -3.1840    2.3850 H   0  0  0  0  0  0  0  0  0  0  0  0
  1 33  1  0
  1  2  1  0
  1 32  1  0
  1 31  1  0
  2  3  1  0
  3  4  2  0
  3  8  1  0
  4  5  1  0
  4 34  1  0
  5 12  1  0
  5  6  2  0
  6 35  1  0
  6  7  1  0
  7 10  1  0
  7  8  2  0
  8  9  1  0
  9 36  1  0
 10 11  1  0
 11 38  1  0
 11 37  1  0
 11 39  1  0
 12 40  1  6
 12 13  1  0
 12 19  1  0
 13 41  1  6
 13 17  1  0
 13 14  1  0
 14 43  1  0
 14 15  1  0
 14 42  1  0
 15 16  1  0
 16 17  1  0
 16 20  1  0
 16 44  1  1
 17 45  1  6
 17 18  1  0
 18 47  1  0
 18 19  1  0
 18 46  1  0
 20 25  2  0
 20 21  1  0
 21 22  2  0
 21 48  1  0
 22 23  1  0
 22 29  1  0
 23 28  1  0
 23 24  2  0
 24 26  1  0
 24 25  1  0
 25 49  1  0
 26 27  1  0
 27 50  1  0
 27 52  1  0
 27 51  1  0
 28 53  1  0
 29 30  1  0
 30 54  1  0
 30 55  1  0
 30 56  1  0
M  END
>  <id>  (925) 
1042

>  <scaffolds>  (925) 
['c1ccccc1', 'c1ccc(C2OCC3C(c4ccccc4)OCC23)cc1']

>  <name>  (925) 
Syringaresinol

>  <formula>  (925) 
C22H26O8

>  <SMILES>  (925) 
COC1=CC(=CC(=C1O)OC)C2C3COC(C3CO2)C4=CC(=C(C(=C4)OC)O)OC

>  <ChEMBL_id>  (925) 
SCHEMBL120485

>  <ZINC_id>  (925) 


>  <PubChem_id>  (925) 
100067

>  <DrugBank_id>  (925) 


>  <CAS_no>  (925) 
487-35-4

>  <references>  (925) 
[{'journal': {'name': 'Phytochemistry Letters', 'id': 39}, 'title': 'Antibacterial activity of an epoxidised prenylated cinnamaldehdye derivative from Vepris glomerata', 'year': 2012, 'start_page': None, 'volume': None, 'issue': None, 'doi': '10.1016/j.phytol.2012.03.017', 'isbn': '', 'despositor': {'code': 'BND', 'first_name': "Bakary N'tji", 'last_name': 'Diallo', 'id': 26}, 'refauthors_set': [{'author': {'first_name': 'Kiplimo', 'initials': 'KJ', 'last_name': 'Joyce', 'id': 1052}, 'first_author': True, 'id': 1633}], 'id': 535}]

>  <classifications>  (925) 
[{'classification': 'Lignans', 'id': 893}, {'classification': 'Furanoid lignans (Classyfire)', 'id': 1013}]

>  <molecular_mass>  (925) 
418.4

$$$$
SANC01043_minRM1.pdb
     RDKit          3D

 36 38  0  0  1  0  0  0  0  0999 V2000
    6.5450   -0.1420   -0.7180 C   0  0  0  0  0  0  0  0  0  0  0  0
    5.6240   -0.2290    0.3420 O   0  0  0  0  0  0  0  0  0  0  0  0
    4.3140   -0.0120    0.0200 C   0  0  0  0  0  0  0  0  0  0  0  0
    3.3850   -0.6150    0.8860 C   0  0  0  0  0  0  0  0  0  0  0  0
    2.0180   -0.4050    0.7040 C   0  0  0  0  0  0  0  0  0  0  0  0
    1.5920    0.3900   -0.3540 C   0  0  0  0  0  0  0  0  0  0  0  0
    2.5110    0.9710   -1.2220 C   0  0  0  0  0  0  0  0  0  0  0  0
    3.8750    0.7780   -1.0360 C   0  0  0  0  0  0  0  0  0  0  0  0
    0.1280    0.6690   -0.5430 C   0  0  2  0  0  0  0  0  0  0  0  0
   -0.3470    1.6660    0.5140 C   0  0  0  0  0  0  0  0  0  0  0  0
   -1.8350    1.8620    0.3700 C   0  0  0  0  0  0  0  0  0  0  0  0
   -2.3540    2.9530    0.5010 O   0  0  0  0  0  0  0  0  0  0  0  0
   -2.5670    0.6310    0.0880 C   0  0  0  0  0  0  0  0  0  0  0  0
   -3.9620    0.5520    0.1980 C   0  0  0  0  0  0  0  0  0  0  0  0
   -4.6550   -0.6420   -0.0160 C   0  0  0  0  0  0  0  0  0  0  0  0
   -3.9110   -1.7770   -0.3490 C   0  0  0  0  0  0  0  0  0  0  0  0
   -2.5220   -1.7520   -0.4890 C   0  0  0  0  0  0  0  0  0  0  0  0
   -1.8770   -0.5360   -0.2690 C   0  0  0  0  0  0  0  0  0  0  0  0
   -0.5290   -0.5820   -0.4050 O   0  0  0  0  0  0  0  0  0  0  0  0
   -4.4840   -2.9800   -0.5670 O   0  0  0  0  0  0  0  0  0  0  0  0
   -4.5890    1.6930    0.5400 O   0  0  0  0  0  0  0  0  0  0  0  0
    3.7210   -1.3740    1.9570 O   0  0  0  0  0  0  0  0  0  0  0  0
    6.2410   -0.6890   -1.6250 H   0  0  0  0  0  0  0  0  0  0  0  0
    7.4590   -0.6010   -0.3100 H   0  0  0  0  0  0  0  0  0  0  0  0
    6.7710    0.9030   -0.9880 H   0  0  0  0  0  0  0  0  0  0  0  0
    1.3010   -0.8740    1.3860 H   0  0  0  0  0  0  0  0  0  0  0  0
    2.1730    1.5920   -2.0570 H   0  0  0  0  0  0  0  0  0  0  0  0
    4.5780    1.2590   -1.7200 H   0  0  0  0  0  0  0  0  0  0  0  0
   -0.0910    1.0610   -1.5740 H   0  0  0  0  0  0  0  0  0  0  0  0
   -0.1250    1.3090    1.5420 H   0  0  0  0  0  0  0  0  0  0  0  0
    0.2080    2.6220    0.4190 H   0  0  0  0  0  0  0  0  0  0  0  0
   -5.7410   -0.6870    0.0770 H   0  0  0  0  0  0  0  0  0  0  0  0
   -1.9640   -2.6530   -0.7570 H   0  0  0  0  0  0  0  0  0  0  0  0
   -5.4390   -2.9070   -0.4510 H   0  0  0  0  0  0  0  0  0  0  0  0
   -5.5400    1.5350    0.5900 H   0  0  0  0  0  0  0  0  0  0  0  0
    4.6410   -1.6520    1.8780 H   0  0  0  0  0  0  0  0  0  0  0  0
  1 23  1  0
  1 25  1  0
  1 24  1  0
  1  2  1  0
  2  3  1  0
  3  8  2  0
  3  4  1  0
  4  5  2  0
  4 22  1  0
  5  6  1  0
  5 26  1  0
  6  7  2  0
  6  9  1  0
  7 27  1  0
  7  8  1  0
  8 28  1  0
  9 29  1  6
  9 19  1  0
  9 10  1  0
 10 11  1  0
 10 31  1  0
 10 30  1  0
 11 13  1  0
 11 12  2  0
 13 18  2  0
 13 14  1  0
 14 15  2  0
 14 21  1  0
 15 16  1  0
 15 32  1  0
 16 20  1  0
 16 17  2  0
 17 33  1  0
 17 18  1  0
 18 19  1  0
 20 34  1  0
 21 35  1  0
 22 36  1  0
M  END
>  <id>  (926) 
1043

>  <scaffolds>  (926) 
['c1ccccc1', 'O=C1CC(c2ccccc2)Oc2ccccc21', 'c1ccc(C2CCc3ccccc3O2)cc1', 'O=C(CCc1ccccc1)c1ccccc1']

>  <name>  (926) 
Hesperetin

>  <formula>  (926) 
C16H14O6

>  <SMILES>  (926) 
COC1=C(C=C(C=C1)[C@@H]2CC(=O)C3=C(C=C(C=C3O2)O)O)O

>  <ChEMBL_id>  (926) 
CHEMBL399121

>  <ZINC_id>  (926) 
ZINC39092

>  <PubChem_id>  (926) 
72281

>  <DrugBank_id>  (926) 
DB01094

>  <CAS_no>  (926) 
520-33-2

>  <references>  (926) 
[{'journal': {'name': 'Phytochemistry Letters', 'id': 39}, 'title': 'Antibacterial activity of an epoxidised prenylated cinnamaldehdye derivative from Vepris glomerata', 'year': 2012, 'start_page': None, 'volume': None, 'issue': None, 'doi': '10.1016/j.phytol.2012.03.017', 'isbn': '', 'despositor': {'code': 'BND', 'first_name': "Bakary N'tji", 'last_name': 'Diallo', 'id': 26}, 'refauthors_set': [{'author': {'first_name': 'Kiplimo', 'initials': 'KJ', 'last_name': 'Joyce', 'id': 1052}, 'first_author': True, 'id': 1633}], 'id': 535}]

>  <classifications>  (926) 
[{'classification': 'Flavonoids', 'id': 776}, {'classification': 'Flavonoids (Classyfire)', 'id': 941}]

>  <molecular_mass>  (926) 
302.28

$$$$
SANC01044_minRM1.pdb
     RDKit          3D

 20 20  0  0  0  0  0  0  0  0999 V2000
   -0.9390    1.0080   -0.3180 C   0  0  0  0  0  0  0  0  0  0  0  0
   -2.3040    1.2310   -0.2430 C   0  0  0  0  0  0  0  0  0  0  0  0
   -3.1480    0.1500    0.0350 C   0  0  0  0  0  0  0  0  0  0  0  0
   -2.6440   -1.1370    0.2340 C   0  0  0  0  0  0  0  0  0  0  0  0
   -1.2740   -1.3390    0.1470 C   0  0  0  0  0  0  0  0  0  0  0  0
   -0.4180   -0.2720   -0.1220 C   0  0  0  0  0  0  0  0  0  0  0  0
    1.0130   -0.5200   -0.2150 C   0  0  0  0  0  0  0  0  0  0  0  0
    1.9280    0.3510    0.2240 C   0  0  0  0  0  0  0  0  0  0  0  0
    3.3580    0.0330    0.0870 C   0  0  0  0  0  0  0  0  0  0  0  0
    3.8250   -1.0690   -0.1510 O   0  0  0  0  0  0  0  0  0  0  0  0
    4.2780    1.0200    0.2330 O   0  0  0  0  0  0  0  0  0  0  0  0
   -4.4670    0.4470    0.0920 O   0  0  0  0  0  0  0  0  0  0  0  0
   -0.2750    1.8470   -0.5510 H   0  0  0  0  0  0  0  0  0  0  0  0
   -2.7210    2.2300   -0.3990 H   0  0  0  0  0  0  0  0  0  0  0  0
   -3.3060   -1.9790    0.4510 H   0  0  0  0  0  0  0  0  0  0  0  0
   -0.8680   -2.3450    0.2980 H   0  0  0  0  0  0  0  0  0  0  0  0
    1.3100   -1.4780   -0.6690 H   0  0  0  0  0  0  0  0  0  0  0  0
    1.6580    1.2910    0.7130 H   0  0  0  0  0  0  0  0  0  0  0  0
    3.8480    1.8670    0.3820 H   0  0  0  0  0  0  0  0  0  0  0  0
   -4.9640   -0.3600    0.2670 H   0  0  0  0  0  0  0  0  0  0  0  0
  1 13  1  0
  1  2  2  0
  1  6  1  0
  2 14  1  0
  2  3  1  0
  3 12  1  0
  3  4  2  0
  4  5  1  0
  4 15  1  0
  5  6  2  0
  5 16  1  0
  6  7  1  0
  7 17  1  0
  7  8  2  0
  8  9  1  0
  8 18  1  0
  9 10  2  0
  9 11  1  0
 11 19  1  0
 12 20  1  0
M  END
>  <id>  (927) 
1044

>  <scaffolds>  (927) 
['c1ccccc1']

>  <name>  (927) 
P-hydroxycinnamic acid

>  <formula>  (927) 
C9H8O3

>  <SMILES>  (927) 
C1=CC(=CC=C1/C=C/C(=O)O)O

>  <ChEMBL_id>  (927) 
SCHEMBL39106

>  <ZINC_id>  (927) 
ZINC39811

>  <PubChem_id>  (927) 
637542

>  <DrugBank_id>  (927) 
DB04066

>  <CAS_no>  (927) 
7400-08-0

>  <references>  (927) 
[{'journal': {'name': 'Phytochemistry Letters', 'id': 39}, 'title': 'Antibacterial activity of an epoxidised prenylated cinnamaldehdye derivative from Vepris glomerata', 'year': 2012, 'start_page': None, 'volume': None, 'issue': None, 'doi': '10.1016/j.phytol.2012.03.017', 'isbn': '', 'despositor': {'code': 'BND', 'first_name': "Bakary N'tji", 'last_name': 'Diallo', 'id': 26}, 'refauthors_set': [{'author': {'first_name': 'Kiplimo', 'initials': 'KJ', 'last_name': 'Joyce', 'id': 1052}, 'first_author': True, 'id': 1633}], 'id': 535}]

>  <classifications>  (927) 
[{'classification': 'Cinnamic acids and derivatives', 'id': 934}, {'classification': 'Cinnamic acids and derivatives (Classyfire)', 'id': 975}]

>  <molecular_mass>  (927) 
164.16

$$$$
SANC01045_minRM1.pdb
     RDKit          3D

 32 34  0  0  0  0  0  0  0  0999 V2000
    4.6940   -0.3540    0.6470 C   0  0  0  0  0  0  0  0  0  0  0  0
    3.9480   -0.4880   -0.5430 O   0  0  0  0  0  0  0  0  0  0  0  0
    2.6100   -0.6560   -0.3100 C   0  0  0  0  0  0  0  0  0  0  0  0
    1.7970    0.4280   -0.0660 C   0  0  0  0  0  0  0  0  0  0  0  0
    0.3830    0.2410    0.0620 C   0  0  0  0  0  0  0  0  0  0  0  0
   -0.1340   -1.0750   -0.0600 C   0  0  0  0  0  0  0  0  0  0  0  0
    0.7420   -2.1660   -0.2960 C   0  0  0  0  0  0  0  0  0  0  0  0
    2.0860   -1.9680   -0.4150 C   0  0  0  0  0  0  0  0  0  0  0  0
   -1.5390   -1.2670    0.0720 C   0  0  0  0  0  0  0  0  0  0  0  0
   -2.3370   -0.1840    0.3220 C   0  0  0  0  0  0  0  0  0  0  0  0
   -3.7370    0.0850    0.5540 C   0  0  0  0  0  0  0  0  0  0  0  0
   -3.8370    1.4280    0.7490 C   0  0  0  0  0  0  0  0  0  0  0  0
   -2.6160    2.0790    0.6650 O   0  0  0  0  0  0  0  0  0  0  0  0
   -1.6860    1.0970    0.4160 C   0  0  0  0  0  0  0  0  0  0  0  0
   -0.3900    1.3700    0.2950 N   0  0  0  0  0  0  0  0  0  0  0  0
   -2.0340   -2.5390    0.0300 O   0  0  0  0  0  0  0  0  0  0  0  0
   -2.8550   -2.7790   -1.0920 C   0  0  0  0  0  0  0  0  0  0  0  0
    2.4190    1.6200    0.1500 O   0  0  0  0  0  0  0  0  0  0  0  0
    1.9340    2.7070   -0.6100 C   0  0  0  0  0  0  0  0  0  0  0  0
    4.6350   -1.2510    1.2860 H   0  0  0  0  0  0  0  0  0  0  0  0
    5.7300   -0.2290    0.2980 H   0  0  0  0  0  0  0  0  0  0  0  0
    4.4120    0.5240    1.2500 H   0  0  0  0  0  0  0  0  0  0  0  0
    0.3290   -3.1760   -0.3760 H   0  0  0  0  0  0  0  0  0  0  0  0
    2.7720   -2.7990   -0.6040 H   0  0  0  0  0  0  0  0  0  0  0  0
   -4.5280   -0.6510    0.5880 H   0  0  0  0  0  0  0  0  0  0  0  0
   -4.6690    2.0930    0.9570 H   0  0  0  0  0  0  0  0  0  0  0  0
   -3.7320   -2.1150   -1.1510 H   0  0  0  0  0  0  0  0  0  0  0  0
   -2.3000   -2.7090   -2.0410 H   0  0  0  0  0  0  0  0  0  0  0  0
   -3.1980   -3.8150   -0.9500 H   0  0  0  0  0  0  0  0  0  0  0  0
    2.8300    3.3090   -0.8280 H   0  0  0  0  0  0  0  0  0  0  0  0
    1.2340    3.3140   -0.0140 H   0  0  0  0  0  0  0  0  0  0  0  0
    1.4520    2.4350   -1.5620 H   0  0  0  0  0  0  0  0  0  0  0  0
  1  2  1  0
  1 21  1  0
  1 22  1  0
  1 20  1  0
  2  3  1  0
  3  8  2  0
  3  4  1  0
  4  5  2  0
  4 18  1  0
  5  6  1  0
  5 15  1  0
  6  7  2  0
  6  9  1  0
  7  8  1  0
  7 23  1  0
  8 24  1  0
  9 16  1  0
  9 10  2  0
 10 14  1  0
 10 11  1  0
 11 25  1  0
 11 12  2  0
 12 13  1  0
 12 26  1  0
 13 14  1  0
 14 15  2  0
 16 17  1  0
 17 28  1  0
 17 27  1  0
 17 29  1  0
 18 19  1  0
 19 32  1  0
 19 30  1  0
 19 31  1  0
M  END
>  <id>  (928) 
1045

>  <scaffolds>  (928) 
['c1ccccc1', 'c1ccc2nc3occc3cc2c1', 'c1ccoc1']

>  <name>  (928) 
Skimmianine

>  <formula>  (928) 
C14H13NO4

>  <SMILES>  (928) 
COC1=C(C2=C(C=C1)C(=C3C=COC3=N2)OC)OC

>  <ChEMBL_id>  (928) 
SCHEMBL893654

>  <ZINC_id>  (928) 
ZINC35525

>  <PubChem_id>  (928) 
6760

>  <DrugBank_id>  (928) 


>  <CAS_no>  (928) 
83-95-4

>  <references>  (928) 
[{'journal': {'name': 'Phytochemistry Letters', 'id': 39}, 'title': 'Antibacterial activity of an epoxidised prenylated cinnamaldehdye derivative from Vepris glomerata', 'year': 2012, 'start_page': None, 'volume': None, 'issue': None, 'doi': '10.1016/j.phytol.2012.03.017', 'isbn': '', 'despositor': {'code': 'BND', 'first_name': "Bakary N'tji", 'last_name': 'Diallo', 'id': 26}, 'refauthors_set': [{'author': {'first_name': 'Kiplimo', 'initials': 'KJ', 'last_name': 'Joyce', 'id': 1052}, 'first_author': True, 'id': 1633}], 'id': 535}]

>  <classifications>  (928) 
[{'classification': 'Quinolines and derivatives', 'id': 935}, {'classification': 'Quinolines and derivatives (Classyfire)', 'id': 948}]

>  <molecular_mass>  (928) 
259.26

$$$$
SANC01046_minRM1.pdb
     RDKit          3D

 66 65  0  0  1  0  0  0  0  0999 V2000
   -3.8920   -3.1660   -0.0870 C   0  0  0  0  0  0  0  0  0  0  0  0
   -3.6740   -1.6590   -0.1600 C   0  0  1  0  0  0  0  0  0  0  0  0
   -2.6740   -1.3450   -1.2810 C   0  0  0  0  0  0  0  0  0  0  0  0
   -2.2800    0.1320   -1.2790 C   0  0  0  0  0  0  0  0  0  0  0  0
   -1.2960    0.4650   -2.4010 C   0  0  0  0  0  0  0  0  0  0  0  0
    0.1340    0.7600   -1.9280 C   0  0  1  0  0  0  0  0  0  0  0  0
    0.1710    1.9850   -1.0220 C   0  0  0  0  0  0  0  0  0  0  0  0
    0.7420   -0.4630   -1.2380 C   0  0  0  0  0  0  0  0  0  0  0  0
    2.2210   -0.2540   -0.9210 C   0  0  0  0  0  0  0  0  0  0  0  0
    2.8420   -1.5440   -0.3810 C   0  0  0  0  0  0  0  0  0  0  0  0
    4.2850   -1.3050   -0.0660 C   0  0  0  0  0  0  0  0  0  0  0  0
    4.6760   -1.0200    1.1770 C   0  0  0  0  0  0  0  0  0  0  0  0
    6.1030   -0.7770    1.5440 C   0  0  0  0  0  0  0  0  0  0  0  0
    6.5130    0.5030    1.1030 O   0  0  0  0  0  0  0  0  0  0  0  0
    5.9540    1.5870    1.6980 C   0  0  0  0  0  0  0  0  0  0  0  0
    5.1740    1.4610    2.6240 O   0  0  0  0  0  0  0  0  0  0  0  0
    6.4330    2.8610    1.0820 C   0  0  0  0  0  0  0  0  0  0  0  0
    5.2350   -1.4060   -1.2050 C   0  0  0  0  0  0  0  0  0  0  0  0
   -4.9960   -0.9290   -0.4220 C   0  0  0  0  0  0  0  0  0  0  0  0
   -5.9580   -1.0390    0.7580 C   0  0  0  0  0  0  0  0  0  0  0  0
   -7.1760   -0.1330    0.5750 C   0  0  0  0  0  0  0  0  0  0  0  0
   -6.8840    1.3330    0.9110 C   0  0  2  0  0  0  0  0  0  0  0  0
   -6.7510    1.5320    2.4170 C   0  0  0  0  0  0  0  0  0  0  0  0
   -8.0130    2.2150    0.3840 C   0  0  0  0  0  0  0  0  0  0  0  0
   -4.3650   -3.5670   -0.9950 H   0  0  0  0  0  0  0  0  0  0  0  0
   -2.9480   -3.7160    0.0450 H   0  0  0  0  0  0  0  0  0  0  0  0
   -4.5290   -3.4590    0.7590 H   0  0  0  0  0  0  0  0  0  0  0  0
   -3.2440   -1.3120    0.8150 H   0  0  0  0  0  0  0  0  0  0  0  0
   -3.1030   -1.6340   -2.2640 H   0  0  0  0  0  0  0  0  0  0  0  0
   -1.7670   -1.9770   -1.1750 H   0  0  0  0  0  0  0  0  0  0  0  0
   -1.8840    0.4190   -0.2830 H   0  0  0  0  0  0  0  0  0  0  0  0
   -3.1980    0.7560   -1.3800 H   0  0  0  0  0  0  0  0  0  0  0  0
   -1.6710    1.3410   -2.9760 H   0  0  0  0  0  0  0  0  0  0  0  0
   -1.2690   -0.3460   -3.1610 H   0  0  0  0  0  0  0  0  0  0  0  0
    0.7420    0.9880   -2.8450 H   0  0  0  0  0  0  0  0  0  0  0  0
    1.1740    2.4330   -0.9730 H   0  0  0  0  0  0  0  0  0  0  0  0
   -0.4990    2.7830   -1.3740 H   0  0  0  0  0  0  0  0  0  0  0  0
   -0.1180    1.7680    0.0160 H   0  0  0  0  0  0  0  0  0  0  0  0
    0.6150   -1.3570   -1.8850 H   0  0  0  0  0  0  0  0  0  0  0  0
    0.1910   -0.7110   -0.3070 H   0  0  0  0  0  0  0  0  0  0  0  0
    2.3560    0.5600   -0.1780 H   0  0  0  0  0  0  0  0  0  0  0  0
    2.7730    0.0890   -1.8220 H   0  0  0  0  0  0  0  0  0  0  0  0
    2.2850   -1.8970    0.5130 H   0  0  0  0  0  0  0  0  0  0  0  0
    2.7350   -2.3760   -1.1090 H   0  0  0  0  0  0  0  0  0  0  0  0
    3.9590   -0.9370    2.0000 H   0  0  0  0  0  0  0  0  0  0  0  0
    6.2760   -0.9070    2.6360 H   0  0  0  0  0  0  0  0  0  0  0  0
    6.8170   -1.4550    1.0280 H   0  0  0  0  0  0  0  0  0  0  0  0
    6.1160    2.9370    0.0310 H   0  0  0  0  0  0  0  0  0  0  0  0
    7.5310    2.9310    1.0950 H   0  0  0  0  0  0  0  0  0  0  0  0
    6.0360    3.7370    1.6150 H   0  0  0  0  0  0  0  0  0  0  0  0
    4.7370   -1.4410   -2.1860 H   0  0  0  0  0  0  0  0  0  0  0  0
    5.9330   -0.5560   -1.2480 H   0  0  0  0  0  0  0  0  0  0  0  0
    5.8450   -2.3200   -1.1340 H   0  0  0  0  0  0  0  0  0  0  0  0
   -4.7870    0.1400   -0.6530 H   0  0  0  0  0  0  0  0  0  0  0  0
   -5.4750   -1.3190   -1.3450 H   0  0  0  0  0  0  0  0  0  0  0  0
   -5.4400   -0.8150    1.7130 H   0  0  0  0  0  0  0  0  0  0  0  0
   -6.3020   -2.0890    0.8730 H   0  0  0  0  0  0  0  0  0  0  0  0
   -7.5570   -0.2230   -0.4640 H   0  0  0  0  0  0  0  0  0  0  0  0
   -8.0170   -0.5000    1.2020 H   0  0  0  0  0  0  0  0  0  0  0  0
   -5.9270    1.6480    0.4200 H   0  0  0  0  0  0  0  0  0  0  0  0
   -5.9340    0.9370    2.8500 H   0  0  0  0  0  0  0  0  0  0  0  0
   -7.6660    1.2540    2.9590 H   0  0  0  0  0  0  0  0  0  0  0  0
   -6.5390    2.5800    2.6750 H   0  0  0  0  0  0  0  0  0  0  0  0
   -7.8550    3.2760    0.6270 H   0  0  0  0  0  0  0  0  0  0  0  0
   -8.9900    1.9370    0.8040 H   0  0  0  0  0  0  0  0  0  0  0  0
   -8.1100    2.1590   -0.7100 H   0  0  0  0  0  0  0  0  0  0  0  0
  1 25  1  0
  1  2  1  0
  1 26  1  0
  1 27  1  0
  2  3  1  0
  2 19  1  0
  2 28  1  1
  3 29  1  0
  3  4  1  0
  3 30  1  0
  4  5  1  0
  4 32  1  0
  4 31  1  0
  5 34  1  0
  5 33  1  0
  5  6  1  0
  6 35  1  6
  6  8  1  0
  6  7  1  0
  7 37  1  0
  7 36  1  0
  7 38  1  0
  8 39  1  0
  8  9  1  0
  8 40  1  0
  9 42  1  0
  9 10  1  0
  9 41  1  0
 10 44  1  0
 10 11  1  0
 10 43  1  0
 11 18  1  0
 11 12  2  0
 12 13  1  0
 12 45  1  0
 13 47  1  0
 13 14  1  0
 13 46  1  0
 14 15  1  0
 15 17  1  0
 15 16  2  0
 17 48  1  0
 17 49  1  0
 17 50  1  0
 18 51  1  0
 18 52  1  0
 18 53  1  0
 19 55  1  0
 19 54  1  0
 19 20  1  0
 20 21  1  0
 20 57  1  0
 20 56  1  0
 21 58  1  0
 21 22  1  0
 21 59  1  0
 22 24  1  0
 22 60  1  6
 22 23  1  0
 23 63  1  0
 23 61  1  0
 23 62  1  0
 24 66  1  0
 24 64  1  0
 24 65  1  0
M  END
>  <id>  (929) 
1046

>  <scaffolds>  (929) 
[]

>  <name>  (929) 
Phytol acetate

>  <formula>  (929) 
C22H42O2

>  <SMILES>  (929) 
C[C@@H](CCC[C@@H](C)CCC/C(=C/COC(=O)C)/C)CCCC(C)C

>  <ChEMBL_id>  (929) 
SCHEMBL4990812

>  <ZINC_id>  (929) 
ZINC5758645

>  <PubChem_id>  (929) 
637195

>  <DrugBank_id>  (929) 


>  <CAS_no>  (929) 
10236-16-5

>  <references>  (929) 
[{'journal': {'name': 'Phytochemistry Letters', 'id': 39}, 'title': 'The potential of Leucosidea sericea against Propionibacterium acnes', 'year': 2014, 'start_page': None, 'volume': None, 'issue': None, 'doi': '10.1016/j.phytol.2013.11.005', 'isbn': '', 'despositor': {'code': 'BND', 'first_name': "Bakary N'tji", 'last_name': 'Diallo', 'id': 26}, 'refauthors_set': [{'author': {'first_name': 'Sharma', 'initials': 'SR', 'last_name': 'Richa', 'id': 1053}, 'first_author': True, 'id': 1634}], 'id': 536}]

>  <classifications>  (929) 
[{'classification': 'Phenol lipids', 'id': 899}, {'classification': 'Phenol lipids (Classyfire)', 'id': 951}]

>  <molecular_mass>  (929) 
338.6

$$$$
SANC01047_minRM1.pdb
     RDKit          3D

 65 66  0  0  0  0  0  0  0  0999 V2000
   -4.4750    2.9850   -0.6250 C   0  0  0  0  0  0  0  0  0  0  0  0
   -3.4690    1.8920   -0.6350 C   0  0  0  0  0  0  0  0  0  0  0  0
   -2.2630    1.9930   -1.3400 C   0  0  0  0  0  0  0  0  0  0  0  0
   -1.2950    0.9780   -1.2970 C   0  0  0  0  0  0  0  0  0  0  0  0
   -1.6020   -0.1750   -0.5770 C   0  0  0  0  0  0  0  0  0  0  0  0
   -2.8090   -0.3340    0.1110 C   0  0  0  0  0  0  0  0  0  0  0  0
   -3.7080    0.7280    0.1000 C   0  0  0  0  0  0  0  0  0  0  0  0
   -4.8340    0.7150    0.8790 O   0  0  0  0  0  0  0  0  0  0  0  0
   -5.8210   -0.1930    0.4490 C   0  0  0  0  0  0  0  0  0  0  0  0
   -3.0790   -1.5670    0.8810 C   0  0  0  0  0  0  0  0  0  0  0  0
   -3.2280   -1.5170    2.0870 O   0  0  0  0  0  0  0  0  0  0  0  0
   -3.1100   -2.8780    0.1190 C   0  0  0  0  0  0  0  0  0  0  0  0
   -3.9350   -3.9160    0.8720 C   0  0  0  0  0  0  0  0  0  0  0  0
   -3.6590   -2.7000   -1.2890 C   0  0  0  0  0  0  0  0  0  0  0  0
   -0.7020   -1.1980   -0.6170 O   0  0  0  0  0  0  0  0  0  0  0  0
    0.0350    1.1000   -1.9650 C   0  0  0  0  0  0  0  0  0  0  0  0
    1.1130    1.0160   -0.9340 C   0  0  0  0  0  0  0  0  0  0  0  0
    2.0100   -0.0550   -0.8780 C   0  0  0  0  0  0  0  0  0  0  0  0
    3.0170   -0.1190    0.0920 C   0  0  0  0  0  0  0  0  0  0  0  0
    3.1130    0.9150    1.0190 C   0  0  0  0  0  0  0  0  0  0  0  0
    2.2520    2.0110    1.0010 C   0  0  0  0  0  0  0  0  0  0  0  0
    1.2580    2.0380    0.0130 C   0  0  0  0  0  0  0  0  0  0  0  0
    0.3640    3.0470   -0.0910 O   0  0  0  0  0  0  0  0  0  0  0  0
    2.3840    3.1140    1.9850 C   0  0  0  0  0  0  0  0  0  0  0  0
    4.1580    0.8850    1.9050 O   0  0  0  0  0  0  0  0  0  0  0  0
    3.7930    0.3650    3.1650 C   0  0  0  0  0  0  0  0  0  0  0  0
    3.9630   -1.2560    0.1350 C   0  0  0  0  0  0  0  0  0  0  0  0
    4.0020   -2.0000    1.0950 O   0  0  0  0  0  0  0  0  0  0  0  0
    4.8840   -1.4210   -1.0540 C   0  0  0  0  0  0  0  0  0  0  0  0
    6.3030   -1.1050   -0.5950 C   0  0  0  0  0  0  0  0  0  0  0  0
    4.7900   -2.8500   -1.5720 C   0  0  0  0  0  0  0  0  0  0  0  0
    1.9810   -1.0920   -1.7420 O   0  0  0  0  0  0  0  0  0  0  0  0
   -1.9670    3.0540   -2.1230 O   0  0  0  0  0  0  0  0  0  0  0  0
   -4.6220    3.3830    0.3910 H   0  0  0  0  0  0  0  0  0  0  0  0
   -4.2070    3.8420   -1.2640 H   0  0  0  0  0  0  0  0  0  0  0  0
   -5.4580    2.6310   -0.9730 H   0  0  0  0  0  0  0  0  0  0  0  0
   -5.5760   -1.2390    0.6910 H   0  0  0  0  0  0  0  0  0  0  0  0
   -6.0510   -0.1200   -0.6270 H   0  0  0  0  0  0  0  0  0  0  0  0
   -6.7140    0.0950    1.0260 H   0  0  0  0  0  0  0  0  0  0  0  0
   -2.0490   -3.2400    0.0550 H   0  0  0  0  0  0  0  0  0  0  0  0
   -3.5540   -4.0930    1.8890 H   0  0  0  0  0  0  0  0  0  0  0  0
   -4.9880   -3.6190    0.9770 H   0  0  0  0  0  0  0  0  0  0  0  0
   -3.9280   -4.8890    0.3600 H   0  0  0  0  0  0  0  0  0  0  0  0
   -3.7070   -3.6590   -1.8270 H   0  0  0  0  0  0  0  0  0  0  0  0
   -4.6770   -2.2850   -1.2950 H   0  0  0  0  0  0  0  0  0  0  0  0
   -3.0370   -2.0340   -1.9030 H   0  0  0  0  0  0  0  0  0  0  0  0
   -0.3490   -1.2930    0.2780 H   0  0  0  0  0  0  0  0  0  0  0  0
    0.1510    2.0440   -2.5400 H   0  0  0  0  0  0  0  0  0  0  0  0
    0.1320    0.3030   -2.7390 H   0  0  0  0  0  0  0  0  0  0  0  0
    0.6210    3.7600    0.5120 H   0  0  0  0  0  0  0  0  0  0  0  0
    1.8050    2.9120    2.9000 H   0  0  0  0  0  0  0  0  0  0  0  0
    3.4260    3.2880    2.2910 H   0  0  0  0  0  0  0  0  0  0  0  0
    2.0200    4.0790    1.5900 H   0  0  0  0  0  0  0  0  0  0  0  0
    3.1110    1.0330    3.7170 H   0  0  0  0  0  0  0  0  0  0  0  0
    3.3370   -0.6370    3.1150 H   0  0  0  0  0  0  0  0  0  0  0  0
    4.7470    0.2970    3.7090 H   0  0  0  0  0  0  0  0  0  0  0  0
    4.5920   -0.7120   -1.8700 H   0  0  0  0  0  0  0  0  0  0  0  0
    6.6440   -1.7830    0.2010 H   0  0  0  0  0  0  0  0  0  0  0  0
    6.3900   -0.0810   -0.2030 H   0  0  0  0  0  0  0  0  0  0  0  0
    7.0240   -1.1930   -1.4210 H   0  0  0  0  0  0  0  0  0  0  0  0
    5.0720   -3.5910   -0.8100 H   0  0  0  0  0  0  0  0  0  0  0  0
    5.4510   -3.0110   -2.4350 H   0  0  0  0  0  0  0  0  0  0  0  0
    3.7700   -3.0990   -1.8990 H   0  0  0  0  0  0  0  0  0  0  0  0
    1.1810   -1.0340   -2.2880 H   0  0  0  0  0  0  0  0  0  0  0  0
   -2.6220    3.7510   -1.9720 H   0  0  0  0  0  0  0  0  0  0  0  0
  1 35  1  0
  1 36  1  0
  1  2  1  0
  1 34  1  0
  2  3  2  0
  2  7  1  0
  3 33  1  0
  3  4  1  0
  4 16  1  0
  4  5  2  0
  5 15  1  0
  5  6  1  0
  6  7  2  0
  6 10  1  0
  7  8  1  0
  8  9  1  0
  9 38  1  0
  9 37  1  0
  9 39  1  0
 10 12  1  0
 10 11  2  0
 12 14  1  0
 12 40  1  0
 12 13  1  0
 13 43  1  0
 13 42  1  0
 13 41  1  0
 14 46  1  0
 14 44  1  0
 14 45  1  0
 15 47  1  0
 16 49  1  0
 16 48  1  0
 16 17  1  0
 17 18  2  0
 17 22  1  0
 18 32  1  0
 18 19  1  0
 19 27  1  0
 19 20  2  0
 20 21  1  0
 20 25  1  0
 21 22  2  0
 21 24  1  0
 22 23  1  0
 23 50  1  0
 24 53  1  0
 24 52  1  0
 24 51  1  0
 25 26  1  0
 26 55  1  0
 26 56  1  0
 26 54  1  0
 27 29  1  0
 27 28  2  0
 29 57  1  0
 29 31  1  0
 29 30  1  0
 30 60  1  0
 30 59  1  0
 30 58  1  0
 31 62  1  0
 31 63  1  0
 31 61  1  0
 32 64  1  0
 33 65  1  0
M  END
>  <id>  (930) 
1047

>  <scaffolds>  (930) 
['c1ccccc1', 'c1ccc(Cc2ccccc2)cc1']

>  <name>  (930) 
Alpha kosin

>  <formula>  (930) 
C25H32O8

>  <SMILES>  (930) 
CC1=C(C(=C(C(=C1OC)C(=O)C(C)C)O)CC2=C(C(=C(C(=C2O)C)OC)C(=O)C(C)C)O)O

>  <ChEMBL_id>  (930) 
SCHEMBL4742767

>  <ZINC_id>  (930) 


>  <PubChem_id>  (930) 
160529

>  <DrugBank_id>  (930) 


>  <CAS_no>  (930) 
568-50-3

>  <references>  (930) 
[{'journal': {'name': 'Phytochemistry Letters', 'id': 39}, 'title': 'The potential of Leucosidea sericea against Propionibacterium acnes', 'year': 2014, 'start_page': None, 'volume': None, 'issue': None, 'doi': '10.1016/j.phytol.2013.11.005', 'isbn': '', 'despositor': {'code': 'BND', 'first_name': "Bakary N'tji", 'last_name': 'Diallo', 'id': 26}, 'refauthors_set': [{'author': {'first_name': 'Sharma', 'initials': 'SR', 'last_name': 'Richa', 'id': 1053}, 'first_author': True, 'id': 1634}], 'id': 536}]

>  <classifications>  (930) 
[{'classification': 'Phenols', 'id': 895}, {'classification': 'Benzene and substituted derivatives (Classyfire)', 'id': 961}]

>  <molecular_mass>  (930) 
460.5

$$$$
SANC01048_minRM1.pdb
     RDKit          3D

 93 92  0  0  0  0  0  0  0  0999 V2000
  -10.0450    2.8790   -1.8670 C   0  0  0  0  0  0  0  0  0  0  0  0
  -11.2290    1.9520   -2.0780 C   0  0  0  0  0  0  0  0  0  0  0  0
  -11.7050    1.3140   -0.7770 C   0  0  0  0  0  0  0  0  0  0  0  0
  -10.6290    0.5000   -0.0630 C   0  0  0  0  0  0  0  0  0  0  0  0
  -10.0810   -0.6220   -0.9380 C   0  0  0  0  0  0  0  0  0  0  0  0
   -9.3410   -1.6790   -0.1230 C   0  0  0  0  0  0  0  0  0  0  0  0
   -8.1710   -1.1290    0.6860 C   0  0  0  0  0  0  0  0  0  0  0  0
   -7.1210   -0.4580   -0.1930 C   0  0  0  0  0  0  0  0  0  0  0  0
   -5.8410   -0.1750    0.5940 C   0  0  0  0  0  0  0  0  0  0  0  0
   -5.1400   -1.4700    0.9890 C   0  0  0  0  0  0  0  0  0  0  0  0
   -4.0000   -1.2370    1.9750 C   0  0  0  0  0  0  0  0  0  0  0  0
   -2.8990   -0.3220    1.4510 C   0  0  0  0  0  0  0  0  0  0  0  0
   -2.2670   -0.7880    0.1450 C   0  0  0  0  0  0  0  0  0  0  0  0
   -1.6690   -2.1890    0.2080 C   0  0  0  0  0  0  0  0  0  0  0  0
   -0.5970   -2.3640    1.2770 C   0  0  0  0  0  0  0  0  0  0  0  0
    0.5710   -1.3880    1.1600 C   0  0  0  0  0  0  0  0  0  0  0  0
    1.2910   -1.5090   -0.1780 C   0  0  0  0  0  0  0  0  0  0  0  0
    2.5880   -0.7000   -0.2050 C   0  0  0  0  0  0  0  0  0  0  0  0
    2.3460    0.8090   -0.1080 C   0  0  0  0  0  0  0  0  0  0  0  0
    2.5900    1.3820    1.2910 C   0  0  0  0  0  0  0  0  0  0  0  0
    3.9530    2.0600    1.4260 C   0  0  0  0  0  0  0  0  0  0  0  0
    5.1010    1.0690    1.2770 C   0  0  0  0  0  0  0  0  0  0  0  0
    6.4560    1.7050    1.5820 C   0  0  0  0  0  0  0  0  0  0  0  0
    6.8790    2.7650    0.5710 C   0  0  0  0  0  0  0  0  0  0  0  0
    7.1740    2.2050   -0.8180 C   0  0  0  0  0  0  0  0  0  0  0  0
    8.4050    1.2940   -0.8500 C   0  0  0  0  0  0  0  0  0  0  0  0
    8.0280   -0.1700   -1.0640 C   0  0  0  0  0  0  0  0  0  0  0  0
    9.2400   -1.0950   -0.9790 C   0  0  0  0  0  0  0  0  0  0  0  0
   10.2380   -0.8780   -2.1170 C   0  0  0  0  0  0  0  0  0  0  0  0
   11.5130   -0.1570   -1.6570 C   0  0  0  0  0  0  0  0  0  0  0  0
   12.4130   -1.0310   -1.0480 O   0  0  0  0  0  0  0  0  0  0  0  0
   -9.8320    3.4790   -2.7640 H   0  0  0  0  0  0  0  0  0  0  0  0
  -10.2120    3.5900   -1.0450 H   0  0  0  0  0  0  0  0  0  0  0  0
   -9.1170    2.3360   -1.6350 H   0  0  0  0  0  0  0  0  0  0  0  0
  -10.9850    1.1780   -2.8360 H   0  0  0  0  0  0  0  0  0  0  0  0
  -12.0700    2.5180   -2.5370 H   0  0  0  0  0  0  0  0  0  0  0  0
  -12.5920    0.6750   -0.9800 H   0  0  0  0  0  0  0  0  0  0  0  0
  -12.0870    2.1020   -0.0920 H   0  0  0  0  0  0  0  0  0  0  0  0
  -11.0560    0.0810    0.8750 H   0  0  0  0  0  0  0  0  0  0  0  0
   -9.8110    1.1650    0.2850 H   0  0  0  0  0  0  0  0  0  0  0  0
  -10.9090   -1.1100   -1.4980 H   0  0  0  0  0  0  0  0  0  0  0  0
   -9.4220   -0.2140   -1.7330 H   0  0  0  0  0  0  0  0  0  0  0  0
   -8.9840   -2.4840   -0.8020 H   0  0  0  0  0  0  0  0  0  0  0  0
  -10.0520   -2.1950    0.5590 H   0  0  0  0  0  0  0  0  0  0  0  0
   -7.7030   -1.9620    1.2620 H   0  0  0  0  0  0  0  0  0  0  0  0
   -8.5250   -0.4290    1.4710 H   0  0  0  0  0  0  0  0  0  0  0  0
   -6.8950   -1.0840   -1.0820 H   0  0  0  0  0  0  0  0  0  0  0  0
   -7.5150    0.4930   -0.6120 H   0  0  0  0  0  0  0  0  0  0  0  0
   -6.0700    0.4380    1.4910 H   0  0  0  0  0  0  0  0  0  0  0  0
   -5.1670    0.4630   -0.0170 H   0  0  0  0  0  0  0  0  0  0  0  0
   -4.7830   -2.0090    0.0860 H   0  0  0  0  0  0  0  0  0  0  0  0
   -5.8790   -2.1710    1.4440 H   0  0  0  0  0  0  0  0  0  0  0  0
   -4.4060   -0.8130    2.9200 H   0  0  0  0  0  0  0  0  0  0  0  0
   -3.5730   -2.2140    2.2870 H   0  0  0  0  0  0  0  0  0  0  0  0
   -2.1170   -0.2030    2.2340 H   0  0  0  0  0  0  0  0  0  0  0  0
   -3.2910    0.7110    1.3230 H   0  0  0  0  0  0  0  0  0  0  0  0
   -1.4920   -0.0560   -0.1720 H   0  0  0  0  0  0  0  0  0  0  0  0
   -3.0120   -0.7420   -0.6790 H   0  0  0  0  0  0  0  0  0  0  0  0
   -1.2620   -2.4610   -0.7910 H   0  0  0  0  0  0  0  0  0  0  0  0
   -2.4730   -2.9420    0.3670 H   0  0  0  0  0  0  0  0  0  0  0  0
   -1.0470   -2.2830    2.2900 H   0  0  0  0  0  0  0  0  0  0  0  0
   -0.2150   -3.4080    1.2400 H   0  0  0  0  0  0  0  0  0  0  0  0
    0.2330   -0.3450    1.3320 H   0  0  0  0  0  0  0  0  0  0  0  0
    1.2840   -1.5820    1.9920 H   0  0  0  0  0  0  0  0  0  0  0  0
    0.6320   -1.1910   -1.0130 H   0  0  0  0  0  0  0  0  0  0  0  0
    1.5150   -2.5760   -0.3940 H   0  0  0  0  0  0  0  0  0  0  0  0
    3.1320   -0.9280   -1.1470 H   0  0  0  0  0  0  0  0  0  0  0  0
    3.2770   -1.0560    0.5880 H   0  0  0  0  0  0  0  0  0  0  0  0
    1.3140    1.0540   -0.4370 H   0  0  0  0  0  0  0  0  0  0  0  0
    2.9770    1.3380   -0.8540 H   0  0  0  0  0  0  0  0  0  0  0  0
    1.7970    2.1240    1.5300 H   0  0  0  0  0  0  0  0  0  0  0  0
    2.4680    0.6070    2.0760 H   0  0  0  0  0  0  0  0  0  0  0  0
    4.0420    2.8820    0.6840 H   0  0  0  0  0  0  0  0  0  0  0  0
    4.0140    2.5710    2.4110 H   0  0  0  0  0  0  0  0  0  0  0  0
    5.0980    0.6180    0.2630 H   0  0  0  0  0  0  0  0  0  0  0  0
    4.9450    0.2070    1.9620 H   0  0  0  0  0  0  0  0  0  0  0  0
    7.2320    0.9130    1.6540 H   0  0  0  0  0  0  0  0  0  0  0  0
    6.4390    2.1520    2.6000 H   0  0  0  0  0  0  0  0  0  0  0  0
    6.1040    3.5570    0.4970 H   0  0  0  0  0  0  0  0  0  0  0  0
    7.7720    3.3060    0.9540 H   0  0  0  0  0  0  0  0  0  0  0  0
    6.2790    1.6950   -1.2310 H   0  0  0  0  0  0  0  0  0  0  0  0
    7.3270    3.0560   -1.5180 H   0  0  0  0  0  0  0  0  0  0  0  0
    9.0910    1.6270   -1.6590 H   0  0  0  0  0  0  0  0  0  0  0  0
    9.0120    1.4050    0.0730 H   0  0  0  0  0  0  0  0  0  0  0  0
    7.2720   -0.4840   -0.3130 H   0  0  0  0  0  0  0  0  0  0  0  0
    7.5120   -0.2990   -2.0400 H   0  0  0  0  0  0  0  0  0  0  0  0
    8.8880   -2.1500   -0.9900 H   0  0  0  0  0  0  0  0  0  0  0  0
    9.7220   -0.9920    0.0160 H   0  0  0  0  0  0  0  0  0  0  0  0
    9.7770   -0.3120   -2.9530 H   0  0  0  0  0  0  0  0  0  0  0  0
   10.5130   -1.8500   -2.5800 H   0  0  0  0  0  0  0  0  0  0  0  0
   11.2780    0.7200   -1.0090 H   0  0  0  0  0  0  0  0  0  0  0  0
   12.0850    0.2440   -2.5230 H   0  0  0  0  0  0  0  0  0  0  0  0
   11.9860   -1.4140   -0.2760 H   0  0  0  0  0  0  0  0  0  0  0  0
  1 32  1  0
  1  2  1  0
  1 34  1  0
  1 33  1  0
  2 35  1  0
  2 36  1  0
  2  3  1  0
  3 37  1  0
  3 38  1  0
  3  4  1  0
  4  5  1  0
  4 40  1  0
  4 39  1  0
  5 42  1  0
  5 41  1  0
  5  6  1  0
  6 43  1  0
  6 44  1  0
  6  7  1  0
  7  8  1  0
  7 45  1  0
  7 46  1  0
  8 47  1  0
  8 48  1  0
  8  9  1  0
  9 50  1  0
  9 10  1  0
  9 49  1  0
 10 51  1  0
 10 52  1  0
 10 11  1  0
 11 12  1  0
 11 54  1  0
 11 53  1  0
 12 13  1  0
 12 56  1  0
 12 55  1  0
 13 58  1  0
 13 57  1  0
 13 14  1  0
 14 59  1  0
 14 60  1  0
 14 15  1  0
 15 16  1  0
 15 62  1  0
 15 61  1  0
 16 17  1  0
 16 63  1  0
 16 64  1  0
 17 65  1  0
 17 66  1  0
 17 18  1  0
 18 67  1  0
 18 19  1  0
 18 68  1  0
 19 70  1  0
 19 69  1  0
 19 20  1  0
 20 21  1  0
 20 71  1  0
 20 72  1  0
 21 73  1  0
 21 22  1  0
 21 74  1  0
 22 75  1  0
 22 23  1  0
 22 76  1  0
 23 24  1  0
 23 77  1  0
 23 78  1  0
 24 25  1  0
 24 79  1  0
 24 80  1  0
 25 82  1  0
 25 81  1  0
 25 26  1  0
 26 83  1  0
 26 27  1  0
 26 84  1  0
 27 86  1  0
 27 28  1  0
 27 85  1  0
 28 29  1  0
 28 87  1  0
 28 88  1  0
 29 89  1  0
 29 90  1  0
 29 30  1  0
 30 92  1  0
 30 31  1  0
 30 91  1  0
 31 93  1  0
M  END
>  <id>  (931) 
1048

>  <scaffolds>  (931) 
[]

>  <name>  (931) 
1-triacontanol

>  <formula>  (931) 
C30H62O

>  <SMILES>  (931) 
CCCCCCCCCCCCCCCCCCCCCCCCCCCCCCO

>  <ChEMBL_id>  (931) 
CHEMBL1079147

>  <ZINC_id>  (931) 
ZINC6920386

>  <PubChem_id>  (931) 
68972

>  <DrugBank_id>  (931) 


>  <CAS_no>  (931) 
593-50-0

>  <references>  (931) 
[{'journal': {'name': 'Phytochemistry Letters', 'id': 39}, 'title': 'The potential of Leucosidea sericea against Propionibacterium acnes', 'year': 2014, 'start_page': None, 'volume': None, 'issue': None, 'doi': '10.1016/j.phytol.2013.11.005', 'isbn': '', 'despositor': {'code': 'BND', 'first_name': "Bakary N'tji", 'last_name': 'Diallo', 'id': 26}, 'refauthors_set': [{'author': {'first_name': 'Sharma', 'initials': 'SR', 'last_name': 'Richa', 'id': 1053}, 'first_author': True, 'id': 1634}], 'id': 536}]

>  <classifications>  (931) 
[{'classification': ' Fatty Acyls', 'id': 924}, {'classification': 'Fatty Acyls (Classyfire)', 'id': 957}]

>  <molecular_mass>  (931) 
438.8

$$$$
SANC01049_minRM1.pdb
     RDKit          3D

 88 92  0  0  1  0  0  0  0  0999 V2000
    4.6340   -3.6210    0.1200 C   0  0  0  0  0  0  0  0  0  0  0  0
    3.6820   -2.4830    0.0370 C   0  0  0  0  0  0  0  0  0  0  0  0
    2.3260   -2.7570    0.1610 C   0  0  0  0  0  0  0  0  0  0  0  0
    1.3960   -1.7220    0.0750 C   0  0  0  0  0  0  0  0  0  0  0  0
    1.7810   -0.3950   -0.1680 C   0  0  0  0  0  0  0  0  0  0  0  0
    3.1570   -0.1500   -0.2480 C   0  0  0  0  0  0  0  0  0  0  0  0
    4.1200   -1.1680   -0.1590 C   0  0  0  0  0  0  0  0  0  0  0  0
    5.5370   -0.8190   -0.2840 C   0  0  0  0  0  0  0  0  0  0  0  0
    6.4560   -1.6220   -0.2150 O   0  0  0  0  0  0  0  0  0  0  0  0
    5.8070    0.6020   -0.4950 C   0  0  0  0  0  0  0  0  0  0  0  0
    4.8030    1.4870   -0.5320 C   0  0  0  0  0  0  0  0  0  0  0  0
    3.4870    1.1620   -0.4190 O   0  0  0  0  0  0  0  0  0  0  0  0
    4.9660    2.9570   -0.7200 C   0  0  0  0  0  0  0  0  0  0  0  0
    6.1310    3.4700    0.0970 C   0  0  0  0  0  0  0  0  0  0  0  0
    6.9570    4.2160   -0.3910 O   0  0  0  0  0  0  0  0  0  0  0  0
    6.1830    3.0380    1.5300 C   0  0  0  0  0  0  0  0  0  0  0  0
    0.7160    0.6500   -0.3480 C   0  0  1  0  0  0  0  0  0  0  0  0
    0.1380    1.0510    1.0390 C   0  0  1  0  0  0  0  0  0  0  0  0
    0.8150    2.3230    1.5970 C   0  0  2  0  0  0  0  0  0  0  0  0
    0.8110    3.4750    0.5480 C   0  0  1  0  0  0  0  0  0  0  0  0
    0.5740    2.9310   -0.8840 C   0  0  2  0  0  0  0  0  0  0  0  0
    1.2870    1.7350   -1.0390 O   0  0  0  0  0  0  0  0  0  0  0  0
    1.1670    3.8880   -1.9460 C   0  0  0  0  0  0  0  0  0  0  0  0
    1.0190    3.4020   -3.2390 O   0  0  0  0  0  0  0  0  0  0  0  0
   -0.2460    4.3050    0.9300 O   0  0  0  0  0  0  0  0  0  0  0  0
    2.1350    1.9440    1.8520 O   0  0  0  0  0  0  0  0  0  0  0  0
   -1.2190    1.3520    0.7790 O   0  0  0  0  0  0  0  0  0  0  0  0
   -2.0910    1.4280    1.8190 C   0  0  0  0  0  0  0  0  0  0  0  0
   -1.7210    1.1940    2.9560 O   0  0  0  0  0  0  0  0  0  0  0  0
   -3.4520    1.8090    1.4170 C   0  0  0  0  0  0  0  0  0  0  0  0
   -3.8530    1.9030    0.1460 C   0  0  0  0  0  0  0  0  0  0  0  0
   -5.2140    2.2950   -0.2000 C   0  0  0  0  0  0  0  0  0  0  0  0
   -5.4160    3.1610   -1.2790 C   0  0  0  0  0  0  0  0  0  0  0  0
   -6.6920    3.5640   -1.6270 C   0  0  0  0  0  0  0  0  0  0  0  0
   -7.7760    3.0760   -0.8870 C   0  0  0  0  0  0  0  0  0  0  0  0
   -7.5930    2.1990    0.1830 C   0  0  0  0  0  0  0  0  0  0  0  0
   -6.3020    1.8140    0.5210 C   0  0  0  0  0  0  0  0  0  0  0  0
   -8.9920    3.5140   -1.2900 O   0  0  0  0  0  0  0  0  0  0  0  0
    0.0510   -1.8900    0.2160 O   0  0  0  0  0  0  0  0  0  0  0  0
   -0.4410   -3.1550    0.5760 C   0  0  1  0  0  0  0  0  0  0  0  0
   -1.9290   -2.9000    0.9520 C   0  0  1  0  0  0  0  0  0  0  0  0
   -2.6350   -4.2760    1.0540 C   0  0  2  0  0  0  0  0  0  0  0  0
   -2.4390   -5.0380   -0.2810 C   0  0  1  0  0  0  0  0  0  0  0  0
   -0.9230   -5.1580   -0.5660 C   0  0  2  0  0  0  0  0  0  0  0  0
   -0.3540   -3.8750   -0.6300 O   0  0  0  0  0  0  0  0  0  0  0  0
   -0.6540   -5.7490   -1.9720 C   0  0  0  0  0  0  0  0  0  0  0  0
   -1.1790   -7.0350   -2.0640 O   0  0  0  0  0  0  0  0  0  0  0  0
   -2.9780   -6.3010   -0.0460 O   0  0  0  0  0  0  0  0  0  0  0  0
   -3.9820   -3.9720    1.2450 O   0  0  0  0  0  0  0  0  0  0  0  0
   -1.8720   -2.3080    2.2100 O   0  0  0  0  0  0  0  0  0  0  0  0
    5.2420   -3.7120   -0.7940 H   0  0  0  0  0  0  0  0  0  0  0  0
    4.1460   -4.5970    0.2620 H   0  0  0  0  0  0  0  0  0  0  0  0
    5.3360   -3.5030    0.9620 H   0  0  0  0  0  0  0  0  0  0  0  0
    2.0110   -3.7940    0.3000 H   0  0  0  0  0  0  0  0  0  0  0  0
    6.8490    0.9040   -0.6280 H   0  0  0  0  0  0  0  0  0  0  0  0
    4.0590    3.5280   -0.4210 H   0  0  0  0  0  0  0  0  0  0  0  0
    5.0910    3.1730   -1.8050 H   0  0  0  0  0  0  0  0  0  0  0  0
    5.1850    2.8520    1.9520 H   0  0  0  0  0  0  0  0  0  0  0  0
    6.6780    3.7830    2.1710 H   0  0  0  0  0  0  0  0  0  0  0  0
    6.7560    2.1020    1.6340 H   0  0  0  0  0  0  0  0  0  0  0  0
   -0.0970    0.2330   -1.0110 H   0  0  0  0  0  0  0  0  0  0  0  0
    0.2420    0.2030    1.7690 H   0  0  0  0  0  0  0  0  0  0  0  0
    0.2900    2.6520    2.5360 H   0  0  0  0  0  0  0  0  0  0  0  0
    1.7920    4.0250    0.5920 H   0  0  0  0  0  0  0  0  0  0  0  0
   -0.5260    2.7990   -1.0790 H   0  0  0  0  0  0  0  0  0  0  0  0
    0.7130    4.9010   -1.8320 H   0  0  0  0  0  0  0  0  0  0  0  0
    2.2660    4.0130   -1.8380 H   0  0  0  0  0  0  0  0  0  0  0  0
    0.0990    3.1530   -3.3720 H   0  0  0  0  0  0  0  0  0  0  0  0
   -0.2220    5.0870    0.3720 H   0  0  0  0  0  0  0  0  0  0  0  0
    2.4540    2.5020    2.5670 H   0  0  0  0  0  0  0  0  0  0  0  0
   -4.1100    2.0320    2.2650 H   0  0  0  0  0  0  0  0  0  0  0  0
   -3.1850    1.7010   -0.7010 H   0  0  0  0  0  0  0  0  0  0  0  0
   -4.5580    3.5320   -1.8500 H   0  0  0  0  0  0  0  0  0  0  0  0
   -6.8590    4.2480   -2.4640 H   0  0  0  0  0  0  0  0  0  0  0  0
   -8.4430    1.8140    0.7530 H   0  0  0  0  0  0  0  0  0  0  0  0
   -6.1530    1.1180    1.3530 H   0  0  0  0  0  0  0  0  0  0  0  0
   -9.6690    3.1330   -0.7180 H   0  0  0  0  0  0  0  0  0  0  0  0
    0.1230   -3.6420    1.4210 H   0  0  0  0  0  0  0  0  0  0  0  0
   -2.4310   -2.2510    0.1840 H   0  0  0  0  0  0  0  0  0  0  0  0
   -2.2170   -4.8690    1.9140 H   0  0  0  0  0  0  0  0  0  0  0  0
   -2.9530   -4.4910   -1.1170 H   0  0  0  0  0  0  0  0  0  0  0  0
   -0.4290   -5.7880    0.2220 H   0  0  0  0  0  0  0  0  0  0  0  0
   -1.1730   -5.1740   -2.7700 H   0  0  0  0  0  0  0  0  0  0  0  0
    0.4330   -5.7050   -2.2140 H   0  0  0  0  0  0  0  0  0  0  0  0
   -0.6580   -7.6150   -1.4990 H   0  0  0  0  0  0  0  0  0  0  0  0
   -3.1910   -6.7000   -0.8960 H   0  0  0  0  0  0  0  0  0  0  0  0
   -4.4500   -4.8010    1.3860 H   0  0  0  0  0  0  0  0  0  0  0  0
   -2.7610   -2.0140    2.4350 H   0  0  0  0  0  0  0  0  0  0  0  0
  1 51  1  0
  1  2  1  0
  1 52  1  0
  1 53  1  0
  2  7  2  0
  2  3  1  0
  3  4  2  0
  3 54  1  0
  4  5  1  0
  4 39  1  0
  5 17  1  0
  5  6  2  0
  6 12  1  0
  6  7  1  0
  7  8  1  0
  8 10  1  0
  8  9  2  0
 10 55  1  0
 10 11  2  0
 11 13  1  0
 11 12  1  0
 13 57  1  0
 13 56  1  0
 13 14  1  0
 14 15  2  0
 14 16  1  0
 16 60  1  0
 16 58  1  0
 16 59  1  0
 17 22  1  0
 17 61  1  6
 17 18  1  0
 18 27  1  0
 18 19  1  0
 18 62  1  1
 19 20  1  0
 19 26  1  0
 19 63  1  1
 20 21  1  0
 20 64  1  6
 20 25  1  0
 21 23  1  0
 21 65  1  6
 21 22  1  0
 23 24  1  0
 23 67  1  0
 23 66  1  0
 24 68  1  0
 25 69  1  0
 26 70  1  0
 27 28  1  0
 28 30  1  0
 28 29  2  0
 30 31  2  0
 30 71  1  0
 31 72  1  0
 31 32  1  0
 32 33  2  0
 32 37  1  0
 33 73  1  0
 33 34  1  0
 34 74  1  0
 34 35  2  0
 35 38  1  0
 35 36  1  0
 36 37  2  0
 36 75  1  0
 37 76  1  0
 38 77  1  0
 39 40  1  0
 40 45  1  0
 40 41  1  0
 40 78  1  1
 41 79  1  6
 41 42  1  0
 41 50  1  0
 42 43  1  0
 42 49  1  0
 42 80  1  1
 43 81  1  6
 43 44  1  0
 43 48  1  0
 44 46  1  0
 44 45  1  0
 44 82  1  1
 46 83  1  0
 46 84  1  0
 46 47  1  0
 47 85  1  0
 48 86  1  0
 49 87  1  0
 50 88  1  0
M  END
>  <id>  (932) 
1049

>  <scaffolds>  (932) 
['c1ccccc1', 'C1CCOCC1', 'c1ccc(OC2CCCCO2)cc1', 'O=C(C=Cc1ccccc1)OC1CCCOC1c1cccc2c(=O)ccoc12', 'O=C(C=Cc1ccccc1)OC1CCCOC1c1c(OC2CCCCO2)ccc2c(=O)ccoc12', 'O=c1ccoc2ccccc12', 'O=C(C=Cc1ccccc1)OCCc1ccccc1', 'O=c1ccoc2c(C3CCCCO3)cccc12']

>  <name>  (932) 
Aloeresin C	

>  <formula>  (932) 
C34H38O16

>  <SMILES>  (932) 
CC1=CC(=C(C2=C1C(=O)C=C(O2)CC(=O)C)[C@H]3[C@@H]([C@H]([C@@H]([C@H](O3)CO)O)O)OC(=O)/C=C/C4=CC=C(C=C4)O)O[C@H]5[C@@H]([C@H]([C@@H]([C@H](O5)CO)O)O)O

>  <ChEMBL_id>  (932) 


>  <ZINC_id>  (932) 


>  <PubChem_id>  (932) 
11972360

>  <DrugBank_id>  (932) 


>  <CAS_no>  (932) 
98449-41-3

>  <references>  (932) 
[{'journal': {'name': 'Phytochemistry Letters', 'id': 39}, 'title': 'Preparative isolation of bio-markers from the leaf exudate of Aloe ferox ("aloe bitters") by high performance counter-current chromatography', 'year': 2015, 'start_page': None, 'volume': None, 'issue': None, 'doi': '10.1016/j.phytol.2014.07.001', 'isbn': '', 'despositor': {'code': 'BND', 'first_name': "Bakary N'tji", 'last_name': 'Diallo', 'id': 26}, 'refauthors_set': [{'author': {'first_name': 'Adhami', 'initials': 'AH', 'last_name': 'Hamid', 'id': 1054}, 'first_author': True, 'id': 1635}], 'id': 537}]

>  <classifications>  (932) 
[{'classification': 'Organooxygen compounds (Classyfire)', 'id': 954}]

>  <molecular_mass>  (932) 
702.7

$$$$
SANC01050_minRM1.pdb
     RDKit          3D

 77 80  0  0  1  0  0  0  0  0999 V2000
   -4.6430   -3.1820   -0.0450 C   0  0  0  0  0  0  0  0  0  0  0  0
   -5.8730   -2.6470    0.3030 C   0  0  0  0  0  0  0  0  0  0  0  0
   -6.1330   -1.2960    0.0600 C   0  0  0  0  0  0  0  0  0  0  0  0
   -5.1520   -0.4900   -0.5280 C   0  0  0  0  0  0  0  0  0  0  0  0
   -3.9120   -1.0330   -0.8760 C   0  0  0  0  0  0  0  0  0  0  0  0
   -3.6700   -2.3790   -0.6350 C   0  0  0  0  0  0  0  0  0  0  0  0
   -2.3980   -2.9770   -1.0400 C   0  0  0  0  0  0  0  0  0  0  0  0
   -1.2700   -2.8310   -0.3480 C   0  0  0  0  0  0  0  0  0  0  0  0
   -0.0170   -3.5220   -0.7780 C   0  0  0  0  0  0  0  0  0  0  0  0
    1.1700   -2.8410   -0.3530 C   0  0  0  0  0  0  0  0  0  0  0  0
    2.1870   -2.3380   -0.0280 C   0  0  0  0  0  0  0  0  0  0  0  0
    3.4180   -1.7650    0.3520 C   0  0  0  0  0  0  0  0  0  0  0  0
    4.5990   -2.4220    0.0080 C   0  0  0  0  0  0  0  0  0  0  0  0
    5.8200   -1.8840    0.4140 C   0  0  0  0  0  0  0  0  0  0  0  0
    5.8530   -0.6880    1.1420 C   0  0  0  0  0  0  0  0  0  0  0  0
    4.6670   -0.0220    1.4540 C   0  0  0  0  0  0  0  0  0  0  0  0
    3.4510   -0.5640    1.0620 C   0  0  0  0  0  0  0  0  0  0  0  0
    6.9790   -0.1580    1.6950 O   0  0  0  0  0  0  0  0  0  0  0  0
    8.1280   -0.0090    0.9020 C   0  0  2  0  0  0  0  0  0  0  0  0
    8.7250   -0.9610    0.8410 H   0  0  0  0  0  0  0  0  0  0  0  0
    8.9280    1.1200    1.6240 C   0  0  2  0  0  0  0  0  0  0  0  0
    8.2520    1.9780    1.8870 H   0  0  0  0  0  0  0  0  0  0  0  0
   10.0670    1.6050    0.6960 C   0  0  1  0  0  0  0  0  0  0  0  0
   10.8430    0.8020    0.5620 H   0  0  0  0  0  0  0  0  0  0  0  0
    9.4460    1.9950   -0.6690 C   0  0  2  0  0  0  0  0  0  0  0  0
    8.7290    2.8530   -0.5410 H   0  0  0  0  0  0  0  0  0  0  0  0
    8.7120    0.7520   -1.2300 C   0  0  1  0  0  0  0  0  0  0  0  0
    9.4280   -0.1040   -1.3630 H   0  0  0  0  0  0  0  0  0  0  0  0
    7.6650    0.4310   -0.3470 O   0  0  0  0  0  0  0  0  0  0  0  0
    8.0230    1.0660   -2.5790 C   0  0  0  0  0  0  0  0  0  0  0  0
    8.9630    1.1210   -3.5990 O   0  0  0  0  0  0  0  0  0  0  0  0
   10.4500    2.2880   -1.5900 O   0  0  0  0  0  0  0  0  0  0  0  0
   10.6310    2.7810    1.1920 O   0  0  0  0  0  0  0  0  0  0  0  0
    9.5740    0.5980    2.7420 O   0  0  0  0  0  0  0  0  0  0  0  0
    7.0080   -2.4850    0.1610 O   0  0  0  0  0  0  0  0  0  0  0  0
   -5.4760    0.8000   -0.7940 O   0  0  0  0  0  0  0  0  0  0  0  0
   -7.3430   -0.8570    0.5270 O   0  0  0  0  0  0  0  0  0  0  0  0
   -8.0470    0.0280   -0.3070 C   0  0  1  0  0  0  0  0  0  0  0  0
   -7.7900   -0.0660   -1.4010 H   0  0  0  0  0  0  0  0  0  0  0  0
   -9.5630   -0.2450   -0.0420 C   0  0  1  0  0  0  0  0  0  0  0  0
   -9.7040   -1.1090    0.6650 H   0  0  0  0  0  0  0  0  0  0  0  0
  -10.2810    1.0040    0.5280 C   0  0  2  0  0  0  0  0  0  0  0  0
  -11.3920    0.8790    0.4160 H   0  0  0  0  0  0  0  0  0  0  0  0
   -9.8200    2.3160   -0.1660 C   0  0  1  0  0  0  0  0  0  0  0  0
  -10.1320    3.1870    0.4750 H   0  0  0  0  0  0  0  0  0  0  0  0
   -8.2890    2.3530   -0.4150 C   0  0  2  0  0  0  0  0  0  0  0  0
   -8.0570    2.3540   -1.5170 H   0  0  0  0  0  0  0  0  0  0  0  0
   -7.6700    1.2730    0.2270 O   0  0  0  0  0  0  0  0  0  0  0  0
   -7.6330    3.6040    0.2220 C   0  0  0  0  0  0  0  0  0  0  0  0
   -7.8850    3.6740    1.5870 O   0  0  0  0  0  0  0  0  0  0  0  0
  -10.3980    2.3760   -1.4380 O   0  0  0  0  0  0  0  0  0  0  0  0
  -10.1220    1.0890    1.9030 O   0  0  0  0  0  0  0  0  0  0  0  0
  -10.1800   -0.7020   -1.1990 O   0  0  0  0  0  0  0  0  0  0  0  0
   -4.4330   -4.2370    0.1510 H   0  0  0  0  0  0  0  0  0  0  0  0
   -6.6400   -3.2750    0.7670 H   0  0  0  0  0  0  0  0  0  0  0  0
   -3.1320   -0.4100   -1.3250 H   0  0  0  0  0  0  0  0  0  0  0  0
   -2.4530   -3.5630   -1.9640 H   0  0  0  0  0  0  0  0  0  0  0  0
   -1.2210   -2.2450    0.5730 H   0  0  0  0  0  0  0  0  0  0  0  0
    0.0230   -3.6610   -1.8810 H   0  0  0  0  0  0  0  0  0  0  0  0
   -0.0090   -4.5550   -0.3560 H   0  0  0  0  0  0  0  0  0  0  0  0
    4.5550   -3.3470   -0.5730 H   0  0  0  0  0  0  0  0  0  0  0  0
    4.7000    0.9190    2.0120 H   0  0  0  0  0  0  0  0  0  0  0  0
    2.5180   -0.0440    1.3050 H   0  0  0  0  0  0  0  0  0  0  0  0
    7.4010    1.9870   -2.5090 H   0  0  0  0  0  0  0  0  0  0  0  0
    7.3380    0.2440   -2.8800 H   0  0  0  0  0  0  0  0  0  0  0  0
    9.5780    1.8430   -3.4190 H   0  0  0  0  0  0  0  0  0  0  0  0
   10.9080    3.0790   -1.2850 H   0  0  0  0  0  0  0  0  0  0  0  0
   11.0560    2.5730    2.0260 H   0  0  0  0  0  0  0  0  0  0  0  0
    8.8960    0.3170    3.3690 H   0  0  0  0  0  0  0  0  0  0  0  0
    6.8770   -3.1440   -0.5300 H   0  0  0  0  0  0  0  0  0  0  0  0
   -4.6560    1.3050   -0.8730 H   0  0  0  0  0  0  0  0  0  0  0  0
   -6.5450    3.6270   -0.0210 H   0  0  0  0  0  0  0  0  0  0  0  0
   -8.0760    4.5310   -0.2010 H   0  0  0  0  0  0  0  0  0  0  0  0
   -7.3860    2.9750    2.0240 H   0  0  0  0  0  0  0  0  0  0  0  0
  -11.3000    2.6900   -1.3360 H   0  0  0  0  0  0  0  0  0  0  0  0
   -9.1840    1.1680    2.1100 H   0  0  0  0  0  0  0  0  0  0  0  0
  -10.1930    0.0080   -1.8500 H   0  0  0  0  0  0  0  0  0  0  0  0
  1  6  2  0
  1 54  1  0
  1  2  1  0
  2  3  2  0
  2 55  1  0
  3  4  1  0
  3 37  1  0
  4  5  2  0
  4 36  1  0
  5 56  1  0
  5  6  1  0
  6  7  1  0
  7 57  1  0
  7  8  2  0
  8  9  1  0
  8 58  1  0
  9 59  1  0
  9 60  1  0
  9 10  1  0
 10 11  3  0
 11 12  1  0
 12 13  2  0
 12 17  1  0
 13 61  1  0
 13 14  1  0
 14 35  1  0
 14 15  2  0
 15 16  1  0
 15 18  1  0
 16 17  2  0
 16 62  1  0
 17 63  1  0
 18 19  1  0
 19 29  1  0
 19 20  1  6
 19 21  1  0
 21 23  1  0
 21 22  1  1
 21 34  1  0
 23 25  1  0
 23 24  1  6
 23 33  1  0
 25 32  1  0
 25 27  1  0
 25 26  1  1
 27 30  1  0
 27 28  1  6
 27 29  1  0
 30 31  1  0
 30 65  1  0
 30 64  1  0
 31 66  1  0
 32 67  1  0
 33 68  1  0
 34 69  1  0
 35 70  1  0
 36 71  1  0
 37 38  1  0
 38 39  1  6
 38 40  1  0
 38 48  1  0
 40 53  1  0
 40 42  1  0
 40 41  1  1
 42 44  1  0
 42 43  1  1
 42 52  1  0
 44 51  1  0
 44 46  1  0
 44 45  1  1
 46 47  1  6
 46 49  1  0
 46 48  1  0
 49 73  1  0
 49 72  1  0
 49 50  1  0
 50 74  1  0
 51 75  1  0
 52 76  1  0
 53 77  1  0
M  END
>  <id>  (933) 
1050

>  <scaffolds>  (933) 
['c1ccccc1', 'C1CCOCC1', 'c1ccc(OC2CCCCO2)cc1', 'C(#Cc1ccc(OC2CCCCO2)cc1)CC=Cc1ccc(OC2CCCCO2)cc1']

>  <name>  (933) 
Hypoxoside

>  <formula>  (933) 
C29H34O14

>  <SMILES>  (933) 
C1=CC(=C(C=C1/C=C/CC#CC2=CC(=C(C=C2)O[C@@H]3[C@H]([C@@H]([C@H]([C@@H](O3)CO)O)O)O)O)O)O[C@H]4[C@@H]([C@H]([C@@H]([C@H](O4)CO)O)O)O

>  <ChEMBL_id>  (933) 


>  <ZINC_id>  (933) 


>  <PubChem_id>  (933) 
6438448

>  <DrugBank_id>  (933) 


>  <CAS_no>  (933) 
83643-94-1

>  <references>  (933) 
[{'journal': {'name': 'Phytochemistry Letters', 'id': 39}, 'title': 'New phytochemicals from the corms of medicinally important South African Hypoxis species', 'year': 2015, 'start_page': None, 'volume': None, 'issue': None, 'doi': '10.1016/j.phytol.2014.09.014', 'isbn': '', 'despositor': {'code': 'BND', 'first_name': "Bakary N'tji", 'last_name': 'Diallo', 'id': 26}, 'refauthors_set': [{'author': {'first_name': 'Bassey', 'initials': 'BK', 'last_name': 'Kokoette', 'id': 1055}, 'first_author': True, 'id': 1636}], 'id': 538}]

>  <classifications>  (933) 
[{'classification': 'Glucosides', 'id': 884}, {'classification': 'Organooxygen compounds (Classyfire)', 'id': 954}]

>  <molecular_mass>  (933) 
606.6

$$$$
SANC01051_minRM1.pdb
     RDKit          3D

 34 34  0  0  0  0  0  0  0  0999 V2000
   -3.2770   -1.4570    1.2350 C   0  0  0  0  0  0  0  0  0  0  0  0
   -2.7190   -0.7160    0.0610 C   0  0  0  0  0  0  0  0  0  0  0  0
   -3.3990   -0.3060   -0.8570 O   0  0  0  0  0  0  0  0  0  0  0  0
   -1.2530   -0.4890    0.0840 C   0  0  0  0  0  0  0  0  0  0  0  0
   -0.3640   -1.5430   -0.1340 C   0  0  0  0  0  0  0  0  0  0  0  0
    1.0180   -1.3070   -0.1420 C   0  0  0  0  0  0  0  0  0  0  0  0
    1.5070   -0.0240    0.0900 C   0  0  0  0  0  0  0  0  0  0  0  0
    0.6270    1.0390    0.3070 C   0  0  0  0  0  0  0  0  0  0  0  0
   -0.7530    0.7960    0.3060 C   0  0  0  0  0  0  0  0  0  0  0  0
   -1.6800    1.7340    0.6460 O   0  0  0  0  0  0  0  0  0  0  0  0
   -1.6340    2.9350   -0.0930 C   0  0  0  0  0  0  0  0  0  0  0  0
    1.0930    2.2770    0.6470 O   0  0  0  0  0  0  0  0  0  0  0  0
    1.7120    2.9590   -0.4230 C   0  0  0  0  0  0  0  0  0  0  0  0
    2.8530    0.2070    0.0370 O   0  0  0  0  0  0  0  0  0  0  0  0
    3.4950   -0.1120    1.2550 C   0  0  0  0  0  0  0  0  0  0  0  0
    1.8710   -2.3700   -0.2750 O   0  0  0  0  0  0  0  0  0  0  0  0
    2.4460   -2.4390   -1.5630 C   0  0  0  0  0  0  0  0  0  0  0  0
   -0.9150   -2.7580   -0.3370 O   0  0  0  0  0  0  0  0  0  0  0  0
   -4.3750   -1.5190    1.2120 H   0  0  0  0  0  0  0  0  0  0  0  0
   -2.9980   -0.9680    2.1790 H   0  0  0  0  0  0  0  0  0  0  0  0
   -2.8950   -2.4870    1.2750 H   0  0  0  0  0  0  0  0  0  0  0  0
   -2.6560    3.3360   -0.0030 H   0  0  0  0  0  0  0  0  0  0  0  0
   -1.4000    2.8000   -1.1610 H   0  0  0  0  0  0  0  0  0  0  0  0
   -0.9320    3.6620    0.3460 H   0  0  0  0  0  0  0  0  0  0  0  0
    1.8890    3.9680   -0.0210 H   0  0  0  0  0  0  0  0  0  0  0  0
    2.6780    2.5250   -0.7230 H   0  0  0  0  0  0  0  0  0  0  0  0
    1.0760    3.0360   -1.3200 H   0  0  0  0  0  0  0  0  0  0  0  0
    3.4020   -1.1760    1.5260 H   0  0  0  0  0  0  0  0  0  0  0  0
    4.5530    0.1230    1.0650 H   0  0  0  0  0  0  0  0  0  0  0  0
    3.1340    0.5020    2.0970 H   0  0  0  0  0  0  0  0  0  0  0  0
    3.0500   -1.5550   -1.8220 H   0  0  0  0  0  0  0  0  0  0  0  0
    3.1030   -3.3200   -1.5130 H   0  0  0  0  0  0  0  0  0  0  0  0
    1.6940   -2.5920   -2.3550 H   0  0  0  0  0  0  0  0  0  0  0  0
   -0.2180   -3.4160   -0.4500 H   0  0  0  0  0  0  0  0  0  0  0  0
  1  2  1  0
  1 19  1  0
  1 21  1  0
  1 20  1  0
  2  3  2  0
  2  4  1  0
  4  5  2  0
  4  9  1  0
  5 18  1  0
  5  6  1  0
  6 16  1  0
  6  7  2  0
  7 14  1  0
  7  8  1  0
  8  9  2  0
  8 12  1  0
  9 10  1  0
 10 11  1  0
 11 23  1  0
 11 22  1  0
 11 24  1  0
 12 13  1  0
 13 27  1  0
 13 26  1  0
 13 25  1  0
 14 15  1  0
 15 29  1  0
 15 28  1  0
 15 30  1  0
 16 17  1  0
 17 33  1  0
 17 31  1  0
 17 32  1  0
 18 34  1  0
M  END
>  <id>  (934) 
1051

>  <scaffolds>  (934) 
['c1ccccc1']

>  <name>  (934) 
2-hydroxy-4,5,6-trimethoxy-acetophenone

>  <formula>  (934) 
C12H16O6

>  <SMILES>  (934) 
CC(=O)C1=C(C(=C(C(=C1OC)OC)OC)OC)O

>  <ChEMBL_id>  (934) 
SCHEMBL678486

>  <ZINC_id>  (934) 


>  <PubChem_id>  (934) 
6431120

>  <DrugBank_id>  (934) 


>  <CAS_no>  (934) 
3162-28-5

>  <references>  (934) 
[{'journal': {'name': 'Phytochemistry Letters', 'id': 39}, 'title': 'Bioactive acetophenones from Plectranthus venteri', 'year': 2014, 'start_page': None, 'volume': None, 'issue': None, 'doi': '10.1016/j.phytol.2014.10.021', 'isbn': '', 'despositor': {'code': 'BND', 'first_name': "Bakary N'tji", 'last_name': 'Diallo', 'id': 26}, 'refauthors_set': [{'author': {'first_name': 'Maree', 'initials': 'MJ', 'last_name': 'Johanna', 'id': 1056}, 'first_author': True, 'id': 1637}], 'id': 539}]

>  <classifications>  (934) 
[{'classification': 'Organooxygen compounds (Classyfire)', 'id': 954}]

>  <molecular_mass>  (934) 
256.25

$$$$
SANC01052_minRM1.pdb
     RDKit          3D

 30 30  0  0  0  0  0  0  0  0999 V2000
   -3.5350   -0.6490    0.8430 C   0  0  0  0  0  0  0  0  0  0  0  0
   -2.6220    0.0310   -0.1300 C   0  0  0  0  0  0  0  0  0  0  0  0
   -3.0230    0.8000   -0.9810 O   0  0  0  0  0  0  0  0  0  0  0  0
   -1.1820   -0.2820    0.0010 C   0  0  0  0  0  0  0  0  0  0  0  0
   -0.2690    0.7420    0.2940 C   0  0  0  0  0  0  0  0  0  0  0  0
    1.0990    0.4680    0.3730 C   0  0  0  0  0  0  0  0  0  0  0  0
    1.5500   -0.8520    0.1800 C   0  0  0  0  0  0  0  0  0  0  0  0
    0.6630   -1.8830   -0.1070 C   0  0  0  0  0  0  0  0  0  0  0  0
   -0.7000   -1.5740   -0.1870 C   0  0  0  0  0  0  0  0  0  0  0  0
   -1.6320   -2.5150   -0.4650 O   0  0  0  0  0  0  0  0  0  0  0  0
    2.8950   -0.9940    0.2950 O   0  0  0  0  0  0  0  0  0  0  0  0
    3.4260   -2.2940    0.2150 C   0  0  0  0  0  0  0  0  0  0  0  0
    1.9690    1.4450    0.7670 O   0  0  0  0  0  0  0  0  0  0  0  0
    2.8690    1.8410   -0.2470 C   0  0  0  0  0  0  0  0  0  0  0  0
   -0.8510    1.9300    0.5870 O   0  0  0  0  0  0  0  0  0  0  0  0
   -0.1690    3.1090    0.2270 C   0  0  0  0  0  0  0  0  0  0  0  0
   -3.8490   -1.6310    0.4590 H   0  0  0  0  0  0  0  0  0  0  0  0
   -4.4510   -0.0700    1.0270 H   0  0  0  0  0  0  0  0  0  0  0  0
   -3.0540   -0.8190    1.8160 H   0  0  0  0  0  0  0  0  0  0  0  0
    0.9980   -2.9090   -0.2660 H   0  0  0  0  0  0  0  0  0  0  0  0
   -1.1940   -3.3580   -0.6310 H   0  0  0  0  0  0  0  0  0  0  0  0
    3.0370   -2.9750    0.9890 H   0  0  0  0  0  0  0  0  0  0  0  0
    3.2940   -2.7550   -0.7780 H   0  0  0  0  0  0  0  0  0  0  0  0
    4.5020   -2.1370    0.3910 H   0  0  0  0  0  0  0  0  0  0  0  0
    2.4610    1.8080   -1.2700 H   0  0  0  0  0  0  0  0  0  0  0  0
    3.1250    2.8820    0.0020 H   0  0  0  0  0  0  0  0  0  0  0  0
    3.7930    1.2410   -0.2240 H   0  0  0  0  0  0  0  0  0  0  0  0
    0.5370    3.4270    1.0110 H   0  0  0  0  0  0  0  0  0  0  0  0
   -0.9740    3.8570    0.1500 H   0  0  0  0  0  0  0  0  0  0  0  0
    0.3560    3.0530   -0.7390 H   0  0  0  0  0  0  0  0  0  0  0  0
  1  2  1  0
  1 17  1  0
  1 18  1  0
  1 19  1  0
  2  3  2  0
  2  4  1  0
  4  9  2  0
  4  5  1  0
  5  6  2  0
  5 15  1  0
  6  7  1  0
  6 13  1  0
  7  8  2  0
  7 11  1  0
  8 20  1  0
  8  9  1  0
  9 10  1  0
 10 21  1  0
 11 12  1  0
 12 23  1  0
 12 24  1  0
 12 22  1  0
 13 14  1  0
 14 25  1  0
 14 27  1  0
 14 26  1  0
 15 16  1  0
 16 30  1  0
 16 29  1  0
 16 28  1  0
M  END
>  <id>  (935) 
1052

>  <scaffolds>  (935) 
['c1ccccc1']

>  <name>  (935) 
2-hydroxy-3,4,5,6-tetramethoxy-acetophenone

>  <formula>  (935) 
C11H14O5

>  <SMILES>  (935) 
CC(=O)C1=C(C(=C(C=C1O)OC)OC)OC

>  <ChEMBL_id>  (935) 
SCHEMBL735664

>  <ZINC_id>  (935) 
ZINC2566128

>  <PubChem_id>  (935) 
9899375

>  <DrugBank_id>  (935) 


>  <CAS_no>  (935) 
22248-14-2

>  <references>  (935) 
[{'journal': {'name': 'Phytochemistry Letters', 'id': 39}, 'title': 'Bioactive acetophenones from Plectranthus venteri', 'year': 2014, 'start_page': None, 'volume': None, 'issue': None, 'doi': '10.1016/j.phytol.2014.10.021', 'isbn': '', 'despositor': {'code': 'BND', 'first_name': "Bakary N'tji", 'last_name': 'Diallo', 'id': 26}, 'refauthors_set': [{'author': {'first_name': 'Maree', 'initials': 'MJ', 'last_name': 'Johanna', 'id': 1056}, 'first_author': True, 'id': 1637}], 'id': 539}]

>  <classifications>  (935) 
[{'classification': 'Organooxygen compounds (Classyfire)', 'id': 954}]

>  <molecular_mass>  (935) 
226.23

$$$$
SANC01053_minRM1.pdb
     RDKit          3D

 44 43  0  0  0  0  0  0  0  0999 V2000
    6.4840    2.2040   -0.2460 C   0  0  0  0  0  0  0  0  0  0  0  0
    5.3890    1.5630   -1.0810 C   0  0  0  0  0  0  0  0  0  0  0  0
    4.1800    1.1660   -0.2390 C   0  0  0  0  0  0  0  0  0  0  0  0
    4.5260    0.1020    0.7980 C   0  0  0  0  0  0  0  0  0  0  0  0
    3.2650   -0.4500    1.4610 C   0  0  0  0  0  0  0  0  0  0  0  0
    2.4260   -1.2540    0.4700 C   0  0  0  0  0  0  0  0  0  0  0  0
    1.1190   -1.7090    1.1120 C   0  0  0  0  0  0  0  0  0  0  0  0
    0.3700   -2.7170    0.2460 C   0  0  0  0  0  0  0  0  0  0  0  0
    0.0090   -2.2020   -1.1420 C   0  0  0  0  0  0  0  0  0  0  0  0
   -0.8030   -0.9110   -1.1410 C   0  0  0  0  0  0  0  0  0  0  0  0
   -2.1260   -1.0640   -0.3960 C   0  0  0  0  0  0  0  0  0  0  0  0
   -3.0070    0.1650   -0.6190 C   0  0  0  0  0  0  0  0  0  0  0  0
   -4.3130    0.0260    0.1590 C   0  0  0  0  0  0  0  0  0  0  0  0
   -5.1810    1.2300   -0.0550 C   0  0  0  0  0  0  0  0  0  0  0  0
   -4.9460    2.2380   -0.7010 O   0  0  0  0  0  0  0  0  0  0  0  0
   -6.3680    1.1220    0.5810 O   0  0  0  0  0  0  0  0  0  0  0  0
    6.1040    3.0140    0.3930 H   0  0  0  0  0  0  0  0  0  0  0  0
    6.9880    1.4850    0.4160 H   0  0  0  0  0  0  0  0  0  0  0  0
    7.2710    2.6440   -0.8760 H   0  0  0  0  0  0  0  0  0  0  0  0
    5.7880    0.6830   -1.6290 H   0  0  0  0  0  0  0  0  0  0  0  0
    5.0670    2.2640   -1.8820 H   0  0  0  0  0  0  0  0  0  0  0  0
    3.3680    0.7950   -0.9070 H   0  0  0  0  0  0  0  0  0  0  0  0
    3.7430    2.0580    0.2570 H   0  0  0  0  0  0  0  0  0  0  0  0
    5.1980    0.5230    1.5750 H   0  0  0  0  0  0  0  0  0  0  0  0
    5.1120   -0.7210    0.3370 H   0  0  0  0  0  0  0  0  0  0  0  0
    3.5430   -1.0830    2.3310 H   0  0  0  0  0  0  0  0  0  0  0  0
    2.6670    0.3770    1.8980 H   0  0  0  0  0  0  0  0  0  0  0  0
    2.2280   -0.6400   -0.4360 H   0  0  0  0  0  0  0  0  0  0  0  0
    3.0020   -2.1270    0.0990 H   0  0  0  0  0  0  0  0  0  0  0  0
    1.3220   -2.1680    2.1050 H   0  0  0  0  0  0  0  0  0  0  0  0
    0.4770   -0.8350    1.3500 H   0  0  0  0  0  0  0  0  0  0  0  0
   -0.5440   -3.0600    0.7790 H   0  0  0  0  0  0  0  0  0  0  0  0
    0.9780   -3.6430    0.1430 H   0  0  0  0  0  0  0  0  0  0  0  0
    0.9290   -2.0610   -1.7490 H   0  0  0  0  0  0  0  0  0  0  0  0
   -0.5490   -2.9940   -1.6900 H   0  0  0  0  0  0  0  0  0  0  0  0
   -0.9910   -0.6030   -2.1930 H   0  0  0  0  0  0  0  0  0  0  0  0
   -0.2140   -0.0700   -0.7180 H   0  0  0  0  0  0  0  0  0  0  0  0
   -2.6540   -1.9830   -0.7260 H   0  0  0  0  0  0  0  0  0  0  0  0
   -1.9490   -1.2110    0.6900 H   0  0  0  0  0  0  0  0  0  0  0  0
   -3.2200    0.3080   -1.6990 H   0  0  0  0  0  0  0  0  0  0  0  0
   -2.4740    1.0900   -0.3140 H   0  0  0  0  0  0  0  0  0  0  0  0
   -4.8680   -0.8890   -0.1430 H   0  0  0  0  0  0  0  0  0  0  0  0
   -4.1260   -0.0990    1.2480 H   0  0  0  0  0  0  0  0  0  0  0  0
   -6.9190    1.9050    0.4390 H   0  0  0  0  0  0  0  0  0  0  0  0
  1  2  1  0
  1 19  1  0
  1 17  1  0
  1 18  1  0
  2 21  1  0
  2 20  1  0
  2  3  1  0
  3 22  1  0
  3 23  1  0
  3  4  1  0
  4 25  1  0
  4  5  1  0
  4 24  1  0
  5  6  1  0
  5 27  1  0
  5 26  1  0
  6 28  1  0
  6 29  1  0
  6  7  1  0
  7  8  1  0
  7 31  1  0
  7 30  1  0
  8  9  1  0
  8 33  1  0
  8 32  1  0
  9 34  1  0
  9 35  1  0
  9 10  1  0
 10 36  1  0
 10 37  1  0
 10 11  1  0
 11 38  1  0
 11 12  1  0
 11 39  1  0
 12 40  1  0
 12 41  1  0
 12 13  1  0
 13 42  1  0
 13 14  1  0
 13 43  1  0
 14 15  2  0
 14 16  1  0
 16 44  1  0
M  END
>  <id>  (936) 
1053

>  <scaffolds>  (936) 
[]

>  <name>  (936) 
n-Tetradecanoic acid

>  <formula>  (936) 
C14H28O2

>  <SMILES>  (936) 
CCCCCCCCCCCCCC(=O)O

>  <ChEMBL_id>  (936) 
SCHEMBL6374

>  <ZINC_id>  (936) 
ZINC1530417

>  <PubChem_id>  (936) 
11005

>  <DrugBank_id>  (936) 


>  <CAS_no>  (936) 
544-63-8

>  <references>  (936) 
[{'journal': {'name': 'Phytochemistry Letters', 'id': 39}, 'title': 'Volatile constituents and antimicrobial activities of nine South African liverwort species', 'year': 2016, 'start_page': None, 'volume': None, 'issue': None, 'doi': '10.1016/j.phytol.2016.03.003', 'isbn': '', 'despositor': {'code': 'BND', 'first_name': "Bakary N'tji", 'last_name': 'Diallo', 'id': 26}, 'refauthors_set': [], 'id': 486}]

>  <classifications>  (936) 
[{'classification': ' Fatty Acyls', 'id': 924}, {'classification': 'Fatty Acyls (Classyfire)', 'id': 957}]

>  <molecular_mass>  (936) 
228.37

$$$$
SANC01054_minRM1.pdb
     RDKit          3D

 78 85  0  0  1  0  0  0  0  0999 V2000
    7.3040   -3.1390    1.0220 C   0  0  0  0  0  0  0  0  0  0  0  0
    6.3290   -2.4790    1.7990 O   0  0  0  0  0  0  0  0  0  0  0  0
    5.4490   -1.7080    1.0940 C   0  0  0  0  0  0  0  0  0  0  0  0
    4.6780   -2.1870    0.0230 C   0  0  0  0  0  0  0  0  0  0  0  0
    3.7500   -1.3560   -0.5950 C   0  0  0  0  0  0  0  0  0  0  0  0
    3.5540   -0.0550   -0.1240 C   0  0  0  0  0  0  0  0  0  0  0  0
    4.2890    0.3950    0.9660 C   0  0  0  0  0  0  0  0  0  0  0  0
    5.2520   -0.4130    1.5620 C   0  0  0  0  0  0  0  0  0  0  0  0
    2.5150    0.8010   -0.8070 C   0  0  2  0  0  0  0  0  0  0  0  0
    2.8380    0.9220   -2.3090 C   0  0  0  0  0  0  0  0  0  0  0  0
    3.7350    2.1720   -2.4220 C   0  0  0  0  0  0  0  0  0  0  0  0
    3.6930    2.8900   -1.1230 N   0  0  0  0  0  0  0  0  0  0  0  0
    2.5770    2.2840   -0.3470 C   0  0  1  0  0  0  0  0  0  0  0  0
    1.3020    3.0530   -0.7130 C   0  0  0  0  0  0  0  0  0  0  0  0
    0.0620    2.3700   -0.1230 C   0  0  1  0  0  0  0  0  0  0  0  0
    0.1150    0.8650   -0.1940 C   0  0  0  0  0  0  0  0  0  0  0  0
    1.1890    0.1700   -0.5450 C   0  0  0  0  0  0  0  0  0  0  0  0
   -1.1560    0.2640    0.3240 C   0  0  1  0  0  0  0  0  0  0  0  0
   -1.1700    0.6330    1.8110 C   0  0  0  0  0  0  0  0  0  0  0  0
   -1.0860    2.1660    1.9240 C   0  0  1  0  0  0  0  0  0  0  0  0
    0.0220    2.7180    1.2410 O   0  0  0  0  0  0  0  0  0  0  0  0
   -2.3640    2.7810    1.3450 C   0  0  0  0  0  0  0  0  0  0  0  0
   -2.4000    2.3980   -0.1250 C   0  0  2  0  0  0  0  0  0  0  0  0
   -2.3600    0.8740   -0.4240 C   0  0  1  0  0  0  0  0  0  0  0  0
   -2.0570    0.8950   -1.9430 C   0  0  0  0  0  0  0  0  0  0  0  0
   -1.3040    2.2260   -2.1720 C   0  0  0  0  0  0  0  0  0  0  0  0
   -1.1710    2.9000   -0.8350 N   0  0  0  0  0  0  0  0  0  0  0  0
   -3.6110    0.1060   -0.1540 C   0  0  0  0  0  0  0  0  0  0  0  0
   -3.6950   -1.1930   -0.6630 C   0  0  0  0  0  0  0  0  0  0  0  0
   -4.8700   -1.9220   -0.5190 C   0  0  0  0  0  0  0  0  0  0  0  0
   -5.9790   -1.3470    0.1260 C   0  0  0  0  0  0  0  0  0  0  0  0
   -5.8740   -0.0690    0.6670 C   0  0  0  0  0  0  0  0  0  0  0  0
   -4.6900    0.6480    0.5320 C   0  0  0  0  0  0  0  0  0  0  0  0
   -7.2240   -1.9050    0.1620 O   0  0  0  0  0  0  0  0  0  0  0  0
   -7.2920   -3.2400    0.6080 C   0  0  0  0  0  0  0  0  0  0  0  0
   -5.0640   -3.1840   -1.0010 O   0  0  0  0  0  0  0  0  0  0  0  0
   -3.9180   -3.9110   -1.3670 C   0  0  0  0  0  0  0  0  0  0  0  0
   -0.8750    2.4790    3.2550 O   0  0  0  0  0  0  0  0  0  0  0  0
    4.9500   -3.4650   -0.3730 O   0  0  0  0  0  0  0  0  0  0  0  0
    3.9190   -4.1450   -1.0450 C   0  0  0  0  0  0  0  0  0  0  0  0
    8.2230   -3.1100    1.6280 H   0  0  0  0  0  0  0  0  0  0  0  0
    7.5130   -2.6850    0.0400 H   0  0  0  0  0  0  0  0  0  0  0  0
    7.0180   -4.1930    0.8680 H   0  0  0  0  0  0  0  0  0  0  0  0
    3.1690   -1.7200   -1.4460 H   0  0  0  0  0  0  0  0  0  0  0  0
    4.1120    1.3900    1.3930 H   0  0  0  0  0  0  0  0  0  0  0  0
    5.8390   -0.0420    2.4070 H   0  0  0  0  0  0  0  0  0  0  0  0
    3.3290    0.0290   -2.7380 H   0  0  0  0  0  0  0  0  0  0  0  0
    1.9110    1.0300   -2.9060 H   0  0  0  0  0  0  0  0  0  0  0  0
    3.3730    2.8660   -3.2130 H   0  0  0  0  0  0  0  0  0  0  0  0
    4.7700    1.9080   -2.7350 H   0  0  0  0  0  0  0  0  0  0  0  0
    4.5830    2.7820   -0.6190 H   0  0  0  0  0  0  0  0  0  0  0  0
    2.7400    2.3690    0.7610 H   0  0  0  0  0  0  0  0  0  0  0  0
    1.2010    3.1620   -1.8150 H   0  0  0  0  0  0  0  0  0  0  0  0
    1.3760    4.1030   -0.3530 H   0  0  0  0  0  0  0  0  0  0  0  0
    1.1430   -0.9230   -0.6080 H   0  0  0  0  0  0  0  0  0  0  0  0
   -1.1590   -0.8480    0.2140 H   0  0  0  0  0  0  0  0  0  0  0  0
   -2.0810    0.2560    2.3160 H   0  0  0  0  0  0  0  0  0  0  0  0
   -0.3250    0.1500    2.3440 H   0  0  0  0  0  0  0  0  0  0  0  0
   -3.2710    2.4210    1.8750 H   0  0  0  0  0  0  0  0  0  0  0  0
   -2.3780    3.8840    1.4670 H   0  0  0  0  0  0  0  0  0  0  0  0
   -3.2970    2.8700   -0.6080 H   0  0  0  0  0  0  0  0  0  0  0  0
   -1.4630    0.0210   -2.2710 H   0  0  0  0  0  0  0  0  0  0  0  0
   -2.9870    0.8460   -2.5430 H   0  0  0  0  0  0  0  0  0  0  0  0
   -1.8710    2.9170   -2.8330 H   0  0  0  0  0  0  0  0  0  0  0  0
   -0.3310    2.0780   -2.6870 H   0  0  0  0  0  0  0  0  0  0  0  0
   -2.8390   -1.6170   -1.1930 H   0  0  0  0  0  0  0  0  0  0  0  0
   -6.7330    0.3760    1.1820 H   0  0  0  0  0  0  0  0  0  0  0  0
   -4.6330    1.6430    0.9880 H   0  0  0  0  0  0  0  0  0  0  0  0
   -6.4980   -3.5390    1.3090 H   0  0  0  0  0  0  0  0  0  0  0  0
   -7.2960   -3.9380   -0.2450 H   0  0  0  0  0  0  0  0  0  0  0  0
   -8.2650   -3.3120    1.1190 H   0  0  0  0  0  0  0  0  0  0  0  0
   -4.3020   -4.9290   -1.5370 H   0  0  0  0  0  0  0  0  0  0  0  0
   -3.1420   -3.9530   -0.5840 H   0  0  0  0  0  0  0  0  0  0  0  0
   -3.4660   -3.5480   -2.3050 H   0  0  0  0  0  0  0  0  0  0  0  0
   -0.6710    3.4190    3.3320 H   0  0  0  0  0  0  0  0  0  0  0  0
    4.2380   -5.1990   -1.0140 H   0  0  0  0  0  0  0  0  0  0  0  0
    3.8300   -3.8380   -2.1000 H   0  0  0  0  0  0  0  0  0  0  0  0
    2.9320   -4.0600   -0.5610 H   0  0  0  0  0  0  0  0  0  0  0  0
  1 42  1  0
  1 43  1  0
  1 41  1  0
  1  2  1  0
  2  3  1  0
  3  4  2  0
  3  8  1  0
  4  5  1  0
  4 39  1  0
  5 44  1  0
  5  6  2  0
  6  7  1  0
  7 45  1  0
  7  8  2  0
  8 46  1  0
  9  6  1  1
  9 10  1  0
  9 17  1  0
  9 13  1  0
 10 48  1  0
 10 47  1  0
 10 11  1  0
 11 49  1  0
 11 50  1  0
 11 12  1  0
 12 51  1  0
 12 13  1  0
 13 14  1  0
 13 52  1  1
 14 53  1  0
 14 54  1  0
 14 15  1  0
 15 27  1  0
 15 16  1  0
 15 21  1  1
 16 17  2  0
 16 18  1  0
 17 55  1  0
 18 24  1  0
 18 56  1  1
 18 19  1  0
 19 20  1  0
 19 57  1  0
 19 58  1  0
 20 21  1  0
 20 22  1  0
 20 38  1  1
 22 23  1  0
 22 60  1  0
 22 59  1  0
 23 27  1  0
 23 61  1  6
 23 24  1  0
 24 25  1  0
 24 28  1  6
 25 63  1  0
 25 62  1  0
 25 26  1  0
 26 64  1  0
 26 65  1  0
 27 26  1  0
 28 29  2  0
 28 33  1  0
 29 66  1  0
 29 30  1  0
 30 36  1  0
 30 31  2  0
 31 34  1  0
 31 32  1  0
 32 33  2  0
 32 67  1  0
 33 68  1  0
 34 35  1  0
 35 70  1  0
 35 71  1  0
 35 69  1  0
 36 37  1  0
 37 74  1  0
 37 72  1  0
 37 73  1  0
 38 75  1  0
 39 40  1  0
 40 77  1  0
 40 76  1  0
 40 78  1  0
M  END
>  <id>  (937) 
1054

>  <scaffolds>  (937) 
['c1ccccc1', 'C1=CCCCC1', 'C1CCNCC1', 'C1CCOCC1', 'C1CCCCC1', 'C1=C2C3CC4CC5N(CCC35c3ccccc3)C2(CC2NCCC12c1ccccc1)O4', 'c1ccc(C23CCCCC2NCC3)cc1', 'C1CCNC1']

>  <name>  (937) 
Channaine

>  <formula>  (937) 
C32H38N2O6

>  <SMILES>  (937) 
COC1=C(C=C(C=C1)C23CCNC2CC45C(=C3)C6CC(O4)(CC7C6(CCN57)C8=CC(=C(C=C8)OC)OC)O)OC

>  <ChEMBL_id>  (937) 


>  <ZINC_id>  (937) 


>  <PubChem_id>  (937) 
51136501

>  <DrugBank_id>  (937) 


>  <CAS_no>  (937) 
1355-47-1

>  <references>  (937) 
[{'journal': {'name': 'Phytochemistry Letters', 'id': 39}, 'title': 'NMR structural elucidation of channaine, an unusual alkaloid from Sceletium tortuosum', 'year': 2018, 'start_page': None, 'volume': None, 'issue': None, 'doi': '10.1016/j.phytol.2017.11.018', 'isbn': '', 'despositor': {'code': 'BND', 'first_name': "Bakary N'tji", 'last_name': 'Diallo', 'id': 26}, 'refauthors_set': [{'author': {'first_name': 'Veale', 'initials': 'VC', 'last_name': 'Clinton', 'id': 1057}, 'first_author': True, 'id': 1638}], 'id': 540}]

>  <classifications>  (937) 
[{'classification': 'Diarylheptanoids (Classyfire)', 'id': 1014}]

>  <molecular_mass>  (937) 
546.7

$$$$
SANC01055_minRM1.pdb
     RDKit          3D

 25 25  0  0  1  0  0  0  0  0999 V2000
    3.3300    0.7500   -0.2280 C   0  0  0  0  0  0  0  0  0  0  0  0
    1.8670    0.5600   -0.0560 C   0  0  0  0  0  0  0  0  0  0  0  0
    1.0480    1.5570    0.2870 C   0  0  0  0  0  0  0  0  0  0  0  0
   -0.4180    1.3750    0.4700 C   0  0  0  0  0  0  0  0  0  0  0  0
   -0.9240    0.1590   -0.3080 C   0  0  1  0  0  0  0  0  0  0  0  0
   -0.0850   -1.0620    0.0600 C   0  0  0  0  0  0  0  0  0  0  0  0
    1.3590   -0.8080   -0.2890 C   0  0  0  0  0  0  0  0  0  0  0  0
    2.0690   -1.6980   -0.7250 O   0  0  0  0  0  0  0  0  0  0  0  0
   -2.3730   -0.0870   -0.0100 C   0  0  0  0  0  0  0  0  0  0  0  0
   -2.8040   -0.3950    1.2090 C   0  0  0  0  0  0  0  0  0  0  0  0
   -3.3020    0.0340   -1.1650 C   0  0  0  0  0  0  0  0  0  0  0  0
    3.8990    0.0960    0.4500 H   0  0  0  0  0  0  0  0  0  0  0  0
    3.6460    0.4960   -1.2510 H   0  0  0  0  0  0  0  0  0  0  0  0
    3.6640    1.7800   -0.0350 H   0  0  0  0  0  0  0  0  0  0  0  0
    1.4280    2.5690    0.4680 H   0  0  0  0  0  0  0  0  0  0  0  0
   -0.9690    2.2860    0.1540 H   0  0  0  0  0  0  0  0  0  0  0  0
   -0.6310    1.2850    1.5580 H   0  0  0  0  0  0  0  0  0  0  0  0
   -0.7880    0.3590   -1.4040 H   0  0  0  0  0  0  0  0  0  0  0  0
   -0.1450   -1.2990    1.1440 H   0  0  0  0  0  0  0  0  0  0  0  0
   -0.4680   -1.9720   -0.4480 H   0  0  0  0  0  0  0  0  0  0  0  0
   -2.1660   -0.4960    2.0800 H   0  0  0  0  0  0  0  0  0  0  0  0
   -3.8470   -0.5780    1.4480 H   0  0  0  0  0  0  0  0  0  0  0  0
   -3.2510    1.0350   -1.6200 H   0  0  0  0  0  0  0  0  0  0  0  0
   -4.3560   -0.1350   -0.8990 H   0  0  0  0  0  0  0  0  0  0  0  0
   -3.0580   -0.6920   -1.9550 H   0  0  0  0  0  0  0  0  0  0  0  0
  1 13  1  0
  1  2  1  0
  1 14  1  0
  1 12  1  0
  2  7  1  0
  2  3  2  0
  3 15  1  0
  3  4  1  0
  4  5  1  0
  4 16  1  0
  4 17  1  0
  5 18  1  6
  5  9  1  0
  5  6  1  0
  6 20  1  0
  6  7  1  0
  6 19  1  0
  7  8  2  0
  9 11  1  0
  9 10  2  0
 10 22  1  0
 10 21  1  0
 11 25  1  0
 11 23  1  0
 11 24  1  0
M  END
>  <id>  (938) 
1055

>  <scaffolds>  (938) 
['C1=CCCCC1', 'O=C1C=CCCC1']

>  <name>  (938) 
(S)-(+)-Carvone 

>  <formula>  (938) 
C10H14O

>  <SMILES>  (938) 
CC1=CC[C@@H](CC1=O)C(=C)C

>  <ChEMBL_id>  (938) 
CHEMBL501949

>  <ZINC_id>  (938) 
ZINC968102

>  <PubChem_id>  (938) 
16724

>  <DrugBank_id>  (938) 


>  <CAS_no>  (938) 
2244-16-8

>  <references>  (938) 
[{'journal': {'name': 'Postharvest Biology and Technology', 'id': 69}, 'title': 'Fungitoxicity of Lippia scaberrima essential oil and selected terpenoid components on two mango postharvest spoilage pathogens', 'year': 2008, 'start_page': None, 'volume': None, 'issue': None, 'doi': '10.1016/j.postharvbio.2007.10.011', 'isbn': '', 'despositor': {'code': 'BND', 'first_name': "Bakary N'tji", 'last_name': 'Diallo', 'id': 26}, 'refauthors_set': [{'author': {'first_name': 'Regnier', 'initials': 'RT', 'last_name': 'Thierry', 'id': 1058}, 'first_author': True, 'id': 1639}], 'id': 541}]

>  <classifications>  (938) 
[{'classification': 'Phenol lipids', 'id': 899}, {'classification': 'Phenol lipids (Classyfire)', 'id': 951}]

>  <molecular_mass>  (938) 
150.22

$$$$
SANC01056_minRM1.pdb
     RDKit          3D

 25 25  0  0  1  0  0  0  0  0999 V2000
    3.3300   -0.7500   -0.2290 C   0  0  0  0  0  0  0  0  0  0  0  0
    1.8670   -0.5590   -0.0590 C   0  0  0  0  0  0  0  0  0  0  0  0
    1.0480   -1.5550    0.2850 C   0  0  0  0  0  0  0  0  0  0  0  0
   -0.4170   -1.3730    0.4710 C   0  0  0  0  0  0  0  0  0  0  0  0
   -0.9240   -0.1580   -0.3080 C   0  0  2  0  0  0  0  0  0  0  0  0
   -0.0850    1.0640    0.0570 C   0  0  0  0  0  0  0  0  0  0  0  0
    1.3600    0.8090   -0.2900 C   0  0  0  0  0  0  0  0  0  0  0  0
    2.0700    1.7000   -0.7220 O   0  0  0  0  0  0  0  0  0  0  0  0
   -2.3730    0.0880   -0.0090 C   0  0  0  0  0  0  0  0  0  0  0  0
   -2.8030    0.4010    1.2080 C   0  0  0  0  0  0  0  0  0  0  0  0
   -3.3040   -0.0430   -1.1620 C   0  0  0  0  0  0  0  0  0  0  0  0
    3.8950   -0.1440    0.4960 H   0  0  0  0  0  0  0  0  0  0  0  0
    3.6610   -0.4350   -1.2300 H   0  0  0  0  0  0  0  0  0  0  0  0
    3.6550   -1.7920   -0.0980 H   0  0  0  0  0  0  0  0  0  0  0  0
    1.4280   -2.5670    0.4670 H   0  0  0  0  0  0  0  0  0  0  0  0
   -0.6280   -1.2800    1.5590 H   0  0  0  0  0  0  0  0  0  0  0  0
   -0.9690   -2.2840    0.1580 H   0  0  0  0  0  0  0  0  0  0  0  0
   -0.7900   -0.3600   -1.4040 H   0  0  0  0  0  0  0  0  0  0  0  0
   -0.1450    1.3030    1.1400 H   0  0  0  0  0  0  0  0  0  0  0  0
   -0.4680    1.9720   -0.4530 H   0  0  0  0  0  0  0  0  0  0  0  0
   -3.8470    0.5840    1.4470 H   0  0  0  0  0  0  0  0  0  0  0  0
   -2.1640    0.5070    2.0780 H   0  0  0  0  0  0  0  0  0  0  0  0
   -3.2690   -1.0560   -1.5930 H   0  0  0  0  0  0  0  0  0  0  0  0
   -4.3550    0.1510   -0.9010 H   0  0  0  0  0  0  0  0  0  0  0  0
   -3.0480    0.6590   -1.9700 H   0  0  0  0  0  0  0  0  0  0  0  0
  1 13  1  0
  1 14  1  0
  1  2  1  0
  1 12  1  0
  2  7  1  0
  2  3  2  0
  3 15  1  0
  3  4  1  0
  4  5  1  0
  4 17  1  0
  4 16  1  0
  5 18  1  6
  5  9  1  0
  5  6  1  0
  6 20  1  0
  6  7  1  0
  6 19  1  0
  7  8  2  0
  9 11  1  0
  9 10  2  0
 10 21  1  0
 10 22  1  0
 11 25  1  0
 11 23  1  0
 11 24  1  0
M  END
>  <id>  (939) 
1056

>  <scaffolds>  (939) 
['C1=CCCCC1', 'O=C1C=CCCC1']

>  <name>  (939) 
(R)-Carvone 

>  <formula>  (939) 
C10H14O

>  <SMILES>  (939) 
CC1=CC[C@H](CC1=O)C(=C)C

>  <ChEMBL_id>  (939) 
CHEMBL2229268

>  <ZINC_id>  (939) 
ZINC14588455

>  <PubChem_id>  (939) 
439570

>  <DrugBank_id>  (939) 


>  <CAS_no>  (939) 
6485-40-1

>  <references>  (939) 
[{'journal': {'name': 'Postharvest Biology and Technology', 'id': 69}, 'title': 'Fungitoxicity of Lippia scaberrima essential oil and selected terpenoid components on two mango postharvest spoilage pathogens', 'year': 2008, 'start_page': None, 'volume': None, 'issue': None, 'doi': '10.1016/j.postharvbio.2007.10.011', 'isbn': '', 'despositor': {'code': 'BND', 'first_name': "Bakary N'tji", 'last_name': 'Diallo', 'id': 26}, 'refauthors_set': [{'author': {'first_name': 'Regnier', 'initials': 'RT', 'last_name': 'Thierry', 'id': 1058}, 'first_author': True, 'id': 1639}], 'id': 541}]

>  <classifications>  (939) 
[{'classification': 'Phenol lipids', 'id': 899}, {'classification': 'Phenol lipids (Classyfire)', 'id': 951}]

>  <molecular_mass>  (939) 
150.22

$$$$
SANC01057_minRM1.pdb
     RDKit          3D

 63 64  0  0  1  0  0  0  0  0999 V2000
    4.4410   -4.7740   -0.7430 C   0  0  0  0  0  0  0  0  0  0  0  0
    4.5790   -3.4470   -0.0850 C   0  0  0  0  0  0  0  0  0  0  0  0
    3.7280   -2.4480   -0.3360 C   0  0  0  0  0  0  0  0  0  0  0  0
    3.8630   -1.1000    0.2870 C   0  0  0  0  0  0  0  0  0  0  0  0
    2.5980   -0.3160    0.1580 C   0  0  0  0  0  0  0  0  0  0  0  0
    2.5670    0.9530   -0.3070 C   0  0  0  0  0  0  0  0  0  0  0  0
    1.2910    1.7600   -0.4460 C   0  0  1  0  0  0  0  0  0  0  0  0
    0.0690    0.8550   -0.5540 C   0  0  0  0  0  0  0  0  0  0  0  0
   -0.9020    1.1870   -1.2060 O   0  0  0  0  0  0  0  0  0  0  0  0
    0.1380   -0.3820    0.2070 C   0  0  0  0  0  0  0  0  0  0  0  0
    1.3340   -0.9250    0.5420 C   0  0  0  0  0  0  0  0  0  0  0  0
    1.2820   -2.0620    1.2630 O   0  0  0  0  0  0  0  0  0  0  0  0
   -1.1520   -0.9840    0.6080 C   0  0  0  0  0  0  0  0  0  0  0  0
   -1.8960   -0.4020    1.3700 O   0  0  0  0  0  0  0  0  0  0  0  0
   -1.4890   -2.3220    0.0040 C   0  0  0  0  0  0  0  0  0  0  0  0
   -2.4720   -2.1050   -1.1460 C   0  0  0  0  0  0  0  0  0  0  0  0
   -3.8020   -1.6880   -0.6120 C   0  0  0  0  0  0  0  0  0  0  0  0
   -4.1690   -0.3460   -0.5950 C   0  0  0  0  0  0  0  0  0  0  0  0
   -5.4140    0.0250   -0.1000 C   0  0  0  0  0  0  0  0  0  0  0  0
   -6.2910   -0.9400    0.3800 C   0  0  0  0  0  0  0  0  0  0  0  0
   -5.9210   -2.2790    0.3690 C   0  0  0  0  0  0  0  0  0  0  0  0
   -4.6790   -2.6540   -0.1250 C   0  0  0  0  0  0  0  0  0  0  0  0
    1.1340    2.6400    0.8170 C   0  0  0  0  0  0  0  0  0  0  0  0
   -0.1540    3.3840    0.7830 C   0  0  0  0  0  0  0  0  0  0  0  0
   -0.2650    4.6870    0.5160 C   0  0  0  0  0  0  0  0  0  0  0  0
   -1.5920    5.3610    0.5190 C   0  0  0  0  0  0  0  0  0  0  0  0
    0.8950    5.5620    0.1990 C   0  0  0  0  0  0  0  0  0  0  0  0
    1.4280    2.6470   -1.5200 O   0  0  0  0  0  0  0  0  0  0  0  0
    1.4130    2.0530   -2.7950 C   0  0  0  0  0  0  0  0  0  0  0  0
    3.7340    1.5460   -0.6190 O   0  0  0  0  0  0  0  0  0  0  0  0
    5.7180   -3.3080    0.8590 C   0  0  0  0  0  0  0  0  0  0  0  0
    4.3900   -5.5880   -0.0030 H   0  0  0  0  0  0  0  0  0  0  0  0
    5.3050   -4.9850   -1.3920 H   0  0  0  0  0  0  0  0  0  0  0  0
    3.5450   -4.8660   -1.3730 H   0  0  0  0  0  0  0  0  0  0  0  0
    2.9140   -2.5680   -1.0600 H   0  0  0  0  0  0  0  0  0  0  0  0
    4.1520   -1.1510    1.3620 H   0  0  0  0  0  0  0  0  0  0  0  0
    4.7270   -0.5860   -0.1910 H   0  0  0  0  0  0  0  0  0  0  0  0
    2.1660   -2.3600    1.5070 H   0  0  0  0  0  0  0  0  0  0  0  0
   -0.5790   -2.8450   -0.3540 H   0  0  0  0  0  0  0  0  0  0  0  0
   -1.9200   -2.9950    0.7750 H   0  0  0  0  0  0  0  0  0  0  0  0
   -2.5680   -3.0370   -1.7440 H   0  0  0  0  0  0  0  0  0  0  0  0
   -2.0690   -1.3610   -1.8670 H   0  0  0  0  0  0  0  0  0  0  0  0
   -3.4770    0.4220   -0.9580 H   0  0  0  0  0  0  0  0  0  0  0  0
   -5.6990    1.0800   -0.0840 H   0  0  0  0  0  0  0  0  0  0  0  0
   -7.2690   -0.6450    0.7700 H   0  0  0  0  0  0  0  0  0  0  0  0
   -6.6080   -3.0390    0.7520 H   0  0  0  0  0  0  0  0  0  0  0  0
   -4.3910   -3.7090   -0.1280 H   0  0  0  0  0  0  0  0  0  0  0  0
    2.0160    3.3040    0.9280 H   0  0  0  0  0  0  0  0  0  0  0  0
    1.1640    1.9830    1.7150 H   0  0  0  0  0  0  0  0  0  0  0  0
   -1.0410    2.7770    1.0040 H   0  0  0  0  0  0  0  0  0  0  0  0
   -2.4240    4.7060    0.8160 H   0  0  0  0  0  0  0  0  0  0  0  0
   -1.8410    5.7480   -0.4810 H   0  0  0  0  0  0  0  0  0  0  0  0
   -1.6060    6.2180    1.2100 H   0  0  0  0  0  0  0  0  0  0  0  0
    1.5550    5.6910    1.0700 H   0  0  0  0  0  0  0  0  0  0  0  0
    1.5060    5.1560   -0.6220 H   0  0  0  0  0  0  0  0  0  0  0  0
    0.5980    6.5740   -0.1150 H   0  0  0  0  0  0  0  0  0  0  0  0
    1.9240    2.7860   -3.4400 H   0  0  0  0  0  0  0  0  0  0  0  0
    1.9480    1.0910   -2.8620 H   0  0  0  0  0  0  0  0  0  0  0  0
    0.3900    1.9140   -3.1800 H   0  0  0  0  0  0  0  0  0  0  0  0
    3.5780    2.4550   -0.9120 H   0  0  0  0  0  0  0  0  0  0  0  0
    6.4060   -4.1670    0.8360 H   0  0  0  0  0  0  0  0  0  0  0  0
    6.3300   -2.4180    0.6430 H   0  0  0  0  0  0  0  0  0  0  0  0
    5.3730   -3.2160    1.9010 H   0  0  0  0  0  0  0  0  0  0  0  0
  1 33  1  0
  1 34  1  0
  1  2  1  0
  1 32  1  0
  2  3  2  0
  2 31  1  0
  3 35  1  0
  3  4  1  0
  4 37  1  0
  4  5  1  0
  4 36  1  0
  5  6  2  0
  5 11  1  0
  6 30  1  0
  6  7  1  0
  7 28  1  6
  7  8  1  0
  7 23  1  0
  8  9  2  0
  8 10  1  0
 10 11  2  0
 10 13  1  0
 11 12  1  0
 12 38  1  0
 13 15  1  0
 13 14  2  0
 15 16  1  0
 15 39  1  0
 15 40  1  0
 16 42  1  0
 16 41  1  0
 16 17  1  0
 17 18  2  0
 17 22  1  0
 18 43  1  0
 18 19  1  0
 19 44  1  0
 19 20  2  0
 20 21  1  0
 20 45  1  0
 21 22  2  0
 21 46  1  0
 22 47  1  0
 23 24  1  0
 23 48  1  0
 23 49  1  0
 24 25  2  0
 24 50  1  0
 25 27  1  0
 25 26  1  0
 26 52  1  0
 26 51  1  0
 26 53  1  0
 27 55  1  0
 27 56  1  0
 27 54  1  0
 28 29  1  0
 29 57  1  0
 29 59  1  0
 29 58  1  0
 30 60  1  0
 31 62  1  0
 31 61  1  0
 31 63  1  0
M  END
>  <id>  (940) 
1057

>  <scaffolds>  (940) 
['c1ccccc1']

>  <name>  (940) 
Helihumulone

>  <formula>  (940) 
C26H32O5

>  <SMILES>  (940) 
CC(=CCC1=C(C(C(=O)C(=C1O)C(=O)CCC2=CC=CC=C2)(CC=C(C)C)OC)O)C

>  <ChEMBL_id>  (940) 


>  <ZINC_id>  (940) 


>  <PubChem_id>  (940) 


>  <DrugBank_id>  (940) 


>  <CAS_no>  (940) 
72247-83-7

>  <references>  (940) 
[{'journal': {'name': 'South African Journal of Botany', 'id': 1}, 'title': 'The antimicrobial, antimalarial and toxicity profiles of helihumulone, leaf essential oil and extracts of Helichrysum cymosum (L.) D. Don subsp. cymosum', 'year': 2006, 'start_page': None, 'volume': None, 'issue': None, 'doi': '10.1016/j.sajb.2005.07.007', 'isbn': '', 'despositor': {'code': 'BND', 'first_name': "Bakary N'tji", 'last_name': 'Diallo', 'id': 26}, 'refauthors_set': [{'author': {'first_name': 'Sandy Freda', 'initials': 'SFV', 'last_name': ' van Vuuren', 'id': 1059}, 'first_author': True, 'id': 1640}], 'id': 544}]

>  <classifications>  (940) 
[{'classification': 'Benzene and substituted derivatives (Classyfire)', 'id': 961}]

>  <molecular_mass>  (940) 
nan

$$$$
SANC01058_minRM1.pdb
     RDKit          3D

 24 24  0  0  0  0  0  0  0  0999 V2000
    5.9980    0.3980   -0.0010 C   0  0  0  0  0  0  0  0  0  0  0  0
    4.8460   -0.6000    0.0000 C   0  0  0  0  0  0  0  0  0  0  0  0
    3.6770    0.1880    0.0000 O   0  0  0  0  0  0  0  0  0  0  0  0
    2.4940   -0.5770    0.0010 C   0  0  0  0  0  0  0  0  0  0  0  0
    1.3230    0.3600    0.0000 C   0  0  0  0  0  0  0  0  0  0  0  0
    1.4580    1.7470    0.0010 C   0  0  0  0  0  0  0  0  0  0  0  0
    0.3200    2.5490    0.0010 C   0  0  0  0  0  0  0  0  0  0  0  0
   -0.9740    1.9920    0.0000 C   0  0  0  0  0  0  0  0  0  0  0  0
   -1.0870    0.6070   -0.0000 C   0  0  0  0  0  0  0  0  0  0  0  0
    0.0460   -0.1780   -0.0000 C   0  0  0  0  0  0  0  0  0  0  0  0
   -0.1910   -2.0930   -0.0020 Br  0  0  0  0  0  0  0  0  0  0  0  0
   -2.8030   -0.2450   -0.0020 Br  0  0  0  0  0  0  0  0  0  0  0  0
   -2.1190    2.7070    0.0010 O   0  0  0  0  0  0  0  0  0  0  0  0
    0.3640    3.9080    0.0020 O   0  0  0  0  0  0  0  0  0  0  0  0
    5.9780    1.0530   -0.8830 H   0  0  0  0  0  0  0  0  0  0  0  0
    5.9790    1.0540    0.8810 H   0  0  0  0  0  0  0  0  0  0  0  0
    6.9670   -0.1210   -0.0000 H   0  0  0  0  0  0  0  0  0  0  0  0
    4.8910   -1.2690    0.8910 H   0  0  0  0  0  0  0  0  0  0  0  0
    4.8910   -1.2700   -0.8900 H   0  0  0  0  0  0  0  0  0  0  0  0
    2.4430   -1.2430    0.8970 H   0  0  0  0  0  0  0  0  0  0  0  0
    2.4430   -1.2440   -0.8940 H   0  0  0  0  0  0  0  0  0  0  0  0
    2.4500    2.2110    0.0020 H   0  0  0  0  0  0  0  0  0  0  0  0
   -1.9150    3.6500   -0.0020 H   0  0  0  0  0  0  0  0  0  0  0  0
    1.2860    4.1870   -0.0030 H   0  0  0  0  0  0  0  0  0  0  0  0
  1 15  1  0
  1 17  1  0
  1  2  1  0
  1 16  1  0
  2 19  1  0
  2  3  1  0
  2 18  1  0
  3  4  1  0
  4 21  1  0
  4  5  1  0
  4 20  1  0
  5 10  2  0
  5  6  1  0
  6  7  2  0
  6 22  1  0
  7  8  1  0
  7 14  1  0
  8  9  2  0
  8 13  1  0
  9 12  1  0
  9 10  1  0
 10 11  1  0
 13 23  1  0
 14 24  1  0
M  END
>  <id>  (941) 
1058

>  <scaffolds>  (941) 
['c1ccccc1']

>  <name>  (941) 
Lanosol ethyl ether

>  <formula>  (941) 
C9H10Br2O3

>  <SMILES>  (941) 
CCOCC1=CC(=C(C(=C1Br)Br)O)O

>  <ChEMBL_id>  (941) 
CHEMBL463140

>  <ZINC_id>  (941) 


>  <PubChem_id>  (941) 
42645057

>  <DrugBank_id>  (941) 


>  <CAS_no>  (941) 
54502-93-1

>  <references>  (941) 
[{'journal': {'name': 'South African Journal of Botany', 'id': 1}, 'title': 'Isolation and antimicrobial activity of a lanosol derivative from Osmundaria serrata (Rhodophyta) and a visual exploration of its biofilm covering', 'year': 2006, 'start_page': None, 'volume': None, 'issue': None, 'doi': '10.1016/j.sajb.2006.01.006', 'isbn': '', 'despositor': {'code': 'BND', 'first_name': "Bakary N'tji", 'last_name': 'Diallo', 'id': 26}, 'refauthors_set': [{'author': {'first_name': 'Barreto', 'initials': 'BM', 'last_name': 'Michael', 'id': 1060}, 'first_author': True, 'id': 1641}], 'id': 545}]

>  <classifications>  (941) 
[{'classification': 'Benzene and substituted derivatives (Classyfire)', 'id': 961}]

>  <molecular_mass>  (941) 
325.98

$$$$
SANC01059_minRM1.pdb
     RDKit          3D

 55 54  0  0  0  0  0  0  0  0999 V2000
    8.9170    1.9280   -0.1180 C   0  0  0  0  0  0  0  0  0  0  0  0
    7.9630    1.1430    0.7670 C   0  0  0  0  0  0  0  0  0  0  0  0
    7.1900    0.1110   -0.0510 C   0  0  0  0  0  0  0  0  0  0  0  0
    6.2440   -0.6920    0.8390 C   0  0  0  0  0  0  0  0  0  0  0  0
    5.4030   -1.6850    0.0340 C   0  0  0  0  0  0  0  0  0  0  0  0
    3.9370   -1.2700   -0.0840 C   0  0  0  0  0  0  0  0  0  0  0  0
    3.7690    0.0100   -0.8950 C   0  0  0  0  0  0  0  0  0  0  0  0
    2.2910    0.3270   -1.1250 C   0  0  0  0  0  0  0  0  0  0  0  0
    1.5870    0.6700    0.1420 C   0  0  0  0  0  0  0  0  0  0  0  0
    0.2630    0.7220    0.2690 C   0  0  0  0  0  0  0  0  0  0  0  0
   -0.7090    0.4340   -0.8230 C   0  0  0  0  0  0  0  0  0  0  0  0
   -1.1380   -1.0310   -0.7930 C   0  0  0  0  0  0  0  0  0  0  0  0
   -1.7450   -1.4560    0.5390 C   0  0  0  0  0  0  0  0  0  0  0  0
   -2.9660   -0.6430    0.9590 C   0  0  0  0  0  0  0  0  0  0  0  0
   -4.0860   -0.7070   -0.0760 C   0  0  0  0  0  0  0  0  0  0  0  0
   -5.3730   -0.1080    0.4900 C   0  0  0  0  0  0  0  0  0  0  0  0
   -6.4740   -0.1190   -0.5670 C   0  0  0  0  0  0  0  0  0  0  0  0
   -7.7560    0.4180    0.0350 C   0  0  0  0  0  0  0  0  0  0  0  0
   -8.6940   -0.3040    0.3650 O   0  0  0  0  0  0  0  0  0  0  0  0
   -7.8380    1.7840    0.2140 N   0  0  0  0  0  0  0  0  0  0  0  0
    9.4840    2.6770    0.4540 H   0  0  0  0  0  0  0  0  0  0  0  0
    9.6590    1.2810   -0.6090 H   0  0  0  0  0  0  0  0  0  0  0  0
    8.3930    2.4720   -0.9170 H   0  0  0  0  0  0  0  0  0  0  0  0
    7.2640    1.8350    1.2830 H   0  0  0  0  0  0  0  0  0  0  0  0
    8.5230    0.6470    1.5880 H   0  0  0  0  0  0  0  0  0  0  0  0
    6.6290    0.6120   -0.8680 H   0  0  0  0  0  0  0  0  0  0  0  0
    7.8960   -0.5690   -0.5740 H   0  0  0  0  0  0  0  0  0  0  0  0
    6.8350   -1.2350    1.6090 H   0  0  0  0  0  0  0  0  0  0  0  0
    5.6010   -0.0120    1.4360 H   0  0  0  0  0  0  0  0  0  0  0  0
    5.4540   -2.6880    0.5100 H   0  0  0  0  0  0  0  0  0  0  0  0
    5.8330   -1.8530   -0.9760 H   0  0  0  0  0  0  0  0  0  0  0  0
    3.3590   -2.0960   -0.5540 H   0  0  0  0  0  0  0  0  0  0  0  0
    3.4850   -1.1610    0.9240 H   0  0  0  0  0  0  0  0  0  0  0  0
    4.2710    0.8660   -0.3980 H   0  0  0  0  0  0  0  0  0  0  0  0
    4.2860   -0.0850   -1.8750 H   0  0  0  0  0  0  0  0  0  0  0  0
    2.1930    1.1790   -1.8340 H   0  0  0  0  0  0  0  0  0  0  0  0
    1.7990   -0.5250   -1.6410 H   0  0  0  0  0  0  0  0  0  0  0  0
    2.2230    0.9180    1.0000 H   0  0  0  0  0  0  0  0  0  0  0  0
   -0.1850    0.9920    1.2320 H   0  0  0  0  0  0  0  0  0  0  0  0
   -1.5890    1.1080   -0.7390 H   0  0  0  0  0  0  0  0  0  0  0  0
   -0.2920    0.6890   -1.8220 H   0  0  0  0  0  0  0  0  0  0  0  0
   -1.8410   -1.2370   -1.6280 H   0  0  0  0  0  0  0  0  0  0  0  0
   -0.2620   -1.6800   -1.0160 H   0  0  0  0  0  0  0  0  0  0  0  0
   -0.9750   -1.4050    1.3400 H   0  0  0  0  0  0  0  0  0  0  0  0
   -2.0130   -2.5340    0.4900 H   0  0  0  0  0  0  0  0  0  0  0  0
   -3.3300   -1.0230    1.9390 H   0  0  0  0  0  0  0  0  0  0  0  0
   -2.6890    0.4110    1.1670 H   0  0  0  0  0  0  0  0  0  0  0  0
   -3.7930   -0.1670   -1.0010 H   0  0  0  0  0  0  0  0  0  0  0  0
   -4.2580   -1.7550   -0.3990 H   0  0  0  0  0  0  0  0  0  0  0  0
   -5.1900    0.9250    0.8550 H   0  0  0  0  0  0  0  0  0  0  0  0
   -5.7040   -0.6720    1.3880 H   0  0  0  0  0  0  0  0  0  0  0  0
   -6.1810    0.4600   -1.4670 H   0  0  0  0  0  0  0  0  0  0  0  0
   -6.6500   -1.1490   -0.9450 H   0  0  0  0  0  0  0  0  0  0  0  0
   -7.0920    2.4000   -0.0420 H   0  0  0  0  0  0  0  0  0  0  0  0
   -8.6590    2.2010    0.6160 H   0  0  0  0  0  0  0  0  0  0  0  0
  1 23  1  0
  1 22  1  0
  1 21  1  0
  1  2  1  0
  2  3  1  0
  2 24  1  0
  2 25  1  0
  3 26  1  0
  3 27  1  0
  3  4  1  0
  4  5  1  0
  4 29  1  0
  4 28  1  0
  5 31  1  0
  5  6  1  0
  5 30  1  0
  6  7  1  0
  6 32  1  0
  6 33  1  0
  7 35  1  0
  7  8  1  0
  7 34  1  0
  8 36  1  0
  8 37  1  0
  8  9  1  0
  9 10  2  0
  9 38  1  0
 10 11  1  0
 10 39  1  0
 11 41  1  0
 11 12  1  0
 11 40  1  0
 12 42  1  0
 12 43  1  0
 12 13  1  0
 13 45  1  0
 13 14  1  0
 13 44  1  0
 14 15  1  0
 14 47  1  0
 14 46  1  0
 15 48  1  0
 15 49  1  0
 15 16  1  0
 16 17  1  0
 16 50  1  0
 16 51  1  0
 17 52  1  0
 17 53  1  0
 17 18  1  0
 18 20  1  0
 18 19  2  0
 20 54  1  0
 20 55  1  0
M  END
>  <id>  (942) 
1059

>  <scaffolds>  (942) 
[]

>  <name>  (942) 
Oleamide

>  <formula>  (942) 
C18H35NO

>  <SMILES>  (942) 
CCCCCCCC/C=C\CCCCCCCC(=O)N

>  <ChEMBL_id>  (942) 
SCHEMBL36321

>  <ZINC_id>  (942) 
ZINC8036015

>  <PubChem_id>  (942) 
5283387

>  <DrugBank_id>  (942) 


>  <CAS_no>  (942) 
301-02-0

>  <references>  (942) 
[{'journal': {'name': 'South African Journal of Botany', 'id': 1}, 'title': 'Isoeugenitol, a cyclooxygenase-1 inhibitor from Gethyllis ciliaris', 'year': 2007, 'start_page': None, 'volume': None, 'issue': None, 'doi': '10.1016/j.sajb.2006.06.008', 'isbn': '', 'despositor': {'code': 'BND', 'first_name': "Bakary N'tji", 'last_name': 'Diallo', 'id': 26}, 'refauthors_set': [{'author': {'first_name': 'Esam E. ', 'initials': 'EEE', 'last_name': 'Elgorashi', 'id': 1061}, 'first_author': True, 'id': 1642}], 'id': 546}]

>  <classifications>  (942) 
[{'classification': ' Fatty Acyls', 'id': 924}, {'classification': 'Fatty Acyls (Classyfire)', 'id': 957}]

>  <molecular_mass>  (942) 
281.5

$$$$
SANC01060_minRM1.pdb
     RDKit          3D

 25 26  0  0  0  0  0  0  0  0999 V2000
   -3.3650   -2.0270    0.0180 C   0  0  0  0  0  0  0  0  0  0  0  0
   -2.3380   -0.9510    0.0270 C   0  0  0  0  0  0  0  0  0  0  0  0
   -2.6080    0.3660    0.0440 C   0  0  0  0  0  0  0  0  0  0  0  0
   -1.5180    1.3250    0.0490 C   0  0  0  0  0  0  0  0  0  0  0  0
   -1.6720    2.5490    0.0640 O   0  0  0  0  0  0  0  0  0  0  0  0
   -0.1890    0.7480    0.0350 C   0  0  0  0  0  0  0  0  0  0  0  0
    0.9500    1.5770    0.0370 C   0  0  0  0  0  0  0  0  0  0  0  0
    2.2320    1.0260    0.0220 C   0  0  0  0  0  0  0  0  0  0  0  0
    2.3530   -0.3650    0.0050 C   0  0  0  0  0  0  0  0  0  0  0  0
    1.2460   -1.2360    0.0060 C   0  0  0  0  0  0  0  0  0  0  0  0
   -0.0120   -0.6360    0.0180 C   0  0  0  0  0  0  0  0  0  0  0  0
   -1.0830   -1.4840    0.0130 O   0  0  0  0  0  0  0  0  0  0  0  0
    1.4290   -2.7090   -0.0070 C   0  0  0  0  0  0  0  0  0  0  0  0
    3.6340   -0.7920   -0.0100 O   0  0  0  0  0  0  0  0  0  0  0  0
    0.8650    2.9100    0.0530 O   0  0  0  0  0  0  0  0  0  0  0  0
   -2.9490   -3.0470    0.0520 H   0  0  0  0  0  0  0  0  0  0  0  0
   -3.9840   -1.9640   -0.8900 H   0  0  0  0  0  0  0  0  0  0  0  0
   -4.0390   -1.9290    0.8830 H   0  0  0  0  0  0  0  0  0  0  0  0
   -3.6330    0.7420    0.0550 H   0  0  0  0  0  0  0  0  0  0  0  0
    3.1160    1.6700    0.0220 H   0  0  0  0  0  0  0  0  0  0  0  0
    0.4900   -3.2790    0.0470 H   0  0  0  0  0  0  0  0  0  0  0  0
    2.0260   -3.0580    0.8520 H   0  0  0  0  0  0  0  0  0  0  0  0
    1.9270   -3.0520   -0.9280 H   0  0  0  0  0  0  0  0  0  0  0  0
    3.6740   -1.7530   -0.0390 H   0  0  0  0  0  0  0  0  0  0  0  0
   -0.0830    3.2010    0.0630 H   0  0  0  0  0  0  0  0  0  0  0  0
  1 17  1  0
  1  2  1  0
  1 16  1  0
  1 18  1  0
  2 12  1  0
  2  3  2  0
  3  4  1  0
  3 19  1  0
  4  6  1  0
  4  5  2  0
  6 11  2  0
  6  7  1  0
  7  8  2  0
  7 15  1  0
  8  9  1  0
  8 20  1  0
  9 14  1  0
  9 10  2  0
 10 13  1  0
 10 11  1  0
 11 12  1  0
 13 23  1  0
 13 21  1  0
 13 22  1  0
 14 24  1  0
 15 25  1  0
M  END
>  <id>  (943) 
1060

>  <scaffolds>  (943) 
['c1ccccc1', 'O=c1ccoc2ccccc12']

>  <name>  (943) 
Isoeugenitol

>  <formula>  (943) 
C11H10O4

>  <SMILES>  (943) 
CC1=CC(=O)C2=C(C=C(C(=C2O1)C)O)O

>  <ChEMBL_id>  (943) 
SCHEMBL18517012

>  <ZINC_id>  (943) 


>  <PubChem_id>  (943) 
5318562

>  <DrugBank_id>  (943) 


>  <CAS_no>  (943) 
479-06-1

>  <references>  (943) 
[{'journal': {'name': 'South African Journal of Botany', 'id': 1}, 'title': 'Isoeugenitol, a cyclooxygenase-1 inhibitor from Gethyllis ciliaris', 'year': 2007, 'start_page': None, 'volume': None, 'issue': None, 'doi': '10.1016/j.sajb.2006.06.008', 'isbn': '', 'despositor': {'code': 'BND', 'first_name': "Bakary N'tji", 'last_name': 'Diallo', 'id': 26}, 'refauthors_set': [{'author': {'first_name': 'Esam E. ', 'initials': 'EEE', 'last_name': 'Elgorashi', 'id': 1061}, 'first_author': True, 'id': 1642}], 'id': 546}]

>  <classifications>  (943) 
[{'classification': 'Chromones', 'id': 936}, {'classification': 'Benzopyrans (Classyfire)', 'id': 966}]

>  <molecular_mass>  (943) 
206.19

$$$$
SANC01061_minRM1.pdb
     RDKit          3D

 52 55  0  0  1  0  0  0  0  0999 V2000
    4.8780    1.8030   -0.4640 C   0  0  0  0  0  0  0  0  0  0  0  0
    6.2470    2.0360   -0.4910 C   0  0  0  0  0  0  0  0  0  0  0  0
    7.1180    1.0400   -0.0550 C   0  0  0  0  0  0  0  0  0  0  0  0
    6.6230   -0.1910    0.4060 C   0  0  0  0  0  0  0  0  0  0  0  0
    5.2470   -0.4230    0.4270 C   0  0  0  0  0  0  0  0  0  0  0  0
    4.3890    0.5830   -0.0070 C   0  0  0  0  0  0  0  0  0  0  0  0
    2.9410    0.3770    0.0330 C   0  0  0  0  0  0  0  0  0  0  0  0
    2.0520    1.2460    0.5320 C   0  0  0  0  0  0  0  0  0  0  0  0
    0.6180    0.9350    0.5510 C   0  0  0  0  0  0  0  0  0  0  0  0
   -0.2000    1.7010    1.0280 O   0  0  0  0  0  0  0  0  0  0  0  0
    0.2810   -0.3600   -0.0380 C   0  0  0  0  0  0  0  0  0  0  0  0
    1.2920   -1.1760   -0.5440 C   0  0  0  0  0  0  0  0  0  0  0  0
    2.6120   -0.8350   -0.5060 O   0  0  0  0  0  0  0  0  0  0  0  0
    1.0510   -2.4200   -1.1310 C   0  0  0  0  0  0  0  0  0  0  0  0
   -0.2760   -2.8360   -1.2100 C   0  0  0  0  0  0  0  0  0  0  0  0
   -1.3350   -2.0650   -0.7160 C   0  0  0  0  0  0  0  0  0  0  0  0
   -1.0410   -0.8410   -0.1240 C   0  0  0  0  0  0  0  0  0  0  0  0
   -1.9620   -0.0680    0.4990 O   0  0  0  0  0  0  0  0  0  0  0  0
   -3.3320   -0.3020    0.2420 C   0  0  1  0  0  0  0  0  0  0  0  0
   -4.0120   -0.3330    1.6460 C   0  0  1  0  0  0  0  0  0  0  0  0
   -5.4760    0.1700    1.5560 C   0  0  2  0  0  0  0  0  0  0  0  0
   -5.9860    0.1330    0.0920 C   0  0  1  0  0  0  0  0  0  0  0  0
   -5.0310    0.8820   -0.8700 C   0  0  2  0  0  0  0  0  0  0  0  0
   -3.6900    0.8680   -0.4410 O   0  0  0  0  0  0  0  0  0  0  0  0
   -5.3880    2.3880   -0.9570 C   0  0  0  0  0  0  0  0  0  0  0  0
   -4.6860    2.9840   -2.0000 O   0  0  0  0  0  0  0  0  0  0  0  0
   -6.0230   -1.1770   -0.3910 O   0  0  0  0  0  0  0  0  0  0  0  0
   -5.4470    1.4880    2.0130 O   0  0  0  0  0  0  0  0  0  0  0  0
   -4.1110   -1.6660    2.0520 O   0  0  0  0  0  0  0  0  0  0  0  0
   -0.6380   -4.0170   -1.7540 O   0  0  0  0  0  0  0  0  0  0  0  0
    7.3920   -1.2180    0.8400 O   0  0  0  0  0  0  0  0  0  0  0  0
    8.4700    1.1740   -0.0440 O   0  0  0  0  0  0  0  0  0  0  0  0
    4.1900    2.5800   -0.8100 H   0  0  0  0  0  0  0  0  0  0  0  0
    6.6280    2.9950   -0.8540 H   0  0  0  0  0  0  0  0  0  0  0  0
    4.8590   -1.3840    0.7830 H   0  0  0  0  0  0  0  0  0  0  0  0
    2.3660    2.2040    0.9560 H   0  0  0  0  0  0  0  0  0  0  0  0
    1.8790   -3.0260   -1.5070 H   0  0  0  0  0  0  0  0  0  0  0  0
   -2.3630   -2.4330   -0.8050 H   0  0  0  0  0  0  0  0  0  0  0  0
   -3.5530   -1.2340   -0.3600 H   0  0  0  0  0  0  0  0  0  0  0  0
   -3.4320    0.2950    2.3810 H   0  0  0  0  0  0  0  0  0  0  0  0
   -6.1450   -0.4640    2.2060 H   0  0  0  0  0  0  0  0  0  0  0  0
   -7.0150    0.5840    0.0390 H   0  0  0  0  0  0  0  0  0  0  0  0
   -5.0770    0.4240   -1.8980 H   0  0  0  0  0  0  0  0  0  0  0  0
   -5.2310    2.9070    0.0150 H   0  0  0  0  0  0  0  0  0  0  0  0
   -6.4570    2.5230   -1.2320 H   0  0  0  0  0  0  0  0  0  0  0  0
   -3.7550    3.0170   -1.7540 H   0  0  0  0  0  0  0  0  0  0  0  0
   -6.3990   -1.7490    0.2870 H   0  0  0  0  0  0  0  0  0  0  0  0
   -6.3540    1.7480    2.2000 H   0  0  0  0  0  0  0  0  0  0  0  0
   -3.2310   -1.9530    2.3160 H   0  0  0  0  0  0  0  0  0  0  0  0
    0.1490   -4.4850   -2.0570 H   0  0  0  0  0  0  0  0  0  0  0  0
    8.3170   -0.9500    0.8560 H   0  0  0  0  0  0  0  0  0  0  0  0
    8.6950    2.0600   -0.3480 H   0  0  0  0  0  0  0  0  0  0  0  0
  1 33  1  0
  1  2  2  0
  1  6  1  0
  2 34  1  0
  2  3  1  0
  3 32  1  0
  3  4  2  0
  4  5  1  0
  4 31  1  0
  5  6  2  0
  5 35  1  0
  6  7  1  0
  7 13  1  0
  7  8  2  0
  8  9  1  0
  8 36  1  0
  9 11  1  0
  9 10  2  0
 11 12  2  0
 11 17  1  0
 12 14  1  0
 12 13  1  0
 14 37  1  0
 14 15  2  0
 15 30  1  0
 15 16  1  0
 16 38  1  0
 16 17  2  0
 17 18  1  0
 18 19  1  0
 19 24  1  0
 19 39  1  6
 19 20  1  0
 20 21  1  0
 20 29  1  0
 20 40  1  1
 21 22  1  0
 21 28  1  0
 21 41  1  1
 22 23  1  0
 22 27  1  0
 22 42  1  1
 23 43  1  6
 23 25  1  0
 23 24  1  0
 25 26  1  0
 25 45  1  0
 25 44  1  0
 26 46  1  0
 27 47  1  0
 28 48  1  0
 29 49  1  0
 30 50  1  0
 31 51  1  0
 32 52  1  0
M  END
>  <id>  (944) 
1061

>  <scaffolds>  (944) 
['c1ccccc1', 'O=c1cc(-c2ccccc2)oc2ccccc12', 'C1CCOCC1', 'c1ccc(OC2CCCCO2)cc1', 'O=c1ccoc2ccccc12', 'O=c1cc(-c2ccccc2)oc2cccc(OC3CCCCO3)c12']

>  <name>  (944) 
Luteolin-5-O-glucoside

>  <formula>  (944) 
C21H20O11

>  <SMILES>  (944) 
C1=CC(=C(C=C1C2=CC(=O)C3=C(O2)C=C(C=C3O[C@H]4[C@@H]([C@H]([C@@H]([C@H](O4)CO)O)O)O)O)O)O

>  <ChEMBL_id>  (944) 
SCHEMBL242602

>  <ZINC_id>  (944) 
ZINC33831307

>  <PubChem_id>  (944) 
5317471

>  <DrugBank_id>  (944) 


>  <CAS_no>  (944) 
20344-46-1

>  <references>  (944) 
[{'journal': {'name': 'South African Journal of Botany', 'id': 1}, 'title': 'Verbascoside and luteolin-5-O-[beta]-d-glucoside isolated from Halleria lucida L. exhibit antagonistic anti-oxidant properties in vitro', 'year': 2007, 'start_page': None, 'volume': None, 'issue': None, 'doi': '10.1016/j.sajb.2007.05.006', 'isbn': '', 'despositor': {'code': 'BND', 'first_name': "Bakary N'tji", 'last_name': 'Diallo', 'id': 26}, 'refauthors_set': [{'author': {'first_name': 'Yakov ', 'initials': 'YF', 'last_name': 'Frum', 'id': 1062}, 'first_author': True, 'id': 1643}], 'id': 548}]

>  <classifications>  (944) 
[{'classification': 'Flavonoids (Classyfire)', 'id': 941}]

>  <molecular_mass>  (944) 
448.4

$$$$
SANC01062_minRM1.pdb
     RDKit          3D

 42 45  0  0  1  0  0  0  0  0999 V2000
   -1.7790   -3.5800   -0.5800 C   0  0  0  0  0  0  0  0  0  0  0  0
   -0.7710   -2.4350   -0.5560 C   0  0  2  0  0  0  0  0  0  0  0  0
    0.6090   -3.0010   -0.2170 C   0  0  0  0  0  0  0  0  0  0  0  0
    1.6740   -1.9120   -0.1710 C   0  0  0  0  0  0  0  0  0  0  0  0
    1.2970   -0.8150    0.8220 C   0  0  1  0  0  0  0  0  0  0  0  0
    2.2940    0.3500    0.8200 C   0  0  2  0  0  0  0  0  0  0  0  0
    2.2050    1.1460   -0.4540 C   0  0  0  0  0  0  0  0  0  0  0  0
    3.0100    1.9730   -0.8290 O   0  0  0  0  0  0  0  0  0  0  0  0
    1.2110    0.8800   -1.3600 O   0  0  0  0  0  0  0  0  0  0  0  0
   -0.0370    0.4580   -0.9100 C   0  0  1  0  0  0  0  0  0  0  0  0
   -0.0920   -0.2660    0.4580 C   0  0  1  0  0  0  0  0  0  0  0  0
   -1.1500   -1.3780    0.4920 C   0  0  1  0  0  0  0  0  0  0  0  0
   -2.5890   -0.8720    0.3460 C   0  0  0  0  0  0  0  0  0  0  0  0
   -2.7950    0.3900   -0.4810 C   0  0  0  0  0  0  0  0  0  0  0  0
   -1.8990    1.5560   -0.0190 C   0  0  2  0  0  0  0  0  0  0  0  0
   -0.7420    1.6740   -0.7920 O   0  0  0  0  0  0  0  0  0  0  0  0
   -1.4980    1.3350    1.3280 O   0  0  0  0  0  0  0  0  0  0  0  0
   -0.3500    0.7280    1.4420 O   0  0  0  0  0  0  0  0  0  0  0  0
   -2.5990    2.9130   -0.0560 C   0  0  0  0  0  0  0  0  0  0  0  0
    3.7320   -0.1200    1.0040 C   0  0  0  0  0  0  0  0  0  0  0  0
   -2.7970   -3.2290   -0.8170 H   0  0  0  0  0  0  0  0  0  0  0  0
   -1.5230   -4.3360   -1.3350 H   0  0  0  0  0  0  0  0  0  0  0  0
   -1.8460   -4.1030    0.3850 H   0  0  0  0  0  0  0  0  0  0  0  0
   -0.7470   -1.9550   -1.5720 H   0  0  0  0  0  0  0  0  0  0  0  0
    0.8970   -3.7740   -0.9610 H   0  0  0  0  0  0  0  0  0  0  0  0
    0.5790   -3.5490    0.7490 H   0  0  0  0  0  0  0  0  0  0  0  0
    2.6430   -2.3730    0.1180 H   0  0  0  0  0  0  0  0  0  0  0  0
    1.8600   -1.5100   -1.1880 H   0  0  0  0  0  0  0  0  0  0  0  0
    1.2680   -1.2520    1.8540 H   0  0  0  0  0  0  0  0  0  0  0  0
    2.0490    1.0510    1.6650 H   0  0  0  0  0  0  0  0  0  0  0  0
   -0.4100   -0.1700   -1.7690 H   0  0  0  0  0  0  0  0  0  0  0  0
   -1.0910   -1.8610    1.5050 H   0  0  0  0  0  0  0  0  0  0  0  0
   -3.2360   -1.6780   -0.0720 H   0  0  0  0  0  0  0  0  0  0  0  0
   -3.0110   -0.7040    1.3630 H   0  0  0  0  0  0  0  0  0  0  0  0
   -2.6640    0.1970   -1.5660 H   0  0  0  0  0  0  0  0  0  0  0  0
   -3.8620    0.6940   -0.4060 H   0  0  0  0  0  0  0  0  0  0  0  0
   -3.4390    2.9490    0.6510 H   0  0  0  0  0  0  0  0  0  0  0  0
   -1.9160    3.7340    0.2080 H   0  0  0  0  0  0  0  0  0  0  0  0
   -2.9910    3.1260   -1.0600 H   0  0  0  0  0  0  0  0  0  0  0  0
    4.4070    0.7250    1.2110 H   0  0  0  0  0  0  0  0  0  0  0  0
    3.8260   -0.8180    1.8470 H   0  0  0  0  0  0  0  0  0  0  0  0
    4.1400   -0.6200    0.1140 H   0  0  0  0  0  0  0  0  0  0  0  0
  1 22  1  0
  1 21  1  0
  1  2  1  0
  1 23  1  0
  2 24  1  6
  2  3  1  0
  2 12  1  0
  3 25  1  0
  3  4  1  0
  3 26  1  0
  4 28  1  0
  4 27  1  0
  4  5  1  0
  5 11  1  0
  5  6  1  0
  5 29  1  1
  6  7  1  0
  6 20  1  0
  6 30  1  1
  7  9  1  0
  7  8  2  0
  9 10  1  0
 10 31  1  6
 10 16  1  0
 10 11  1  0
 11 12  1  0
 11 18  1  1
 12 13  1  0
 12 32  1  1
 13 14  1  0
 13 33  1  0
 13 34  1  0
 14 35  1  0
 14 36  1  0
 14 15  1  0
 15 16  1  0
 15 19  1  1
 15 17  1  0
 17 18  1  0
 19 39  1  0
 19 38  1  0
 19 37  1  0
 20 42  1  0
 20 40  1  0
 20 41  1  0
M  END
>  <id>  (945) 
1062

>  <scaffolds>  (945) 
['C1CCOCC1', 'C1CCCCC1', 'O=C1CC2CCCC3CCC4OOC32C(O1)O4']

>  <name>  (945) 
Artemisinin

>  <formula>  (945) 
C15H22O5

>  <SMILES>  (945) 
C[C@@H]1CC[C@H]2[C@H](C(=O)O[C@H]3[C@@]24[C@H]1CC[C@](O3)(OO4)C)C

>  <ChEMBL_id>  (945) 
CHEMBL269671

>  <ZINC_id>  (945) 
ZINC8143788

>  <PubChem_id>  (945) 
68827

>  <DrugBank_id>  (945) 
DB13132

>  <CAS_no>  (945) 
63968-64-9

>  <references>  (945) 
[{'journal': {'name': 'South African Journal of Botany', 'id': 1}, 'title': 'Metabolomic quality control of claimed anti-malarial Artemisia afra herbal remedy and A. afra and A. annua plant extracts', 'year': 2008, 'start_page': None, 'volume': None, 'issue': None, 'doi': '10.1016/j.sajb.2007.10.004', 'isbn': '', 'despositor': {'code': 'BND', 'first_name': "Bakary N'tji", 'last_name': 'Diallo', 'id': 26}, 'refauthors_set': [{'author': {'first_name': 'Frank', 'initials': 'FD', 'last_name': 'van der Kooy', 'id': 1063}, 'first_author': True, 'id': 1644}], 'id': 550}]

>  <classifications>  (945) 
[{'classification': 'Artemisinins', 'id': 937}, {'classification': 'Phenol lipids (Classyfire)', 'id': 951}]

>  <molecular_mass>  (945) 
282.33

$$$$
SANC01063_minRM1.pdb
     RDKit          3D

 29 28  0  0  0  0  0  0  0  0999 V2000
   -3.3620    1.7030    0.3050 C   0  0  0  0  0  0  0  0  0  0  0  0
   -2.7700    0.3450    0.1550 C   0  0  0  0  0  0  0  0  0  0  0  0
   -1.5830    0.0410    0.6810 C   0  0  0  0  0  0  0  0  0  0  0  0
   -0.9370   -1.2970    0.5740 C   0  0  0  0  0  0  0  0  0  0  0  0
    0.0640   -1.3010   -0.5840 C   0  0  0  0  0  0  0  0  0  0  0  0
    1.1570   -0.3120   -0.3190 C   0  0  0  0  0  0  0  0  0  0  0  0
    2.1590   -0.6320    0.5020 C   0  0  0  0  0  0  0  0  0  0  0  0
    3.2950    0.2890    0.8190 C   0  0  0  0  0  0  0  0  0  0  0  0
    3.8730    0.6530   -0.4040 O   0  0  0  0  0  0  0  0  0  0  0  0
    1.0540    0.9930   -1.0180 C   0  0  0  0  0  0  0  0  0  0  0  0
   -3.5940   -0.6290   -0.6090 C   0  0  0  0  0  0  0  0  0  0  0  0
   -3.4850    2.1950   -0.6720 H   0  0  0  0  0  0  0  0  0  0  0  0
   -4.3590    1.6570    0.7690 H   0  0  0  0  0  0  0  0  0  0  0  0
   -2.7600    2.3830    0.9250 H   0  0  0  0  0  0  0  0  0  0  0  0
   -0.9970    0.7900    1.2260 H   0  0  0  0  0  0  0  0  0  0  0  0
   -0.4230   -1.5470    1.5280 H   0  0  0  0  0  0  0  0  0  0  0  0
   -1.6750   -2.1160    0.4480 H   0  0  0  0  0  0  0  0  0  0  0  0
    0.4840   -2.3200   -0.7250 H   0  0  0  0  0  0  0  0  0  0  0  0
   -0.4520   -1.0890   -1.5450 H   0  0  0  0  0  0  0  0  0  0  0  0
    2.1990   -1.6090    0.9930 H   0  0  0  0  0  0  0  0  0  0  0  0
    2.9340    1.1780    1.3930 H   0  0  0  0  0  0  0  0  0  0  0  0
    4.0350   -0.2080    1.4910 H   0  0  0  0  0  0  0  0  0  0  0  0
    4.6380    1.2010   -0.2040 H   0  0  0  0  0  0  0  0  0  0  0  0
    1.5860    0.9580   -1.9820 H   0  0  0  0  0  0  0  0  0  0  0  0
    0.0130    1.2810   -1.2330 H   0  0  0  0  0  0  0  0  0  0  0  0
    1.4890    1.8280   -0.4500 H   0  0  0  0  0  0  0  0  0  0  0  0
   -4.4590   -0.1660   -1.1080 H   0  0  0  0  0  0  0  0  0  0  0  0
   -3.9990   -1.4160    0.0460 H   0  0  0  0  0  0  0  0  0  0  0  0
   -3.0170   -1.1310   -1.4010 H   0  0  0  0  0  0  0  0  0  0  0  0
  1 12  1  0
  1  2  1  0
  1 13  1  0
  1 14  1  0
  2 11  1  0
  2  3  2  0
  3  4  1  0
  3 15  1  0
  4  5  1  0
  4 17  1  0
  4 16  1  0
  5 19  1  0
  5 18  1  0
  5  6  1  0
  6 10  1  0
  6  7  2  0
  7  8  1  0
  7 20  1  0
  8  9  1  0
  8 21  1  0
  8 22  1  0
  9 23  1  0
 10 24  1  0
 10 25  1  0
 10 26  1  0
 11 29  1  0
 11 27  1  0
 11 28  1  0
M  END
>  <id>  (946) 
1063

>  <scaffolds>  (946) 
[]

>  <name>  (946) 
Geraniol

>  <formula>  (946) 
C10H18O

>  <SMILES>  (946) 
CC(=CCC/C(=C/CO)/C)C

>  <ChEMBL_id>  (946) 
CHEMBL25719

>  <ZINC_id>  (946) 
ZINC1529210

>  <PubChem_id>  (946) 
637566

>  <DrugBank_id>  (946) 


>  <CAS_no>  (946) 
106-24-1

>  <references>  (946) 
[{'journal': {'name': 'South African Journal of Botany', 'id': 1}, 'title': 'Chemical composition and antifungal activity of the essential oils of Lippia rehmannii from South Africa', 'year': 2010, 'start_page': None, 'volume': None, 'issue': None, 'doi': '10.1016/j.sajb.2009.06.011', 'isbn': '', 'despositor': {'code': 'BND', 'first_name': "Bakary N'tji", 'last_name': 'Diallo', 'id': 26}, 'refauthors_set': [{'author': {'first_name': 'Johan H.', 'initials': 'JL', 'last_name': 'Linde', 'id': 1064}, 'first_author': True, 'id': 1645}], 'id': 551}]

>  <classifications>  (946) 
[{'classification': 'Phenol lipids', 'id': 899}, {'classification': 'Phenol lipids (Classyfire)', 'id': 951}]

>  <molecular_mass>  (946) 
154.25

$$$$
SANC01064_minRM1.pdb
     RDKit          3D

 29 28  0  0  0  0  0  0  0  0999 V2000
    4.0920   -0.0330    0.5650 C   0  0  0  0  0  0  0  0  0  0  0  0
    2.7520   -0.0290   -0.0830 C   0  0  0  0  0  0  0  0  0  0  0  0
    1.8580    0.9260    0.1770 C   0  0  0  0  0  0  0  0  0  0  0  0
    0.5000    1.0110   -0.4300 C   0  0  0  0  0  0  0  0  0  0  0  0
   -0.5570    0.7520    0.6480 C   0  0  0  0  0  0  0  0  0  0  0  0
   -1.9230    0.8280    0.0480 C   0  0  0  0  0  0  0  0  0  0  0  0
   -2.5880   -0.2250   -0.4260 C   0  0  0  0  0  0  0  0  0  0  0  0
   -2.0550   -1.6250   -0.3920 C   0  0  0  0  0  0  0  0  0  0  0  0
   -2.1730   -2.0430    0.9410 O   0  0  0  0  0  0  0  0  0  0  0  0
   -2.5230    2.1910    0.0110 C   0  0  0  0  0  0  0  0  0  0  0  0
    2.4980   -1.1520   -1.0250 C   0  0  0  0  0  0  0  0  0  0  0  0
    4.2660    0.8250    1.2310 H   0  0  0  0  0  0  0  0  0  0  0  0
    4.8990   -0.0170   -0.1830 H   0  0  0  0  0  0  0  0  0  0  0  0
    4.2370   -0.9370    1.1770 H   0  0  0  0  0  0  0  0  0  0  0  0
    2.0870    1.7290    0.8870 H   0  0  0  0  0  0  0  0  0  0  0  0
    0.3650    2.0190   -0.8810 H   0  0  0  0  0  0  0  0  0  0  0  0
    0.3570    0.3190   -1.2850 H   0  0  0  0  0  0  0  0  0  0  0  0
   -0.3750   -0.2230    1.1460 H   0  0  0  0  0  0  0  0  0  0  0  0
   -0.4580    1.4890    1.4750 H   0  0  0  0  0  0  0  0  0  0  0  0
   -3.5920   -0.1220   -0.8490 H   0  0  0  0  0  0  0  0  0  0  0  0
   -2.6300   -2.2870   -1.0830 H   0  0  0  0  0  0  0  0  0  0  0  0
   -1.0010   -1.6750   -0.7580 H   0  0  0  0  0  0  0  0  0  0  0  0
   -1.8480   -2.9470    0.9860 H   0  0  0  0  0  0  0  0  0  0  0  0
   -3.3940    2.2720   -0.6550 H   0  0  0  0  0  0  0  0  0  0  0  0
   -2.8630    2.4920    1.0140 H   0  0  0  0  0  0  0  0  0  0  0  0
   -1.8050    2.9540   -0.3240 H   0  0  0  0  0  0  0  0  0  0  0  0
    1.5850   -1.7100   -0.7660 H   0  0  0  0  0  0  0  0  0  0  0  0
    2.3810   -0.7950   -2.0600 H   0  0  0  0  0  0  0  0  0  0  0  0
    3.3130   -1.8910   -1.0450 H   0  0  0  0  0  0  0  0  0  0  0  0
  1 13  1  0
  1  2  1  0
  1 14  1  0
  1 12  1  0
  2 11  1  0
  2  3  2  0
  3  4  1  0
  3 15  1  0
  4 17  1  0
  4 16  1  0
  4  5  1  0
  5  6  1  0
  5 18  1  0
  5 19  1  0
  6  7  2  0
  6 10  1  0
  7 20  1  0
  7  8  1  0
  8 21  1  0
  8 22  1  0
  8  9  1  0
  9 23  1  0
 10 24  1  0
 10 26  1  0
 10 25  1  0
 11 28  1  0
 11 29  1  0
 11 27  1  0
M  END
>  <id>  (947) 
1064

>  <scaffolds>  (947) 
[]

>  <name>  (947) 
Nerol

>  <formula>  (947) 
C10H18O

>  <SMILES>  (947) 
CC(=CCC/C(=C\CO)/C)C

>  <ChEMBL_id>  (947) 
CHEMBL452683

>  <ZINC_id>  (947) 
ZINC12405252

>  <PubChem_id>  (947) 
643820

>  <DrugBank_id>  (947) 


>  <CAS_no>  (947) 
106-25-2

>  <references>  (947) 
[{'journal': {'name': 'South African Journal of Botany', 'id': 1}, 'title': 'Chemical composition and antifungal activity of the essential oils of Lippia rehmannii from South Africa', 'year': 2010, 'start_page': None, 'volume': None, 'issue': None, 'doi': '10.1016/j.sajb.2009.06.011', 'isbn': '', 'despositor': {'code': 'BND', 'first_name': "Bakary N'tji", 'last_name': 'Diallo', 'id': 26}, 'refauthors_set': [{'author': {'first_name': 'Johan H.', 'initials': 'JL', 'last_name': 'Linde', 'id': 1064}, 'first_author': True, 'id': 1645}], 'id': 551}]

>  <classifications>  (947) 
[{'classification': 'Phenol lipids', 'id': 899}, {'classification': 'Phenol lipids (Classyfire)', 'id': 951}]

>  <molecular_mass>  (947) 
154.25

$$$$
SANC01065_minRM1.pdb
     RDKit          3D

 26 27  0  0  1  0  0  0  0  0999 V2000
   -2.4580   -0.7600   -0.2210 C   0  0  0  0  0  0  0  0  0  0  0  0
   -1.0830   -0.2830    0.2140 C   0  0  2  0  0  0  0  0  0  0  0  0
   -0.8010    1.1830   -0.2440 C   0  0  1  0  0  0  0  0  0  0  0  0
    0.3790    1.7530    0.5320 C   0  0  0  0  0  0  0  0  0  0  0  0
    1.6260    0.8540    0.4130 C   0  0  0  0  0  0  0  0  0  0  0  0
    1.3570   -0.5200   -0.1320 C   0  0  0  0  0  0  0  0  0  0  0  0
    2.2510   -1.4980   -0.0400 C   0  0  0  0  0  0  0  0  0  0  0  0
    0.0340   -0.6940   -0.7990 C   0  0  2  0  0  0  0  0  0  0  0  0
   -0.2570    0.6170   -1.5840 C   0  0  0  0  0  0  0  0  0  0  0  0
   -0.8880   -0.6310    1.6700 C   0  0  0  0  0  0  0  0  0  0  0  0
   -3.2510   -0.3390    0.4130 H   0  0  0  0  0  0  0  0  0  0  0  0
   -2.5450   -1.8550   -0.1630 H   0  0  0  0  0  0  0  0  0  0  0  0
   -2.7140   -0.4880   -1.2540 H   0  0  0  0  0  0  0  0  0  0  0  0
   -1.6670    1.8640   -0.2900 H   0  0  0  0  0  0  0  0  0  0  0  0
    0.0990    1.9090    1.5940 H   0  0  0  0  0  0  0  0  0  0  0  0
    0.6120    2.7730    0.1630 H   0  0  0  0  0  0  0  0  0  0  0  0
    2.1400    0.7850    1.3950 H   0  0  0  0  0  0  0  0  0  0  0  0
    2.3790    1.3390   -0.2470 H   0  0  0  0  0  0  0  0  0  0  0  0
    2.0960   -2.4950   -0.4390 H   0  0  0  0  0  0  0  0  0  0  0  0
    3.2160   -1.3860    0.4430 H   0  0  0  0  0  0  0  0  0  0  0  0
   -0.0980   -1.6500   -1.3340 H   0  0  0  0  0  0  0  0  0  0  0  0
    0.5990    1.1340   -2.0400 H   0  0  0  0  0  0  0  0  0  0  0  0
   -1.0020    0.5200   -2.3890 H   0  0  0  0  0  0  0  0  0  0  0  0
   -1.1410   -1.6830    1.8730 H   0  0  0  0  0  0  0  0  0  0  0  0
   -1.5340   -0.0160    2.3150 H   0  0  0  0  0  0  0  0  0  0  0  0
    0.1360   -0.5040    2.0440 H   0  0  0  0  0  0  0  0  0  0  0  0
  1 13  1  0
  1 12  1  0
  2  1  1  6
  1 11  1  0
  2  8  1  0
  2  3  1  0
  2 10  1  0
  3  9  1  0
  3 14  1  6
  3  4  1  0
  4 16  1  0
  4  5  1  0
  4 15  1  0
  5 18  1  0
  5  6  1  0
  5 17  1  0
  6  8  1  0
  6  7  2  0
  7 19  1  0
  7 20  1  0
  8  9  1  0
  8 21  1  6
  9 23  1  0
  9 22  1  0
 10 24  1  0
 10 26  1  0
 10 25  1  0
M  END
>  <id>  (948) 
1065

>  <scaffolds>  (948) 
['C1CCCCC1', 'C=C1CCC2CC1C2']

>  <name>  (948) 
Beta-pinene

>  <formula>  (948) 
C10H16

>  <SMILES>  (948) 
CC1(C2CCC(=C)C1C2)C

>  <ChEMBL_id>  (948) 
CHEMBL501351

>  <ZINC_id>  (948) 


>  <PubChem_id>  (948) 
14896

>  <DrugBank_id>  (948) 


>  <CAS_no>  (948) 
127-91-3

>  <references>  (948) 
[{'journal': {'name': 'South African Journal of Botany', 'id': 1}, 'title': 'Chemical variations, trichome structure and antifungal activities of essential oils of Helichrysum splendidum from South Africa', 'year': 2015, 'start_page': None, 'volume': None, 'issue': None, 'doi': '10.1016/j.sajb.2014.10.006', 'isbn': '', 'despositor': {'code': 'TMM', 'first_name': 'Thommas', 'last_name': 'Musyoka', 'id': 22}, 'refauthors_set': [{'author': {'first_name': 'Mashigo', 'initials': 'MM', 'last_name': 'M.', 'id': 1065}, 'first_author': True, 'id': 1646}], 'id': 552}]

>  <classifications>  (948) 
[{'classification': 'Phenol lipids', 'id': 899}, {'classification': 'Phenol lipids (Classyfire)', 'id': 951}]

>  <molecular_mass>  (948) 
136.23

$$$$
SANC01066_minRM1.pdb
     RDKit          3D

 42 43  0  0  1  0  0  0  0  0999 V2000
    3.3620    2.4390   -0.3450 C   0  0  0  0  0  0  0  0  0  0  0  0
    2.4020    1.3190   -0.1430 C   0  0  0  0  0  0  0  0  0  0  0  0
    1.0930    1.5300   -0.0070 C   0  0  0  0  0  0  0  0  0  0  0  0
    0.0870    0.4450    0.2240 C   0  0  1  0  0  0  0  0  0  0  0  0
   -1.2180    0.7480   -0.5470 C   0  0  1  0  0  0  0  0  0  0  0  0
   -1.8170   -0.5440   -1.1210 C   0  0  0  0  0  0  0  0  0  0  0  0
   -1.7320   -1.6760   -0.1110 C   0  0  0  0  0  0  0  0  0  0  0  0
   -0.2630   -2.0710    0.1570 C   0  0  1  0  0  0  0  0  0  0  0  0
    0.6880   -0.9050   -0.1960 C   0  0  2  0  0  0  0  0  0  0  0  0
    2.0590   -1.0740    0.4530 C   0  0  0  0  0  0  0  0  0  0  0  0
    3.0160   -0.0380   -0.1260 C   0  0  0  0  0  0  0  0  0  0  0  0
   -0.1390   -2.5550    1.6090 C   0  0  0  0  0  0  0  0  0  0  0  0
    0.1360   -3.0970   -0.7110 O   0  0  0  0  0  0  0  0  0  0  0  0
   -2.2670    1.4500    0.3420 C   0  0  1  0  0  0  0  0  0  0  0  0
   -1.7360    2.7190    0.9970 C   0  0  0  0  0  0  0  0  0  0  0  0
   -3.4920    1.8290   -0.4900 C   0  0  0  0  0  0  0  0  0  0  0  0
    3.9980    2.5790    0.5420 H   0  0  0  0  0  0  0  0  0  0  0  0
    4.0340    2.2510   -1.1950 H   0  0  0  0  0  0  0  0  0  0  0  0
    2.8780    3.4070   -0.5400 H   0  0  0  0  0  0  0  0  0  0  0  0
    0.7030    2.5510   -0.0490 H   0  0  0  0  0  0  0  0  0  0  0  0
   -0.1240    0.4070    1.3240 H   0  0  0  0  0  0  0  0  0  0  0  0
   -0.9850    1.4260   -1.4100 H   0  0  0  0  0  0  0  0  0  0  0  0
   -1.3120   -0.8300   -2.0680 H   0  0  0  0  0  0  0  0  0  0  0  0
   -2.8750   -0.3880   -1.4330 H   0  0  0  0  0  0  0  0  0  0  0  0
   -2.3210   -2.5500   -0.4630 H   0  0  0  0  0  0  0  0  0  0  0  0
   -2.2380   -1.3820    0.8320 H   0  0  0  0  0  0  0  0  0  0  0  0
    0.8410   -0.8920   -1.3100 H   0  0  0  0  0  0  0  0  0  0  0  0
    2.0080   -0.9590    1.5560 H   0  0  0  0  0  0  0  0  0  0  0  0
    2.4520   -2.0970    0.2820 H   0  0  0  0  0  0  0  0  0  0  0  0
    3.3180   -0.3120   -1.1610 H   0  0  0  0  0  0  0  0  0  0  0  0
    3.9690   -0.0310    0.4480 H   0  0  0  0  0  0  0  0  0  0  0  0
   -0.2090   -1.7300    2.3300 H   0  0  0  0  0  0  0  0  0  0  0  0
    0.8090   -3.0760    1.8050 H   0  0  0  0  0  0  0  0  0  0  0  0
   -0.9340   -3.2690    1.8750 H   0  0  0  0  0  0  0  0  0  0  0  0
   -0.3790   -3.8840   -0.5100 H   0  0  0  0  0  0  0  0  0  0  0  0
   -2.5890    0.7450    1.1520 H   0  0  0  0  0  0  0  0  0  0  0  0
   -2.5180    3.2290    1.5820 H   0  0  0  0  0  0  0  0  0  0  0  0
   -0.9160    2.5340    1.7050 H   0  0  0  0  0  0  0  0  0  0  0  0
   -1.3780    3.4540    0.2620 H   0  0  0  0  0  0  0  0  0  0  0  0
   -4.2910    2.2650    0.1270 H   0  0  0  0  0  0  0  0  0  0  0  0
   -3.9350    0.9600   -1.0030 H   0  0  0  0  0  0  0  0  0  0  0  0
   -3.2570    2.5670   -1.2710 H   0  0  0  0  0  0  0  0  0  0  0  0
  1 18  1  0
  1 19  1  0
  1  2  1  0
  1 17  1  0
  2 11  1  0
  2  3  2  0
  3 20  1  0
  3  4  1  0
  4  5  1  0
  4  9  1  0
  4 21  1  1
  5 22  1  6
  5  6  1  0
  5 14  1  0
  6 23  1  0
  6 24  1  0
  6  7  1  0
  7 25  1  0
  7  8  1  0
  7 26  1  0
  8 13  1  6
  8  9  1  0
  8 12  1  0
  9 27  1  6
  9 10  1  0
 10 11  1  0
 10 29  1  0
 10 28  1  0
 11 30  1  0
 11 31  1  0
 12 33  1  0
 12 34  1  0
 12 32  1  0
 13 35  1  0
 14 16  1  0
 14 15  1  0
 14 36  1  1
 15 39  1  0
 15 37  1  0
 15 38  1  0
 16 42  1  0
 16 41  1  0
 16 40  1  0
M  END
>  <id>  (949) 
1066

>  <scaffolds>  (949) 
['C1=CC2CCCCC2CC1', 'C1=CCCCC1', 'C1CCCCC1']

>  <name>  (949) 
Alpha-cadinol

>  <formula>  (949) 
C15H26O

>  <SMILES>  (949) 
CC1=C[C@H]2[C@@H](CC[C@@]([C@@H]2CC1)(C)O)C(C)C

>  <ChEMBL_id>  (949) 
SCHEMBL4276031

>  <ZINC_id>  (949) 


>  <PubChem_id>  (949) 
10398656

>  <DrugBank_id>  (949) 


>  <CAS_no>  (949) 
481-34-5

>  <references>  (949) 
[{'journal': {'name': 'South African Journal of Botany', 'id': 1}, 'title': 'Chemical variations, trichome structure and antifungal activities of essential oils of Helichrysum splendidum from South Africa', 'year': 2015, 'start_page': None, 'volume': None, 'issue': None, 'doi': '10.1016/j.sajb.2014.10.006', 'isbn': '', 'despositor': {'code': 'TMM', 'first_name': 'Thommas', 'last_name': 'Musyoka', 'id': 22}, 'refauthors_set': [{'author': {'first_name': 'Mashigo', 'initials': 'MM', 'last_name': 'M.', 'id': 1065}, 'first_author': True, 'id': 1646}], 'id': 552}]

>  <classifications>  (949) 
[{'classification': 'Phenol lipids', 'id': 899}, {'classification': 'Phenol lipids (Classyfire)', 'id': 951}]

>  <molecular_mass>  (949) 
222.37

$$$$
SANC01067_minRM1.pdb
     RDKit          3D

 86 89  0  0  1  0  0  0  0  0999 V2000
   -0.3440   -4.7830   -2.6220 C   0  0  0  0  0  0  0  0  0  0  0  0
   -1.6940   -4.5540   -1.9480 C   0  0  1  0  0  0  0  0  0  0  0  0
   -2.1400   -5.8080   -1.1460 C   0  0  1  0  0  0  0  0  0  0  0  0
   -3.0160   -5.3360    0.0390 C   0  0  2  0  0  0  0  0  0  0  0  0
   -2.1270   -4.4900    0.9930 C   0  0  2  0  0  0  0  0  0  0  0  0
   -1.1210   -3.6410    0.1430 C   0  0  1  0  0  0  0  0  0  0  0  0
   -1.6560   -3.4120   -1.1370 O   0  0  0  0  0  0  0  0  0  0  0  0
   -1.1110   -2.3810    0.7520 O   0  0  0  0  0  0  0  0  0  0  0  0
   -0.2990   -1.3850    0.1850 C   0  0  2  0  0  0  0  0  0  0  0  0
    1.2050   -1.7410    0.2900 C   0  0  2  0  0  0  0  0  0  0  0  0
    2.0510   -0.4610    0.0120 C   0  0  1  0  0  0  0  0  0  0  0  0
    1.7070    0.5650    0.9100 O   0  0  0  0  0  0  0  0  0  0  0  0
    0.3810    0.9960    0.7490 C   0  0  1  0  0  0  0  0  0  0  0  0
   -0.5700   -0.1690    1.1150 C   0  0  1  0  0  0  0  0  0  0  0  0
   -1.8560    0.3160    0.8100 O   0  0  0  0  0  0  0  0  0  0  0  0
   -2.8810    0.1380    1.6900 C   0  0  0  0  0  0  0  0  0  0  0  0
   -2.7430   -0.5310    2.6950 O   0  0  0  0  0  0  0  0  0  0  0  0
   -4.0970    0.8560    1.2760 C   0  0  0  0  0  0  0  0  0  0  0  0
   -4.0510    2.0120    0.6110 C   0  0  0  0  0  0  0  0  0  0  0  0
   -5.2620    2.7570    0.2830 C   0  0  0  0  0  0  0  0  0  0  0  0
   -5.4040    3.2830   -1.0010 C   0  0  0  0  0  0  0  0  0  0  0  0
   -6.5430    4.0150   -1.3050 C   0  0  0  0  0  0  0  0  0  0  0  0
   -7.5320    4.2340   -0.3290 C   0  0  0  0  0  0  0  0  0  0  0  0
   -7.3800    3.6970    0.9500 C   0  0  0  0  0  0  0  0  0  0  0  0
   -6.2450    2.9560    1.2480 C   0  0  0  0  0  0  0  0  0  0  0  0
   -8.6750    4.9260   -0.5390 O   0  0  0  0  0  0  0  0  0  0  0  0
   -6.8320    4.5230   -2.5430 O   0  0  0  0  0  0  0  0  0  0  0  0
   -5.7240    4.8770   -3.3360 C   0  0  0  0  0  0  0  0  0  0  0  0
    0.2260    2.1610    1.7550 C   0  0  0  0  0  0  0  0  0  0  0  0
    0.9740    3.2580    1.3400 O   0  0  0  0  0  0  0  0  0  0  0  0
    3.3540   -0.8120    0.3680 O   0  0  0  0  0  0  0  0  0  0  0  0
    4.3340    0.1710    0.1020 C   0  0  0  0  0  0  0  0  0  0  0  0
    5.6740   -0.5440    0.3200 C   0  0  0  0  0  0  0  0  0  0  0  0
    6.7680    0.4550    0.1420 C   0  0  0  0  0  0  0  0  0  0  0  0
    7.1220    0.8480   -1.1510 C   0  0  0  0  0  0  0  0  0  0  0  0
    8.1230    1.7930   -1.3200 C   0  0  0  0  0  0  0  0  0  0  0  0
    8.7800    2.3500   -0.2000 C   0  0  0  0  0  0  0  0  0  0  0  0
    8.4210    1.9500    1.0770 C   0  0  0  0  0  0  0  0  0  0  0  0
    7.4100    1.0020    1.2400 C   0  0  0  0  0  0  0  0  0  0  0  0
    9.7480    3.2520   -0.5250 O   0  0  0  0  0  0  0  0  0  0  0  0
   10.3490    3.9430    0.5410 C   0  0  0  0  0  0  0  0  0  0  0  0
    8.5390    2.2520   -2.5250 O   0  0  0  0  0  0  0  0  0  0  0  0
    1.4770   -2.6450   -0.7370 O   0  0  0  0  0  0  0  0  0  0  0  0
   -1.3040   -5.3200    1.7520 O   0  0  0  0  0  0  0  0  0  0  0  0
   -3.4550   -6.4130    0.8050 O   0  0  0  0  0  0  0  0  0  0  0  0
   -2.9700   -6.6050   -1.9360 O   0  0  0  0  0  0  0  0  0  0  0  0
    0.4590   -5.0450   -1.9190 H   0  0  0  0  0  0  0  0  0  0  0  0
   -0.3990   -5.5930   -3.3630 H   0  0  0  0  0  0  0  0  0  0  0  0
   -0.0030   -3.8820   -3.1520 H   0  0  0  0  0  0  0  0  0  0  0  0
   -2.4680   -4.2740   -2.7120 H   0  0  0  0  0  0  0  0  0  0  0  0
   -1.2580   -6.3860   -0.7560 H   0  0  0  0  0  0  0  0  0  0  0  0
   -3.8760   -4.7200   -0.3400 H   0  0  0  0  0  0  0  0  0  0  0  0
   -2.7850   -3.8410    1.6320 H   0  0  0  0  0  0  0  0  0  0  0  0
   -0.1060   -4.1260    0.1150 H   0  0  0  0  0  0  0  0  0  0  0  0
   -0.5840   -1.1610   -0.8760 H   0  0  0  0  0  0  0  0  0  0  0  0
    1.4330   -2.1570    1.3090 H   0  0  0  0  0  0  0  0  0  0  0  0
    1.9600   -0.1280   -1.0630 H   0  0  0  0  0  0  0  0  0  0  0  0
    0.1860    1.3630   -0.2960 H   0  0  0  0  0  0  0  0  0  0  0  0
   -0.4250   -0.4630    2.1900 H   0  0  0  0  0  0  0  0  0  0  0  0
   -5.0310    0.3750    1.5860 H   0  0  0  0  0  0  0  0  0  0  0  0
   -3.1080    2.4690    0.2860 H   0  0  0  0  0  0  0  0  0  0  0  0
   -4.6250    3.1020   -1.7460 H   0  0  0  0  0  0  0  0  0  0  0  0
   -8.1530    3.8640    1.7080 H   0  0  0  0  0  0  0  0  0  0  0  0
   -6.1220    2.5420    2.2540 H   0  0  0  0  0  0  0  0  0  0  0  0
   -8.6430    5.3590   -1.3990 H   0  0  0  0  0  0  0  0  0  0  0  0
   -5.2570    3.9980   -3.8110 H   0  0  0  0  0  0  0  0  0  0  0  0
   -6.1570    5.5110   -4.1250 H   0  0  0  0  0  0  0  0  0  0  0  0
   -4.9490    5.4480   -2.8000 H   0  0  0  0  0  0  0  0  0  0  0  0
   -0.8240    2.5260    1.7700 H   0  0  0  0  0  0  0  0  0  0  0  0
    0.4710    1.8350    2.7930 H   0  0  0  0  0  0  0  0  0  0  0  0
    1.9070    3.0380    1.4350 H   0  0  0  0  0  0  0  0  0  0  0  0
    4.2260    1.0410    0.7870 H   0  0  0  0  0  0  0  0  0  0  0  0
    4.2550    0.5740   -0.9340 H   0  0  0  0  0  0  0  0  0  0  0  0
    5.7900   -1.3940   -0.3860 H   0  0  0  0  0  0  0  0  0  0  0  0
    5.7070   -1.0200    1.3240 H   0  0  0  0  0  0  0  0  0  0  0  0
    6.6130    0.4080   -2.0130 H   0  0  0  0  0  0  0  0  0  0  0  0
    8.9070    2.3530    1.9690 H   0  0  0  0  0  0  0  0  0  0  0  0
    7.1320    0.6960    2.2540 H   0  0  0  0  0  0  0  0  0  0  0  0
   11.0290    4.6460    0.0360 H   0  0  0  0  0  0  0  0  0  0  0  0
   10.9450    3.2890    1.2000 H   0  0  0  0  0  0  0  0  0  0  0  0
    9.6350    4.5180    1.1540 H   0  0  0  0  0  0  0  0  0  0  0  0
    8.0590    1.7740   -3.2120 H   0  0  0  0  0  0  0  0  0  0  0  0
    2.3660   -2.9870   -0.5900 H   0  0  0  0  0  0  0  0  0  0  0  0
   -1.8410   -5.7240    2.4410 H   0  0  0  0  0  0  0  0  0  0  0  0
   -4.0220   -6.9600    0.2510 H   0  0  0  0  0  0  0  0  0  0  0  0
   -2.4170   -7.0170   -2.6070 H   0  0  0  0  0  0  0  0  0  0  0  0
  1 48  1  0
  1 49  1  0
  1  2  1  0
  1 47  1  0
  2 50  1  6
  2  3  1  0
  2  7  1  0
  3 46  1  0
  3 51  1  1
  3  4  1  0
  4 52  1  6
  4 45  1  0
  4  5  1  0
  5  6  1  0
  5 53  1  1
  5 44  1  0
  6  7  1  0
  6 54  1  6
  6  8  1  0
  8  9  1  0
  9 55  1  6
  9 10  1  0
  9 14  1  0
 10 43  1  0
 10 11  1  0
 10 56  1  1
 11 57  1  6
 11 31  1  0
 11 12  1  0
 12 13  1  0
 13 58  1  6
 13 14  1  0
 13 29  1  0
 14 15  1  0
 14 59  1  1
 15 16  1  0
 16 18  1  0
 16 17  2  0
 18 19  2  0
 18 60  1  0
 19 20  1  0
 19 61  1  0
 20 21  2  0
 20 25  1  0
 21 62  1  0
 21 22  1  0
 22 27  1  0
 22 23  2  0
 23 26  1  0
 23 24  1  0
 24 25  2  0
 24 63  1  0
 25 64  1  0
 26 65  1  0
 27 28  1  0
 28 67  1  0
 28 66  1  0
 28 68  1  0
 29 30  1  0
 29 69  1  0
 29 70  1  0
 30 71  1  0
 31 32  1  0
 32 73  1  0
 32 33  1  0
 32 72  1  0
 33 74  1  0
 33 34  1  0
 33 75  1  0
 34 35  2  0
 34 39  1  0
 35 76  1  0
 35 36  1  0
 36 42  1  0
 36 37  2  0
 37 40  1  0
 37 38  1  0
 38 39  2  0
 38 77  1  0
 39 78  1  0
 40 41  1  0
 41 79  1  0
 41 81  1  0
 41 80  1  0
 42 82  1  0
 43 83  1  0
 44 84  1  0
 45 85  1  0
 46 86  1  0
M  END
>  <id>  (950) 
1067

>  <scaffolds>  (950) 
['c1ccccc1', 'C1CCOCC1', 'O=C(C=Cc1ccccc1)OC1COC(OCCc2ccccc2)CC1OC1CCCCO1']

>  <name>  (950) 
Martynoside

>  <formula>  (950) 
C31H40O15

>  <SMILES>  (950) 
C[C@H]1[C@@H]([C@H]([C@H]([C@@H](O1)O[C@@H]2[C@H]([C@@H](O[C@@H]([C@H]2OC(=O)/C=C/C3=CC(=C(C=C3)O)OC)CO)OCCC4=CC(=C(C=C4)OC)O)O)O)O)O

>  <ChEMBL_id>  (950) 
SCHEMBL2158040

>  <ZINC_id>  (950) 
ZINC49889542

>  <PubChem_id>  (950) 
5319292

>  <DrugBank_id>  (950) 


>  <CAS_no>  (950) 
67884-12-2

>  <references>  (950) 
[{'journal': {'name': 'South African Journal of Botany', 'id': 1}, 'title': 'In vitro antimicrobial activity of extracts and an isolated compound from Boscia albitrunca leaves', 'year': 2015, 'start_page': None, 'volume': None, 'issue': None, 'doi': '10.1016/j.sajb.2014.11.005', 'isbn': '', 'despositor': {'code': 'TMM', 'first_name': 'Thommas', 'last_name': 'Musyoka', 'id': 22}, 'refauthors_set': [{'author': {'first_name': 'Pendota', 'initials': 'PS', 'last_name': 'S.', 'id': 1066}, 'first_author': True, 'id': 1647}], 'id': 553}]

>  <classifications>  (950) 
[{'classification': 'Glycoside', 'id': 781}, {'classification': 'Cinnamic acids and derivatives (Classyfire)', 'id': 975}]

>  <molecular_mass>  (950) 
652.6

$$$$
SANC01068_minRM1.pdb
     RDKit          3D

 51 54  0  0  1  0  0  0  0  0999 V2000
    3.8340    1.5510    1.0590 C   0  0  0  0  0  0  0  0  0  0  0  0
    5.0860    2.1350    1.1540 C   0  0  0  0  0  0  0  0  0  0  0  0
    6.0790    1.7450    0.2490 C   0  0  0  0  0  0  0  0  0  0  0  0
    5.8330    0.7890   -0.7380 C   0  0  0  0  0  0  0  0  0  0  0  0
    4.5720    0.2150   -0.8170 C   0  0  0  0  0  0  0  0  0  0  0  0
    3.5740    0.5950    0.0760 C   0  0  0  0  0  0  0  0  0  0  0  0
    2.2530   -0.0080   -0.0060 C   0  0  0  0  0  0  0  0  0  0  0  0
    1.1440    0.7560    0.0220 C   0  0  0  0  0  0  0  0  0  0  0  0
   -0.1280    0.2820   -0.0160 O   0  0  0  0  0  0  0  0  0  0  0  0
   -0.3180   -1.0600   -0.1370 C   0  0  0  0  0  0  0  0  0  0  0  0
    0.7620   -1.9440   -0.1630 C   0  0  0  0  0  0  0  0  0  0  0  0
    2.1260   -1.4550   -0.1070 C   0  0  0  0  0  0  0  0  0  0  0  0
    3.0700   -2.2480   -0.1450 O   0  0  0  0  0  0  0  0  0  0  0  0
    0.5030   -3.3270   -0.2470 C   0  0  0  0  0  0  0  0  0  0  0  0
   -0.8080   -3.8050   -0.2900 C   0  0  0  0  0  0  0  0  0  0  0  0
   -1.8520   -2.8780   -0.2680 C   0  0  0  0  0  0  0  0  0  0  0  0
   -1.6440   -1.4900   -0.2190 C   0  0  0  0  0  0  0  0  0  0  0  0
   -2.7860   -0.5250   -0.2420 C   0  0  1  0  0  0  0  0  0  0  0  0
   -3.0930   -0.0480    1.2020 C   0  0  1  0  0  0  0  0  0  0  0  0
   -4.1740    1.0610    1.1450 C   0  0  2  0  0  0  0  0  0  0  0  0
   -3.6530    2.1790    0.2070 C   0  0  1  0  0  0  0  0  0  0  0  0
   -3.3630    1.5480   -1.1750 C   0  0  2  0  0  0  0  0  0  0  0  0
   -2.3650    0.5690   -1.0240 O   0  0  0  0  0  0  0  0  0  0  0  0
   -2.8000    2.5690   -2.1920 C   0  0  0  0  0  0  0  0  0  0  0  0
   -1.8130    3.3820   -1.6490 O   0  0  0  0  0  0  0  0  0  0  0  0
   -4.6290    3.1440   -0.0290 O   0  0  0  0  0  0  0  0  0  0  0  0
   -4.3350    1.6740    2.3880 O   0  0  0  0  0  0  0  0  0  0  0  0
   -3.5160   -1.0830    2.0250 O   0  0  0  0  0  0  0  0  0  0  0  0
   -3.1420   -3.2790   -0.2860 O   0  0  0  0  0  0  0  0  0  0  0  0
    1.4780   -4.2360   -0.2830 O   0  0  0  0  0  0  0  0  0  0  0  0
    7.2770    2.3610    0.4040 O   0  0  0  0  0  0  0  0  0  0  0  0
    3.0530    1.8370    1.7700 H   0  0  0  0  0  0  0  0  0  0  0  0
    5.3020    2.8830    1.9210 H   0  0  0  0  0  0  0  0  0  0  0  0
    6.6130    0.4860   -1.4410 H   0  0  0  0  0  0  0  0  0  0  0  0
    4.3700   -0.5370   -1.5870 H   0  0  0  0  0  0  0  0  0  0  0  0
    1.0950    1.8510    0.0760 H   0  0  0  0  0  0  0  0  0  0  0  0
   -0.9890   -4.8820   -0.3370 H   0  0  0  0  0  0  0  0  0  0  0  0
   -3.7030   -0.9900   -0.7020 H   0  0  0  0  0  0  0  0  0  0  0  0
   -2.1670    0.3330    1.7070 H   0  0  0  0  0  0  0  0  0  0  0  0
   -5.1540    0.6530    0.7770 H   0  0  0  0  0  0  0  0  0  0  0  0
   -2.7220    2.6260    0.6530 H   0  0  0  0  0  0  0  0  0  0  0  0
   -4.3070    1.1110   -1.6050 H   0  0  0  0  0  0  0  0  0  0  0  0
   -3.6480    3.1490   -2.6270 H   0  0  0  0  0  0  0  0  0  0  0  0
   -2.2990    2.0470   -3.0380 H   0  0  0  0  0  0  0  0  0  0  0  0
   -2.2480    4.0610   -1.1230 H   0  0  0  0  0  0  0  0  0  0  0  0
   -4.8810    3.5250    0.8190 H   0  0  0  0  0  0  0  0  0  0  0  0
   -4.4970    0.9860    3.0420 H   0  0  0  0  0  0  0  0  0  0  0  0
   -4.1550   -1.6240    1.5470 H   0  0  0  0  0  0  0  0  0  0  0  0
   -3.1800   -4.2410   -0.3590 H   0  0  0  0  0  0  0  0  0  0  0  0
    2.3700   -3.8000   -0.2380 H   0  0  0  0  0  0  0  0  0  0  0  0
    7.8970    2.0040   -0.2420 H   0  0  0  0  0  0  0  0  0  0  0  0
  1  6  2  0
  1  2  1  0
  1 32  1  0
  2  3  2  0
  2 33  1  0
  3  4  1  0
  3 31  1  0
  4 34  1  0
  4  5  2  0
  5 35  1  0
  5  6  1  0
  6  7  1  0
  7 12  1  0
  7  8  2  0
  8  9  1  0
  8 36  1  0
  9 10  1  0
 10 17  2  0
 10 11  1  0
 11 14  2  0
 11 12  1  0
 12 13  2  0
 14 15  1  0
 14 30  1  0
 15 37  1  0
 15 16  2  0
 16 29  1  0
 16 17  1  0
 17 18  1  0
 18 23  1  0
 18 38  1  6
 18 19  1  0
 19 20  1  0
 19 39  1  1
 19 28  1  0
 20 21  1  0
 20 40  1  6
 20 27  1  0
 21 22  1  0
 21 26  1  0
 21 41  1  1
 22 24  1  0
 22 42  1  6
 22 23  1  0
 24 44  1  0
 24 43  1  0
 24 25  1  0
 25 45  1  0
 26 46  1  0
 27 47  1  0
 28 48  1  0
 29 49  1  0
 30 50  1  0
 31 51  1  0
M  END
>  <id>  (951) 
1068

>  <scaffolds>  (951) 
['c1ccccc1', 'O=c1c(-c2ccccc2)coc2ccccc12', 'C1CCOCC1', 'O=c1ccoc2ccccc12', 'O=c1ccoc2c(C3CCCCO3)cccc12', 'O=c1c(-c2ccccc2)coc2c(C3CCCCO3)cccc12']

>  <name>  (951) 
Genistein 8-c-glucoside

>  <formula>  (951) 
C21H20O10

>  <SMILES>  (951) 
C1=CC(=CC=C1C2=COC3=C(C2=O)C(=CC(=C3[C@H]4[C@@H]([C@H]([C@@H]([C@H](O4)CO)O)O)O)O)O)O

>  <ChEMBL_id>  (951) 
SCHEMBL15241300

>  <ZINC_id>  (951) 


>  <PubChem_id>  (951) 
5281757

>  <DrugBank_id>  (951) 


>  <CAS_no>  (951) 
66026-80-0

>  <references>  (951) 
[{'journal': {'name': 'South African Journal of Botany', 'id': 1}, 'title': 'The major phenolic compound of the roots and leaves of Rafnia amplexicaulis (Fabaceae), a liquorice substitute and traditional tea used in Cape Herbal Medicine', 'year': 2015, 'start_page': None, 'volume': None, 'issue': None, 'doi': '10.1016/j.sajb.2015.05.014', 'isbn': '', 'despositor': {'code': 'TMM', 'first_name': 'Thommas', 'last_name': 'Musyoka', 'id': 22}, 'refauthors_set': [{'author': {'first_name': 'Kinfe', 'initials': 'KH', 'last_name': 'H.', 'id': 1067}, 'first_author': True, 'id': 1648}], 'id': 554}]

>  <classifications>  (951) 
[{'classification': 'Glucoside', 'id': 881}, {'classification': 'Isoflavonoids (Classyfire)', 'id': 963}]

>  <molecular_mass>  (951) 
432.4

$$$$
SANC01072_minRM1.pdb
     RDKit          3D

 46 45  0  0  0  0  0  0  0  0999 V2000
   -9.6550   -1.4720   -0.2240 C   0  0  0  0  0  0  0  0  0  0  0  0
   -8.6020   -1.8650    0.7990 C   0  0  0  0  0  0  0  0  0  0  0  0
   -7.4500   -0.8650    0.8520 C   0  0  0  0  0  0  0  0  0  0  0  0
   -6.6700   -0.8220   -0.4610 C   0  0  0  0  0  0  0  0  0  0  0  0
   -5.4480    0.0150   -0.2980 C   0  0  0  0  0  0  0  0  0  0  0  0
   -4.2330   -0.4140   -0.6530 C   0  0  0  0  0  0  0  0  0  0  0  0
   -3.0970    0.3990   -0.4990 C   0  0  0  0  0  0  0  0  0  0  0  0
   -2.1310    1.0740   -0.3690 C   0  0  0  0  0  0  0  0  0  0  0  0
   -1.0270    1.8470   -0.2150 C   0  0  0  0  0  0  0  0  0  0  0  0
   -0.0660    2.5240   -0.0780 C   0  0  0  0  0  0  0  0  0  0  0  0
    1.0900    3.3550    0.0890 C   0  0  0  0  0  0  0  0  0  0  0  0
    2.1050    2.7040    1.0300 C   0  0  0  0  0  0  0  0  0  0  0  0
    2.5960    1.3530    0.5200 C   0  0  0  0  0  0  0  0  0  0  0  0
    3.4910    1.4970   -0.7070 C   0  0  0  0  0  0  0  0  0  0  0  0
    4.0630    0.1520   -1.1540 C   0  0  0  0  0  0  0  0  0  0  0  0
    5.1800   -0.3260   -0.2290 C   0  0  0  0  0  0  0  0  0  0  0  0
    5.7590   -1.6450   -0.7390 C   0  0  0  0  0  0  0  0  0  0  0  0
    6.8440   -2.1120    0.1970 C   0  0  0  0  0  0  0  0  0  0  0  0
    6.7490   -3.0320    0.9870 O   0  0  0  0  0  0  0  0  0  0  0  0
    8.0410   -1.4750    0.1980 O   0  0  0  0  0  0  0  0  0  0  0  0
  -10.5540   -2.1010   -0.1430 H   0  0  0  0  0  0  0  0  0  0  0  0
   -9.3010   -1.5770   -1.2590 H   0  0  0  0  0  0  0  0  0  0  0  0
   -9.9880   -0.4310   -0.1040 H   0  0  0  0  0  0  0  0  0  0  0  0
   -9.0670   -1.9460    1.8050 H   0  0  0  0  0  0  0  0  0  0  0  0
   -8.2230   -2.8870    0.5880 H   0  0  0  0  0  0  0  0  0  0  0  0
   -7.8280    0.1470    1.1100 H   0  0  0  0  0  0  0  0  0  0  0  0
   -6.7660   -1.1290    1.6870 H   0  0  0  0  0  0  0  0  0  0  0  0
   -7.2870   -0.3910   -1.2800 H   0  0  0  0  0  0  0  0  0  0  0  0
   -6.4290   -1.8510   -0.8050 H   0  0  0  0  0  0  0  0  0  0  0  0
   -5.6020    1.0140    0.1250 H   0  0  0  0  0  0  0  0  0  0  0  0
   -4.0440   -1.4070   -1.0780 H   0  0  0  0  0  0  0  0  0  0  0  0
    1.5370    3.5820   -0.9050 H   0  0  0  0  0  0  0  0  0  0  0  0
    0.7720    4.3460    0.4860 H   0  0  0  0  0  0  0  0  0  0  0  0
    1.6490    2.5810    2.0370 H   0  0  0  0  0  0  0  0  0  0  0  0
    2.9580    3.3950    1.1950 H   0  0  0  0  0  0  0  0  0  0  0  0
    3.1410    0.8340    1.3380 H   0  0  0  0  0  0  0  0  0  0  0  0
    1.7360    0.6860    0.2970 H   0  0  0  0  0  0  0  0  0  0  0  0
    2.9180    1.9420   -1.5480 H   0  0  0  0  0  0  0  0  0  0  0  0
    4.3090    2.2230   -0.5150 H   0  0  0  0  0  0  0  0  0  0  0  0
    3.2570   -0.6100   -1.2180 H   0  0  0  0  0  0  0  0  0  0  0  0
    4.4460    0.2380   -2.1940 H   0  0  0  0  0  0  0  0  0  0  0  0
    4.8070   -0.4570    0.8090 H   0  0  0  0  0  0  0  0  0  0  0  0
    5.9730    0.4470   -0.1490 H   0  0  0  0  0  0  0  0  0  0  0  0
    4.9690   -2.4230   -0.8070 H   0  0  0  0  0  0  0  0  0  0  0  0
    6.1480   -1.5520   -1.7750 H   0  0  0  0  0  0  0  0  0  0  0  0
    8.0470   -0.7660   -0.4520 H   0  0  0  0  0  0  0  0  0  0  0  0
  1 22  1  0
  1 21  1  0
  1 23  1  0
  1  2  1  0
  2 25  1  0
  2  3  1  0
  2 24  1  0
  3  4  1  0
  3 26  1  0
  3 27  1  0
  4 28  1  0
  4 29  1  0
  4  5  1  0
  5  6  2  0
  5 30  1  0
  6 31  1  0
  6  7  1  0
  7  8  3  0
  8  9  1  0
  9 10  3  0
 10 11  1  0
 11 32  1  0
 11 33  1  0
 11 12  1  0
 12 13  1  0
 12 35  1  0
 12 34  1  0
 13 14  1  0
 13 37  1  0
 13 36  1  0
 14 38  1  0
 14 15  1  0
 14 39  1  0
 15 41  1  0
 15 40  1  0
 15 16  1  0
 16 17  1  0
 16 43  1  0
 16 42  1  0
 17 45  1  0
 17 44  1  0
 17 18  1  0
 18 20  1  0
 18 19  2  0
 20 46  1  0
M  END
>  <id>  (952) 
1072

>  <scaffolds>  (952) 
[]

>  <name>  (952) 
Exocarpic acid

>  <formula>  (952) 
C18H26O2

>  <SMILES>  (952) 
CCCCC=CC#CC#CCCCCCCCC(=O)O

>  <ChEMBL_id>  (952) 


>  <ZINC_id>  (952) 


>  <PubChem_id>  (952) 
53635328

>  <DrugBank_id>  (952) 


>  <CAS_no>  (952) 
13089-73-1

>  <references>  (952) 
[{'journal': {'name': 'South African Journal of Botany', 'id': 1}, 'title': 'Identification of compounds in Olax dissitiflora with larvacidal effect against Anopheles arabiensis', 'year': 2016, 'start_page': None, 'volume': None, 'issue': None, 'doi': '10.1016/j.sajb.2015.06.013', 'isbn': '', 'despositor': {'code': 'TMM', 'first_name': 'Thommas', 'last_name': 'Musyoka', 'id': 22}, 'refauthors_set': [{'author': {'first_name': 'Mavundza', 'initials': 'ME', 'last_name': 'E.', 'id': 1069}, 'first_author': True, 'id': 1650}], 'id': 556}]

>  <classifications>  (952) 
[{'classification': 'Fatty Acids', 'id': 880}, {'classification': 'Fatty Acyls (Classyfire)', 'id': 957}]

>  <molecular_mass>  (952) 
274.4

$$$$
SANC01073_minRM1.pdb
     RDKit          3D

 50 49  0  0  0  0  0  0  0  0999 V2000
   -9.2030   -1.4630   -0.7670 C   0  0  0  0  0  0  0  0  0  0  0  0
   -8.4410   -1.8810    0.4790 C   0  0  0  0  0  0  0  0  0  0  0  0
   -7.3630   -0.8720    0.8630 C   0  0  0  0  0  0  0  0  0  0  0  0
   -6.2640   -0.7780   -0.1910 C   0  0  0  0  0  0  0  0  0  0  0  0
   -5.1160    0.1000    0.3050 C   0  0  0  0  0  0  0  0  0  0  0  0
   -4.0330    0.2290   -0.7660 C   0  0  0  0  0  0  0  0  0  0  0  0
   -2.9210    1.0880   -0.2700 C   0  0  0  0  0  0  0  0  0  0  0  0
   -1.6490    0.6810   -0.2610 C   0  0  0  0  0  0  0  0  0  0  0  0
   -0.6140    1.5170    0.1970 C   0  0  0  0  0  0  0  0  0  0  0  0
    0.2660    2.2080    0.5780 C   0  0  0  0  0  0  0  0  0  0  0  0
    1.3150    3.0680    1.0460 C   0  0  0  0  0  0  0  0  0  0  0  0
    2.4940    3.0990    0.0690 C   0  0  0  0  0  0  0  0  0  0  0  0
    3.4520    1.9280    0.2700 C   0  0  0  0  0  0  0  0  0  0  0  0
    2.7600    0.5840    0.0760 C   0  0  0  0  0  0  0  0  0  0  0  0
    3.7640   -0.5680    0.0340 C   0  0  0  0  0  0  0  0  0  0  0  0
    4.4990   -0.6330   -1.3010 C   0  0  0  0  0  0  0  0  0  0  0  0
    5.3630   -1.8880   -1.4010 C   0  0  0  0  0  0  0  0  0  0  0  0
    6.4420   -1.8340   -0.3510 C   0  0  0  0  0  0  0  0  0  0  0  0
    7.4970   -1.2390   -0.4640 O   0  0  0  0  0  0  0  0  0  0  0  0
    6.2720   -2.4810    0.8290 O   0  0  0  0  0  0  0  0  0  0  0  0
   -9.5670   -0.4270   -0.7080 H   0  0  0  0  0  0  0  0  0  0  0  0
  -10.0850   -2.0970   -0.9370 H   0  0  0  0  0  0  0  0  0  0  0  0
   -8.5950   -1.5350   -1.6810 H   0  0  0  0  0  0  0  0  0  0  0  0
   -9.1490   -2.0070    1.3270 H   0  0  0  0  0  0  0  0  0  0  0  0
   -7.9990   -2.8900    0.3380 H   0  0  0  0  0  0  0  0  0  0  0  0
   -7.8150    0.1280    1.0390 H   0  0  0  0  0  0  0  0  0  0  0  0
   -6.9270   -1.1560    1.8460 H   0  0  0  0  0  0  0  0  0  0  0  0
   -5.8900   -1.7900   -0.4540 H   0  0  0  0  0  0  0  0  0  0  0  0
   -6.6680   -0.3700   -1.1410 H   0  0  0  0  0  0  0  0  0  0  0  0
   -4.6790   -0.3170    1.2370 H   0  0  0  0  0  0  0  0  0  0  0  0
   -5.4950    1.1020    0.5960 H   0  0  0  0  0  0  0  0  0  0  0  0
   -4.4480    0.6770   -1.6950 H   0  0  0  0  0  0  0  0  0  0  0  0
   -3.6770   -0.7760   -1.0790 H   0  0  0  0  0  0  0  0  0  0  0  0
   -3.2060    2.0850    0.0820 H   0  0  0  0  0  0  0  0  0  0  0  0
   -1.3330   -0.3110   -0.6040 H   0  0  0  0  0  0  0  0  0  0  0  0
    1.6390    2.7520    2.0620 H   0  0  0  0  0  0  0  0  0  0  0  0
    0.8980    4.0910    1.1860 H   0  0  0  0  0  0  0  0  0  0  0  0
    2.1280    3.1300   -0.9790 H   0  0  0  0  0  0  0  0  0  0  0  0
    3.0500    4.0530    0.1950 H   0  0  0  0  0  0  0  0  0  0  0  0
    3.9170    1.9780    1.2780 H   0  0  0  0  0  0  0  0  0  0  0  0
    4.3070    2.0380   -0.4300 H   0  0  0  0  0  0  0  0  0  0  0  0
    2.1320    0.5920   -0.8400 H   0  0  0  0  0  0  0  0  0  0  0  0
    2.0380    0.4060    0.9020 H   0  0  0  0  0  0  0  0  0  0  0  0
    3.2320   -1.5270    0.2190 H   0  0  0  0  0  0  0  0  0  0  0  0
    4.4820   -0.4760    0.8760 H   0  0  0  0  0  0  0  0  0  0  0  0
    3.7780   -0.6200   -2.1460 H   0  0  0  0  0  0  0  0  0  0  0  0
    5.1280    0.2690   -1.4560 H   0  0  0  0  0  0  0  0  0  0  0  0
    5.8400   -1.9530   -2.4040 H   0  0  0  0  0  0  0  0  0  0  0  0
    4.7510   -2.8110   -1.3320 H   0  0  0  0  0  0  0  0  0  0  0  0
    5.3980   -2.8820    0.8720 H   0  0  0  0  0  0  0  0  0  0  0  0
  1 23  1  0
  1 22  1  0
  1 21  1  0
  1  2  1  0
  2 25  1  0
  2  3  1  0
  2 24  1  0
  3  4  1  0
  3 26  1  0
  3 27  1  0
  4 29  1  0
  4 28  1  0
  4  5  1  0
  5  6  1  0
  5 31  1  0
  5 30  1  0
  6 32  1  0
  6 33  1  0
  6  7  1  0
  7  8  2  0
  7 34  1  0
  8 35  1  0
  8  9  1  0
  9 10  3  0
 10 11  1  0
 11 12  1  0
 11 37  1  0
 11 36  1  0
 12 38  1  0
 12 39  1  0
 12 13  1  0
 13 41  1  0
 13 14  1  0
 13 40  1  0
 14 42  1  0
 14 15  1  0
 14 43  1  0
 15 16  1  0
 15 44  1  0
 15 45  1  0
 16 46  1  0
 16 47  1  0
 16 17  1  0
 17 48  1  0
 17 49  1  0
 17 18  1  0
 18 19  2  0
 18 20  1  0
 20 50  1  0
M  END
>  <id>  (953) 
1073

>  <scaffolds>  (953) 
[]

>  <name>  (953) 
Ximenynic acid

>  <formula>  (953) 
C18H30O2

>  <SMILES>  (953) 
CCCCCC/C=C/C#CCCCCCCCC(=O)O

>  <ChEMBL_id>  (953) 
CHEMBL1967321

>  <ZINC_id>  (953) 
ZINC1556943

>  <PubChem_id>  (953) 
5312688

>  <DrugBank_id>  (953) 


>  <CAS_no>  (953) 
557-58-4

>  <references>  (953) 
[{'journal': {'name': 'South African Journal of Botany', 'id': 1}, 'title': 'Identification of compounds in Olax dissitiflora with larvacidal effect against Anopheles arabiensis', 'year': 2016, 'start_page': None, 'volume': None, 'issue': None, 'doi': '10.1016/j.sajb.2015.06.013', 'isbn': '', 'despositor': {'code': 'TMM', 'first_name': 'Thommas', 'last_name': 'Musyoka', 'id': 22}, 'refauthors_set': [{'author': {'first_name': 'Mavundza', 'initials': 'ME', 'last_name': 'E.', 'id': 1069}, 'first_author': True, 'id': 1650}], 'id': 556}]

>  <classifications>  (953) 
[{'classification': 'Fatty Acids', 'id': 880}, {'classification': 'Fatty Acyls (Classyfire)', 'id': 957}]

>  <molecular_mass>  (953) 
278.4

$$$$
SANC01074_minRM1.pdb
     RDKit          3D

108108  0  0  0  0  0  0  0  0999 V2000
   17.0890    1.4180    0.5070 C   0  0  0  0  0  0  0  0  0  0  0  0
   16.6790    1.9100   -0.8700 C   0  0  0  0  0  0  0  0  0  0  0  0
   15.6360    3.0210   -0.8010 C   0  0  0  0  0  0  0  0  0  0  0  0
   14.3440    2.6140   -0.0980 C   0  0  0  0  0  0  0  0  0  0  0  0
   13.6050    1.5050   -0.8420 C   0  0  0  0  0  0  0  0  0  0  0  0
   12.2390    1.2150   -0.2180 C   0  0  0  0  0  0  0  0  0  0  0  0
   12.3540    0.2840    0.9870 C   0  0  0  0  0  0  0  0  0  0  0  0
   11.1320    0.3630    1.8970 C   0  0  0  0  0  0  0  0  0  0  0  0
    9.8230   -0.0230    1.2130 C   0  0  0  0  0  0  0  0  0  0  0  0
    9.7940   -1.4950    0.8120 C   0  0  0  0  0  0  0  0  0  0  0  0
    8.3860   -1.9590    0.4400 C   0  0  0  0  0  0  0  0  0  0  0  0
    7.9440   -1.4170   -0.9150 C   0  0  0  0  0  0  0  0  0  0  0  0
    6.5220   -1.8530   -1.2650 C   0  0  0  0  0  0  0  0  0  0  0  0
    5.4680   -1.0550   -0.4990 C   0  0  0  0  0  0  0  0  0  0  0  0
    5.4610    0.4060   -0.9360 C   0  0  0  0  0  0  0  0  0  0  0  0
    4.6510    1.2980    0.0030 C   0  0  0  0  0  0  0  0  0  0  0  0
    3.1470    1.0260   -0.0370 C   0  0  0  0  0  0  0  0  0  0  0  0
    2.6780    0.1050    1.0890 C   0  0  0  0  0  0  0  0  0  0  0  0
    1.1500    0.0140    1.1270 C   0  0  0  0  0  0  0  0  0  0  0  0
    0.6810   -1.3780    1.5500 C   0  0  0  0  0  0  0  0  0  0  0  0
    0.8190   -2.3970    0.4160 C   0  0  0  0  0  0  0  0  0  0  0  0
   -0.5270   -2.8220   -0.1700 C   0  0  0  0  0  0  0  0  0  0  0  0
   -1.2730   -1.6560   -0.8110 C   0  0  0  0  0  0  0  0  0  0  0  0
   -2.4080   -2.1190   -1.7230 C   0  0  0  0  0  0  0  0  0  0  0  0
   -3.3900   -3.0840   -1.0690 C   0  0  0  0  0  0  0  0  0  0  0  0
   -4.1070   -2.5120    0.1490 C   0  0  0  0  0  0  0  0  0  0  0  0
   -5.0930   -1.3960   -0.1840 C   0  0  0  0  0  0  0  0  0  0  0  0
   -6.1860   -1.8930   -1.1320 C   0  0  0  0  0  0  0  0  0  0  0  0
   -7.3090   -1.0360   -1.0990 O   0  0  0  0  0  0  0  0  0  0  0  0
   -8.1840   -1.1680   -0.0680 C   0  0  0  0  0  0  0  0  0  0  0  0
   -7.9470   -1.9360    0.8520 O   0  0  0  0  0  0  0  0  0  0  0  0
   -9.3750   -0.3270   -0.2380 C   0  0  0  0  0  0  0  0  0  0  0  0
  -10.3820   -0.4370    0.6350 C   0  0  0  0  0  0  0  0  0  0  0  0
  -11.6230    0.3180    0.5140 C   0  0  0  0  0  0  0  0  0  0  0  0
  -11.6260    1.6230    0.0210 C   0  0  0  0  0  0  0  0  0  0  0  0
  -12.8320    2.3020   -0.0860 C   0  0  0  0  0  0  0  0  0  0  0  0
  -14.0360    1.6840    0.3040 C   0  0  0  0  0  0  0  0  0  0  0  0
  -14.0210    0.3800    0.8010 C   0  0  0  0  0  0  0  0  0  0  0  0
  -12.8130   -0.2930    0.9070 C   0  0  0  0  0  0  0  0  0  0  0  0
  -15.2570    2.2610    0.2310 O   0  0  0  0  0  0  0  0  0  0  0  0
  -12.9930    3.5650   -0.5870 O   0  0  0  0  0  0  0  0  0  0  0  0
  -11.8320    4.3370   -0.7580 C   0  0  0  0  0  0  0  0  0  0  0  0
   16.3050    0.8190    0.9930 H   0  0  0  0  0  0  0  0  0  0  0  0
   17.9800    0.7750    0.4620 H   0  0  0  0  0  0  0  0  0  0  0  0
   17.3310    2.2430    1.1920 H   0  0  0  0  0  0  0  0  0  0  0  0
   17.5730    2.2830   -1.4160 H   0  0  0  0  0  0  0  0  0  0  0  0
   16.3200    1.0640   -1.4920 H   0  0  0  0  0  0  0  0  0  0  0  0
   15.4100    3.3830   -1.8270 H   0  0  0  0  0  0  0  0  0  0  0  0
   16.0700    3.9070   -0.2880 H   0  0  0  0  0  0  0  0  0  0  0  0
   14.5440    2.3230    0.9540 H   0  0  0  0  0  0  0  0  0  0  0  0
   13.6900    3.5090   -0.0060 H   0  0  0  0  0  0  0  0  0  0  0  0
   14.2120    0.5760   -0.8760 H   0  0  0  0  0  0  0  0  0  0  0  0
   13.4770    1.7920   -1.9080 H   0  0  0  0  0  0  0  0  0  0  0  0
   11.7270    2.1610    0.0570 H   0  0  0  0  0  0  0  0  0  0  0  0
   11.5730    0.7580   -0.9820 H   0  0  0  0  0  0  0  0  0  0  0  0
   12.5330   -0.7580    0.6510 H   0  0  0  0  0  0  0  0  0  0  0  0
   13.2600    0.5270    1.5840 H   0  0  0  0  0  0  0  0  0  0  0  0
   11.0430    1.3900    2.3130 H   0  0  0  0  0  0  0  0  0  0  0  0
   11.2950   -0.2760    2.7920 H   0  0  0  0  0  0  0  0  0  0  0  0
    9.6330    0.6290    0.3370 H   0  0  0  0  0  0  0  0  0  0  0  0
    8.9800    0.2020    1.9030 H   0  0  0  0  0  0  0  0  0  0  0  0
   10.4960   -1.6880   -0.0260 H   0  0  0  0  0  0  0  0  0  0  0  0
   10.1770   -2.1240    1.6450 H   0  0  0  0  0  0  0  0  0  0  0  0
    8.3530   -3.0700    0.4280 H   0  0  0  0  0  0  0  0  0  0  0  0
    7.6650   -1.6760    1.2360 H   0  0  0  0  0  0  0  0  0  0  0  0
    8.0120   -0.3070   -0.9460 H   0  0  0  0  0  0  0  0  0  0  0  0
    8.6470   -1.7610   -1.7040 H   0  0  0  0  0  0  0  0  0  0  0  0
    6.3900   -2.9390   -1.0750 H   0  0  0  0  0  0  0  0  0  0  0  0
    6.3520   -1.7460   -2.3580 H   0  0  0  0  0  0  0  0  0  0  0  0
    4.4670   -1.5080   -0.6630 H   0  0  0  0  0  0  0  0  0  0  0  0
    5.6380   -1.1380    0.5950 H   0  0  0  0  0  0  0  0  0  0  0  0
    6.5090    0.7860   -0.9880 H   0  0  0  0  0  0  0  0  0  0  0  0
    5.0870    0.4940   -1.9780 H   0  0  0  0  0  0  0  0  0  0  0  0
    5.0460    1.2250    1.0380 H   0  0  0  0  0  0  0  0  0  0  0  0
    4.8360    2.3590   -0.2750 H   0  0  0  0  0  0  0  0  0  0  0  0
    2.5960    1.9900    0.0270 H   0  0  0  0  0  0  0  0  0  0  0  0
    2.8490    0.6070   -1.0210 H   0  0  0  0  0  0  0  0  0  0  0  0
    3.0540    0.4620    2.0710 H   0  0  0  0  0  0  0  0  0  0  0  0
    3.1390   -0.8980    0.9800 H   0  0  0  0  0  0  0  0  0  0  0  0
    0.7470    0.7810    1.8230 H   0  0  0  0  0  0  0  0  0  0  0  0
    0.6960    0.2860    0.1510 H   0  0  0  0  0  0  0  0  0  0  0  0
   -0.3640   -1.3310    1.9220 H   0  0  0  0  0  0  0  0  0  0  0  0
    1.2530   -1.7120    2.4420 H   0  0  0  0  0  0  0  0  0  0  0  0
    1.4810   -2.0200   -0.3920 H   0  0  0  0  0  0  0  0  0  0  0  0
    1.3500   -3.3010    0.7870 H   0  0  0  0  0  0  0  0  0  0  0  0
   -0.3620   -3.6270   -0.9190 H   0  0  0  0  0  0  0  0  0  0  0  0
   -1.1470   -3.2980    0.6200 H   0  0  0  0  0  0  0  0  0  0  0  0
   -1.6550   -0.9580   -0.0370 H   0  0  0  0  0  0  0  0  0  0  0  0
   -0.5700   -1.0360   -1.4100 H   0  0  0  0  0  0  0  0  0  0  0  0
   -1.9780   -2.6020   -2.6290 H   0  0  0  0  0  0  0  0  0  0  0  0
   -2.9470   -1.2340   -2.1220 H   0  0  0  0  0  0  0  0  0  0  0  0
   -2.8710   -4.0250   -0.7840 H   0  0  0  0  0  0  0  0  0  0  0  0
   -4.1270   -3.4260   -1.8290 H   0  0  0  0  0  0  0  0  0  0  0  0
   -4.6420   -3.3310    0.6800 H   0  0  0  0  0  0  0  0  0  0  0  0
   -3.3730   -2.1480    0.8990 H   0  0  0  0  0  0  0  0  0  0  0  0
   -5.5350   -1.0070    0.7580 H   0  0  0  0  0  0  0  0  0  0  0  0
   -4.5750   -0.5170   -0.6190 H   0  0  0  0  0  0  0  0  0  0  0  0
   -5.8800   -1.8310   -2.1990 H   0  0  0  0  0  0  0  0  0  0  0  0
   -6.4680   -2.9520   -0.9360 H   0  0  0  0  0  0  0  0  0  0  0  0
   -9.3930    0.3400   -1.1060 H   0  0  0  0  0  0  0  0  0  0  0  0
  -10.3250   -1.1320    1.4850 H   0  0  0  0  0  0  0  0  0  0  0  0
  -10.6810    2.0930   -0.2610 H   0  0  0  0  0  0  0  0  0  0  0  0
  -14.9570   -0.1000    1.1040 H   0  0  0  0  0  0  0  0  0  0  0  0
  -12.8040   -1.3160    1.2960 H   0  0  0  0  0  0  0  0  0  0  0  0
  -15.1790    3.1680   -0.0850 H   0  0  0  0  0  0  0  0  0  0  0  0
  -11.2260    4.4370    0.1570 H   0  0  0  0  0  0  0  0  0  0  0  0
  -12.2240    5.3280   -1.0350 H   0  0  0  0  0  0  0  0  0  0  0  0
  -11.1940    3.9690   -1.5790 H   0  0  0  0  0  0  0  0  0  0  0  0
  1  2  1  0
  1 44  1  0
  1 43  1  0
  1 45  1  0
  2 47  1  0
  2 46  1  0
  2  3  1  0
  3 48  1  0
  3 49  1  0
  3  4  1  0
  4  5  1  0
  4 51  1  0
  4 50  1  0
  5 53  1  0
  5 52  1  0
  5  6  1  0
  6 55  1  0
  6 54  1  0
  6  7  1  0
  7 56  1  0
  7 57  1  0
  7  8  1  0
  8  9  1  0
  8 58  1  0
  8 59  1  0
  9 60  1  0
  9 10  1  0
  9 61  1  0
 10 62  1  0
 10 11  1  0
 10 63  1  0
 11 12  1  0
 11 64  1  0
 11 65  1  0
 12 67  1  0
 12 13  1  0
 12 66  1  0
 13 69  1  0
 13 68  1  0
 13 14  1  0
 14 15  1  0
 14 70  1  0
 14 71  1  0
 15 73  1  0
 15 72  1  0
 15 16  1  0
 16 75  1  0
 16 17  1  0
 16 74  1  0
 17 77  1  0
 17 76  1  0
 17 18  1  0
 18 79  1  0
 18 19  1  0
 18 78  1  0
 19 81  1  0
 19 20  1  0
 19 80  1  0
 20 21  1  0
 20 82  1  0
 20 83  1  0
 21 84  1  0
 21 22  1  0
 21 85  1  0
 22 86  1  0
 22 23  1  0
 22 87  1  0
 23 24  1  0
 23 89  1  0
 23 88  1  0
 24 90  1  0
 24 91  1  0
 24 25  1  0
 25 93  1  0
 25 92  1  0
 25 26  1  0
 26 27  1  0
 26 94  1  0
 26 95  1  0
 27 28  1  0
 27 97  1  0
 27 96  1  0
 28 98  1  0
 28 29  1  0
 28 99  1  0
 29 30  1  0
 30 32  1  0
 30 31  2  0
 32100  1  0
 32 33  2  0
 33 34  1  0
 33101  1  0
 34 35  2  0
 34 39  1  0
 35102  1  0
 35 36  1  0
 36 41  1  0
 36 37  2  0
 37 40  1  0
 37 38  1  0
 38 39  2  0
 38103  1  0
 39104  1  0
 40105  1  0
 41 42  1  0
 42108  1  0
 42107  1  0
 42106  1  0
M  END
>  <id>  (954) 
1074

>  <scaffolds>  (954) 
['c1ccccc1']

>  <name>  (954) 
erythrinasinate B

>  <formula>  (954) 
C38H66O4

>  <SMILES>  (954) 
CCCCCCCCCCCCCCCCCCCCCCCCCCCCOC(=O)/C=C/C1=CC(=C(C=C1)O)OC

>  <ChEMBL_id>  (954) 


>  <ZINC_id>  (954) 
ZINC95485926

>  <PubChem_id>  (954) 
5743442

>  <DrugBank_id>  (954) 


>  <CAS_no>  (954) 
101959-37-9

>  <references>  (954) 
[{'journal': {'name': 'South African Journal of Botany', 'id': 1}, 'title': 'Antiplasmodial activity of compounds isolated from Erythrina caffra', 'year': 2016, 'start_page': None, 'volume': None, 'issue': None, 'doi': '10.1016/j.sajb.2016.05.019', 'isbn': '', 'despositor': {'code': 'TMM', 'first_name': 'Thommas', 'last_name': 'Musyoka', 'id': 22}, 'refauthors_set': [{'author': {'first_name': 'Jude', 'initials': 'J', 'last_name': 'Chukwujekwu', 'id': 487}, 'first_author': True, 'id': 1651}], 'id': 557}]

>  <classifications>  (954) 
[{'classification': 'Cinnamic acids and derivatives', 'id': 934}, {'classification': 'Cinnamic acids and derivatives (Classyfire)', 'id': 975}]

>  <molecular_mass>  (954) 
586.9

$$$$
SANC01075_minRM1.pdb
     RDKit          3D

 49 51  0  0  1  0  0  0  0  0999 V2000
   -4.3800   -0.1140   -2.6380 C   0  0  0  0  0  0  0  0  0  0  0  0
   -4.8770   -0.4030   -1.2730 C   0  0  0  0  0  0  0  0  0  0  0  0
   -4.0940   -0.4920   -0.1930 C   0  0  0  0  0  0  0  0  0  0  0  0
   -4.6260   -0.7850    1.1630 C   0  0  0  0  0  0  0  0  0  0  0  0
   -2.6350   -0.3130   -0.2990 C   0  0  0  0  0  0  0  0  0  0  0  0
   -1.9270   -0.6330   -1.2350 O   0  0  0  0  0  0  0  0  0  0  0  0
   -2.1270    0.3190    0.7900 O   0  0  0  0  0  0  0  0  0  0  0  0
   -0.7530    0.3780    1.0890 C   0  0  1  0  0  0  0  0  0  0  0  0
   -0.2660   -0.9700    1.6630 C   0  0  0  0  0  0  0  0  0  0  0  0
    0.3480   -2.0610    0.7750 C   0  0  2  0  0  0  0  0  0  0  0  0
    1.5620   -2.6790    1.5200 C   0  0  0  0  0  0  0  0  0  0  0  0
    1.5020   -3.4600    2.4370 O   0  0  0  0  0  0  0  0  0  0  0  0
    2.7320   -2.0570    0.8870 C   0  0  0  0  0  0  0  0  0  0  0  0
    2.2680   -1.3110   -0.1370 C   0  0  0  0  0  0  0  0  0  0  0  0
    0.9240   -1.4570   -0.3720 O   0  0  0  0  0  0  0  0  0  0  0  0
    2.8650   -0.2560   -0.9410 C   0  0  0  0  0  0  0  0  0  0  0  0
    2.4980    1.0040   -0.6920 C   0  0  0  0  0  0  0  0  0  0  0  0
    1.5410    1.3270    0.4250 C   0  0  2  0  0  0  0  0  0  0  0  0
    0.0590    1.0960   -0.0050 C   0  0  2  0  0  0  0  0  0  0  0  0
   -0.4490    2.4960   -0.1590 C   0  0  0  0  0  0  0  0  0  0  0  0
   -1.5940    2.9080   -0.6820 C   0  0  0  0  0  0  0  0  0  0  0  0
    0.5870    3.4040    0.3600 C   0  0  0  0  0  0  0  0  0  0  0  0
    0.6010    4.6050    0.5030 O   0  0  0  0  0  0  0  0  0  0  0  0
    1.6960    2.6980    0.7460 O   0  0  0  0  0  0  0  0  0  0  0  0
    3.8290   -0.6790   -2.0080 C   0  0  0  0  0  0  0  0  0  0  0  0
    4.6470    0.3650   -2.4290 O   0  0  0  0  0  0  0  0  0  0  0  0
   -0.6050   -3.1570    0.3400 C   0  0  0  0  0  0  0  0  0  0  0  0
   -3.6770    0.7320   -2.6700 H   0  0  0  0  0  0  0  0  0  0  0  0
   -3.8440   -0.9820   -3.0570 H   0  0  0  0  0  0  0  0  0  0  0  0
   -5.1920    0.1270   -3.3400 H   0  0  0  0  0  0  0  0  0  0  0  0
   -5.9600   -0.5540   -1.1780 H   0  0  0  0  0  0  0  0  0  0  0  0
   -4.5750    0.1030    1.8120 H   0  0  0  0  0  0  0  0  0  0  0  0
   -5.6760   -1.1140    1.1530 H   0  0  0  0  0  0  0  0  0  0  0  0
   -4.0510   -1.5800    1.6620 H   0  0  0  0  0  0  0  0  0  0  0  0
   -0.8130    1.0810    1.9740 H   0  0  0  0  0  0  0  0  0  0  0  0
    0.4630   -0.7190    2.4680 H   0  0  0  0  0  0  0  0  0  0  0  0
   -1.1110   -1.4310    2.2250 H   0  0  0  0  0  0  0  0  0  0  0  0
    3.7490   -2.1780    1.2340 H   0  0  0  0  0  0  0  0  0  0  0  0
    2.8940    1.8480   -1.2690 H   0  0  0  0  0  0  0  0  0  0  0  0
    1.8250    0.7840    1.3610 H   0  0  0  0  0  0  0  0  0  0  0  0
    0.0160    0.5730   -0.9900 H   0  0  0  0  0  0  0  0  0  0  0  0
   -2.3470    2.2360   -1.0830 H   0  0  0  0  0  0  0  0  0  0  0  0
   -1.8640    3.9600   -0.7520 H   0  0  0  0  0  0  0  0  0  0  0  0
    4.4130   -1.5690   -1.6720 H   0  0  0  0  0  0  0  0  0  0  0  0
    3.2750   -0.9870   -2.9240 H   0  0  0  0  0  0  0  0  0  0  0  0
    5.2000    0.6290   -1.6860 H   0  0  0  0  0  0  0  0  0  0  0  0
   -0.9220   -3.7630    1.2020 H   0  0  0  0  0  0  0  0  0  0  0  0
   -0.1350   -3.8410   -0.3830 H   0  0  0  0  0  0  0  0  0  0  0  0
   -1.5140   -2.7760   -0.1400 H   0  0  0  0  0  0  0  0  0  0  0  0
  1 30  1  0
  1 29  1  0
  1 28  1  0
  1  2  1  0
  2 31  1  0
  2  3  2  0
  3  5  1  0
  3  4  1  0
  4 33  1  0
  4 34  1  0
  4 32  1  0
  5  6  2  0
  5  7  1  0
  7  8  1  0
  8 19  1  0
  8  9  1  0
  8 35  1  1
  9 10  1  0
  9 37  1  0
  9 36  1  0
 10 15  1  0
 10 27  1  6
 10 11  1  0
 11 13  1  0
 11 12  2  0
 13 14  2  0
 13 38  1  0
 14 16  1  0
 14 15  1  0
 16 25  1  0
 16 17  2  0
 17 39  1  0
 17 18  1  0
 18 19  1  0
 18 24  1  0
 18 40  1  1
 19 41  1  6
 19 20  1  0
 20 21  2  0
 20 22  1  0
 21 42  1  0
 21 43  1  0
 22 23  2  0
 22 24  1  0
 25 45  1  0
 25 26  1  0
 25 44  1  0
 26 46  1  0
 27 48  1  0
 27 49  1  0
 27 47  1  0
M  END
>  <id>  (955) 
1075

>  <scaffolds>  (955) 
['O=C1CCCO1']

>  <name>  (955) 
Centratherin

>  <formula>  (955) 
C20H22O7

>  <SMILES>  (955) 
C/C=C(/C)\C(=O)O[C@H]1C[C@@]2(C(=O)C=C(O2)/C(=C\[C@@H]3[C@@H]1C(=C)C(=O)O3)/CO)C

>  <ChEMBL_id>  (955) 
CHEMBL382151

>  <ZINC_id>  (955) 


>  <PubChem_id>  (955) 
44409502

>  <DrugBank_id>  (955) 


>  <CAS_no>  (955) 
71939-83-8

>  <references>  (955) 
[{'journal': {'name': 'South African Journal of Botany', 'id': 1}, 'title': 'Synergistic properties of sesquiterpene lactones isolated from Centratherum punctatum Cass. in combination with ampicillin against beta-lactam-resistant Gram-negative bacteria', 'year': 2018, 'start_page': None, 'volume': None, 'issue': None, 'doi': '10.1016/j.sajb.2018.04.003', 'isbn': '', 'despositor': {'code': 'TMM', 'first_name': 'Thommas', 'last_name': 'Musyoka', 'id': 22}, 'refauthors_set': [{'author': {'first_name': 'Jude', 'initials': 'J', 'last_name': 'Chukwujekwu', 'id': 487}, 'first_author': True, 'id': 1652}], 'id': 558}]

>  <classifications>  (955) 
[{'classification': 'Lactone', 'id': 919}, {'classification': 'Phenol lipids (Classyfire)', 'id': 951}]

>  <molecular_mass>  (955) 
374.4

$$$$
SANC01076_minRM1.pdb
     RDKit          3D

 49 51  0  0  1  0  0  0  0  0999 V2000
    5.0790   -0.7120   -1.7920 C   0  0  0  0  0  0  0  0  0  0  0  0
    5.1250    0.0220   -0.5060 C   0  0  0  0  0  0  0  0  0  0  0  0
    4.0980    0.0930    0.3470 C   0  0  0  0  0  0  0  0  0  0  0  0
    4.1630    0.8330    1.6330 C   0  0  0  0  0  0  0  0  0  0  0  0
    2.8290   -0.5860    0.0440 C   0  0  0  0  0  0  0  0  0  0  0  0
    2.6780   -1.6720   -0.4860 O   0  0  0  0  0  0  0  0  0  0  0  0
    1.7490    0.1480    0.4290 O   0  0  0  0  0  0  0  0  0  0  0  0
    0.4500   -0.3650    0.1980 C   0  0  1  0  0  0  0  0  0  0  0  0
    0.1470   -1.3550    1.3390 C   0  0  0  0  0  0  0  0  0  0  0  0
   -1.1050   -2.2000    1.0930 C   0  0  2  0  0  0  0  0  0  0  0  0
   -1.0380   -2.9310   -0.2630 C   0  0  0  0  0  0  0  0  0  0  0  0
   -0.3890   -3.9180   -0.5030 O   0  0  0  0  0  0  0  0  0  0  0  0
   -1.9320   -2.1560   -1.1350 C   0  0  0  0  0  0  0  0  0  0  0  0
   -2.5240   -1.2210   -0.3620 C   0  0  0  0  0  0  0  0  0  0  0  0
   -2.2140   -1.3140    0.9690 O   0  0  0  0  0  0  0  0  0  0  0  0
   -3.3850   -0.0930   -0.6790 C   0  0  0  0  0  0  0  0  0  0  0  0
   -4.7020   -0.1560   -0.5120 C   0  0  0  0  0  0  0  0  0  0  0  0
   -2.7050    1.1580   -1.1730 C   0  0  2  0  0  0  0  0  0  0  0  0
   -1.1560    1.0370   -1.2190 C   0  0  2  0  0  0  0  0  0  0  0  0
   -0.4820    0.8780    0.1760 C   0  0  2  0  0  0  0  0  0  0  0  0
    0.2360    2.1790    0.3460 C   0  0  0  0  0  0  0  0  0  0  0  0
    0.8680    2.6300    1.4190 C   0  0  0  0  0  0  0  0  0  0  0  0
    0.0840    2.9370   -0.9040 C   0  0  0  0  0  0  0  0  0  0  0  0
    0.5110    4.0140   -1.2520 O   0  0  0  0  0  0  0  0  0  0  0  0
   -0.6980    2.2470   -1.7950 O   0  0  0  0  0  0  0  0  0  0  0  0
   -3.0810    2.1630   -0.2780 O   0  0  0  0  0  0  0  0  0  0  0  0
   -1.3930   -3.1590    2.2340 C   0  0  0  0  0  0  0  0  0  0  0  0
    5.1030   -1.8010   -1.6280 H   0  0  0  0  0  0  0  0  0  0  0  0
    5.9290   -0.4680   -2.4470 H   0  0  0  0  0  0  0  0  0  0  0  0
    4.1670   -0.5030   -2.3730 H   0  0  0  0  0  0  0  0  0  0  0  0
    6.0730    0.5210   -0.2690 H   0  0  0  0  0  0  0  0  0  0  0  0
    3.8240    0.2100    2.4760 H   0  0  0  0  0  0  0  0  0  0  0  0
    3.5180    1.7250    1.6130 H   0  0  0  0  0  0  0  0  0  0  0  0
    5.1770    1.1770    1.8820 H   0  0  0  0  0  0  0  0  0  0  0  0
    0.3960   -0.8920   -0.7950 H   0  0  0  0  0  0  0  0  0  0  0  0
    0.0580   -0.8120    2.3040 H   0  0  0  0  0  0  0  0  0  0  0  0
    1.0040   -2.0490    1.4810 H   0  0  0  0  0  0  0  0  0  0  0  0
   -2.0530   -2.3370   -2.1940 H   0  0  0  0  0  0  0  0  0  0  0  0
   -5.2180   -1.0380   -0.1450 H   0  0  0  0  0  0  0  0  0  0  0  0
   -5.3670    0.6770   -0.7260 H   0  0  0  0  0  0  0  0  0  0  0  0
   -3.0730    1.3670   -2.2190 H   0  0  0  0  0  0  0  0  0  0  0  0
   -0.8630    0.2270   -1.9350 H   0  0  0  0  0  0  0  0  0  0  0  0
   -1.2490    0.8130    0.9870 H   0  0  0  0  0  0  0  0  0  0  0  0
    0.9590    2.0550    2.3360 H   0  0  0  0  0  0  0  0  0  0  0  0
    1.3470    3.6060    1.4580 H   0  0  0  0  0  0  0  0  0  0  0  0
   -2.8450    3.0090   -0.6740 H   0  0  0  0  0  0  0  0  0  0  0  0
   -2.3290   -3.7140    2.0780 H   0  0  0  0  0  0  0  0  0  0  0  0
   -1.4910   -2.6380    3.1980 H   0  0  0  0  0  0  0  0  0  0  0  0
   -0.5880   -3.9010    2.3370 H   0  0  0  0  0  0  0  0  0  0  0  0
  1 29  1  0
  1 30  1  0
  1 28  1  0
  1  2  1  0
  2 31  1  0
  2  3  2  0
  3  5  1  0
  3  4  1  0
  4 33  1  0
  4 34  1  0
  4 32  1  0
  5  6  2  0
  5  7  1  0
  7  8  1  0
  8 35  1  6
  8 20  1  0
  8  9  1  0
  9 10  1  0
  9 37  1  0
  9 36  1  0
 10 11  1  0
 10 15  1  0
 10 27  1  1
 11 13  1  0
 11 12  2  0
 13 38  1  0
 13 14  2  0
 14 16  1  0
 14 15  1  0
 16 18  1  0
 16 17  2  0
 17 40  1  0
 17 39  1  0
 18 41  1  6
 18 19  1  0
 18 26  1  0
 19 42  1  6
 19 25  1  0
 19 20  1  0
 20 21  1  0
 20 43  1  1
 21 23  1  0
 21 22  2  0
 22 45  1  0
 22 44  1  0
 23 25  1  0
 23 24  2  0
 26 46  1  0
 27 47  1  0
 27 49  1  0
 27 48  1  0
M  END
>  <id>  (956) 
1076

>  <scaffolds>  (956) 
['C=C1CC2OC(=O)C(=C)C2CCC2OC1=CC2=O', 'O=C1CCCO1']

>  <name>  (956) 
Isocentratherin

>  <formula>  (956) 
C20H22O7

>  <SMILES>  (956) 
C/C=C(/C)\C(=O)O[C@H]1C[C@@]2(C(=O)C=C(O2)C(=C)[C@H]([C@@H]3[C@@H]1C(=C)C(=O)O3)O)C

>  <ChEMBL_id>  (956) 
CHEMBL2205110

>  <ZINC_id>  (956) 


>  <PubChem_id>  (956) 
21634989

>  <DrugBank_id>  (956) 


>  <CAS_no>  (956) 
80377-52-2

>  <references>  (956) 
[{'journal': {'name': 'South African Journal of Botany', 'id': 1}, 'title': 'Synergistic properties of sesquiterpene lactones isolated from Centratherum punctatum Cass. in combination with ampicillin against beta-lactam-resistant Gram-negative bacteria', 'year': 2018, 'start_page': None, 'volume': None, 'issue': None, 'doi': '10.1016/j.sajb.2018.04.003', 'isbn': '', 'despositor': {'code': 'TMM', 'first_name': 'Thommas', 'last_name': 'Musyoka', 'id': 22}, 'refauthors_set': [{'author': {'first_name': 'Jude', 'initials': 'J', 'last_name': 'Chukwujekwu', 'id': 487}, 'first_author': True, 'id': 1652}], 'id': 558}]

>  <classifications>  (956) 
[{'classification': 'Lactone', 'id': 919}, {'classification': 'Fatty Acyls (Classyfire)', 'id': 957}]

>  <molecular_mass>  (956) 
374.4

$$$$
SANC01077_minRM1.pdb
     RDKit          3D

 32 34  0  0  1  0  0  0  0  0999 V2000
    3.1460    0.3650   -1.6950 C   0  0  0  0  0  0  0  0  0  0  0  0
    3.7490    0.2010   -0.2990 C   0  0  1  0  0  0  0  0  0  0  0  0
    4.5150    1.4680    0.0930 C   0  0  0  0  0  0  0  0  0  0  0  0
    2.6680   -0.1030    0.7740 C   0  0  2  0  0  0  0  0  0  0  0  0
    1.9180   -1.4410    0.5430 C   0  0  0  0  0  0  0  0  0  0  0  0
    0.5140   -0.9890    0.3620 C   0  0  0  0  0  0  0  0  0  0  0  0
    0.4870    0.4190    0.4840 C   0  0  0  0  0  0  0  0  0  0  0  0
    1.7120    0.9560    0.7360 O   0  0  0  0  0  0  0  0  0  0  0  0
   -0.6600    1.1700    0.3740 C   0  0  0  0  0  0  0  0  0  0  0  0
   -1.8330    0.4280    0.1320 C   0  0  0  0  0  0  0  0  0  0  0  0
   -1.8420   -0.9650    0.0070 C   0  0  0  0  0  0  0  0  0  0  0  0
   -0.6360   -1.6860    0.1230 C   0  0  0  0  0  0  0  0  0  0  0  0
   -3.0960   -1.6260   -0.2330 C   0  0  0  0  0  0  0  0  0  0  0  0
   -4.2180   -0.8970   -0.3280 C   0  0  0  0  0  0  0  0  0  0  0  0
   -4.1710    0.5510   -0.1940 C   0  0  0  0  0  0  0  0  0  0  0  0
   -5.0970    1.3350   -0.2560 O   0  0  0  0  0  0  0  0  0  0  0  0
   -2.9580    1.1780    0.0310 O   0  0  0  0  0  0  0  0  0  0  0  0
    4.6030   -0.9020   -0.3910 O   0  0  0  0  0  0  0  0  0  0  0  0
    2.4500    1.2140   -1.7360 H   0  0  0  0  0  0  0  0  0  0  0  0
    2.5950   -0.5240   -2.0300 H   0  0  0  0  0  0  0  0  0  0  0  0
    3.9250    0.5490   -2.4500 H   0  0  0  0  0  0  0  0  0  0  0  0
    5.3320    1.6810   -0.6120 H   0  0  0  0  0  0  0  0  0  0  0  0
    4.9690    1.4040    1.0920 H   0  0  0  0  0  0  0  0  0  0  0  0
    3.8600    2.3500    0.1010 H   0  0  0  0  0  0  0  0  0  0  0  0
    3.1160   -0.0670    1.7990 H   0  0  0  0  0  0  0  0  0  0  0  0
    2.2980   -2.0180   -0.3230 H   0  0  0  0  0  0  0  0  0  0  0  0
    2.0250   -2.1270    1.4060 H   0  0  0  0  0  0  0  0  0  0  0  0
   -0.6720    2.2570    0.4690 H   0  0  0  0  0  0  0  0  0  0  0  0
   -0.6300   -2.7750    0.0250 H   0  0  0  0  0  0  0  0  0  0  0  0
   -3.1070   -2.7170   -0.3320 H   0  0  0  0  0  0  0  0  0  0  0  0
   -5.2050   -1.3320   -0.5070 H   0  0  0  0  0  0  0  0  0  0  0  0
    5.1330   -0.9420    0.4110 H   0  0  0  0  0  0  0  0  0  0  0  0
  1 21  1  0
  1 20  1  0
  1 19  1  0
  1  2  1  0
  2 18  1  6
  2  3  1  0
  2  4  1  0
  3 22  1  0
  3 24  1  0
  3 23  1  0
  4  5  1  0
  4  8  1  0
  4 25  1  1
  5 26  1  0
  5  6  1  0
  5 27  1  0
  6 12  2  0
  6  7  1  0
  7  9  2  0
  7  8  1  0
  9 10  1  0
  9 28  1  0
 10 11  2  0
 10 17  1  0
 11 13  1  0
 11 12  1  0
 12 29  1  0
 13 30  1  0
 13 14  2  0
 14 31  1  0
 14 15  1  0
 15 16  2  0
 15 17  1  0
 18 32  1  0
M  END
>  <id>  (957) 
1077

>  <scaffolds>  (957) 
['c1ccccc1', 'O=c1ccc2ccccc2o1', 'O=c1ccc2cc3c(cc2o1)OCC3']

>  <name>  (957) 
Marmesin

>  <formula>  (957) 
C14H14O4

>  <SMILES>  (957) 
CC(C)([C@@H]1CC2=C(O1)C=C3C(=C2)C=CC(=O)O3)O

>  <ChEMBL_id>  (957) 
SCHEMBL12062107

>  <ZINC_id>  (957) 
ZINC51924

>  <PubChem_id>  (957) 
334704

>  <DrugBank_id>  (957) 


>  <CAS_no>  (957) 
13849-08-6

>  <references>  (957) 
[{'journal': {'name': 'South African Journal of Botany', 'id': 1}, 'title': 'The phytochemistry and gastroprotective activities of the leaves of Ficus glumosa', 'year': 2019, 'start_page': None, 'volume': None, 'issue': None, 'doi': '10.1016/j.sajb.2019.01.015', 'isbn': '', 'despositor': {'code': 'TMM', 'first_name': 'Thommas', 'last_name': 'Musyoka', 'id': 22}, 'refauthors_set': [{'author': {'first_name': 'Awolola', 'initials': 'AG', 'last_name': 'G.', 'id': 1070}, 'first_author': True, 'id': 1653}], 'id': 559}]

>  <classifications>  (957) 
[{'classification': 'Coumarin', 'id': 762}, {'classification': 'Coumarins and derivatives (Classyfire)', 'id': 965}]

>  <molecular_mass>  (957) 
246.26

$$$$
SANC01078_minRM1.pdb
     RDKit          3D

 81 85  0  0  1  0  0  0  0  0999 V2000
   -6.8540   -0.4850    1.2020 C   0  0  0  0  0  0  0  0  0  0  0  0
   -6.3430   -0.5320   -0.2320 C   0  0  2  0  0  0  0  0  0  0  0  0
   -6.2240   -1.9790   -0.6950 C   0  0  0  0  0  0  0  0  0  0  0  0
   -5.0450    0.2350   -0.5000 C   0  0  1  0  0  0  0  0  0  0  0  0
   -5.1180    1.6980   -0.0110 C   0  0  0  0  0  0  0  0  0  0  0  0
   -3.6690    2.1520    0.2460 C   0  0  0  0  0  0  0  0  0  0  0  0
   -2.8280    0.9820   -0.2600 C   0  0  2  0  0  0  0  0  0  0  0  0
   -3.6980   -0.2510    0.0910 C   0  0  2  0  0  0  0  0  0  0  0  0
   -3.0650   -1.4700   -0.5700 C   0  0  0  0  0  0  0  0  0  0  0  0
   -1.5970   -1.6120   -0.1520 C   0  0  0  0  0  0  0  0  0  0  0  0
   -0.7650   -0.3670   -0.5140 C   0  0  1  0  0  0  0  0  0  0  0  0
   -1.3680    0.8830    0.1790 C   0  0  1  0  0  0  0  0  0  0  0  0
   -0.5740    2.1040   -0.3050 C   0  0  0  0  0  0  0  0  0  0  0  0
    0.8900    2.0060    0.1140 C   0  0  0  0  0  0  0  0  0  0  0  0
    1.5880    0.7130   -0.3350 C   0  0  2  0  0  0  0  0  0  0  0  0
    0.6970   -0.5120   -0.0420 C   0  0  2  0  0  0  0  0  0  0  0  0
    1.3590   -1.7660   -0.6100 C   0  0  0  0  0  0  0  0  0  0  0  0
    2.8230   -1.8060   -0.3570 C   0  0  0  0  0  0  0  0  0  0  0  0
    3.5440   -0.7910    0.1280 C   0  0  0  0  0  0  0  0  0  0  0  0
    2.8880    0.5040    0.5040 C   0  0  1  0  0  0  0  0  0  0  0  0
    3.7960    1.7310    0.3950 C   0  0  0  0  0  0  0  0  0  0  0  0
    5.1850    1.4790    0.9490 C   0  0  0  0  0  0  0  0  0  0  0  0
    5.8280    0.2740    0.2610 C   0  0  1  0  0  0  0  0  0  0  0  0
    4.9890   -1.0010    0.4920 C   0  0  2  0  0  0  0  0  0  0  0  0
    5.6450   -2.1290   -0.3130 C   0  0  0  0  0  0  0  0  0  0  0  0
    5.0330   -1.3900    1.9720 C   0  0  0  0  0  0  0  0  0  0  0  0
    6.0330    0.5300   -1.0920 O   0  0  0  0  0  0  0  0  0  0  0  0
    1.9930    0.8590   -1.8000 C   0  0  0  0  0  0  0  0  0  0  0  0
   -1.2690    0.8630    1.7050 C   0  0  0  0  0  0  0  0  0  0  0  0
   -0.8070   -0.2610   -2.0430 C   0  0  0  0  0  0  0  0  0  0  0  0
   -3.8630   -0.5410    1.5750 C   0  0  0  0  0  0  0  0  0  0  0  0
   -7.9180   -0.7590    1.2610 H   0  0  0  0  0  0  0  0  0  0  0  0
   -6.7590    0.5200    1.6440 H   0  0  0  0  0  0  0  0  0  0  0  0
   -6.3240   -1.1820    1.8710 H   0  0  0  0  0  0  0  0  0  0  0  0
   -7.1270   -0.0290   -0.8660 H   0  0  0  0  0  0  0  0  0  0  0  0
   -5.4290   -2.5320   -0.1700 H   0  0  0  0  0  0  0  0  0  0  0  0
   -5.9960   -2.0530   -1.7680 H   0  0  0  0  0  0  0  0  0  0  0  0
   -7.1570   -2.5380   -0.5330 H   0  0  0  0  0  0  0  0  0  0  0  0
   -4.9400    0.2360   -1.6190 H   0  0  0  0  0  0  0  0  0  0  0  0
   -5.7390    1.7950    0.9040 H   0  0  0  0  0  0  0  0  0  0  0  0
   -5.6270    2.3420   -0.7540 H   0  0  0  0  0  0  0  0  0  0  0  0
   -3.4760    2.3760    1.3150 H   0  0  0  0  0  0  0  0  0  0  0  0
   -3.4330    3.1000   -0.2750 H   0  0  0  0  0  0  0  0  0  0  0  0
   -2.8130    1.0890   -1.3810 H   0  0  0  0  0  0  0  0  0  0  0  0
   -3.6310   -2.3940   -0.3150 H   0  0  0  0  0  0  0  0  0  0  0  0
   -3.1410   -1.4040   -1.6790 H   0  0  0  0  0  0  0  0  0  0  0  0
   -1.5180   -1.8450    0.9300 H   0  0  0  0  0  0  0  0  0  0  0  0
   -1.1820   -2.5150   -0.6490 H   0  0  0  0  0  0  0  0  0  0  0  0
   -1.0140    3.0380    0.1050 H   0  0  0  0  0  0  0  0  0  0  0  0
   -0.6590    2.2290   -1.4070 H   0  0  0  0  0  0  0  0  0  0  0  0
    0.9530    2.1040    1.2230 H   0  0  0  0  0  0  0  0  0  0  0  0
    1.4270    2.8980   -0.2740 H   0  0  0  0  0  0  0  0  0  0  0  0
    0.6720   -0.6540    1.0720 H   0  0  0  0  0  0  0  0  0  0  0  0
    0.9060   -2.6790   -0.1610 H   0  0  0  0  0  0  0  0  0  0  0  0
    1.1610   -1.8780   -1.7020 H   0  0  0  0  0  0  0  0  0  0  0  0
    3.2730   -2.7770   -0.5940 H   0  0  0  0  0  0  0  0  0  0  0  0
    2.6140    0.3970    1.5890 H   0  0  0  0  0  0  0  0  0  0  0  0
    3.8610    2.0960   -0.6560 H   0  0  0  0  0  0  0  0  0  0  0  0
    3.3490    2.5890    0.9430 H   0  0  0  0  0  0  0  0  0  0  0  0
    5.1580    1.3320    2.0490 H   0  0  0  0  0  0  0  0  0  0  0  0
    5.8220    2.3790    0.8100 H   0  0  0  0  0  0  0  0  0  0  0  0
    6.8740    0.1290    0.6440 H   0  0  0  0  0  0  0  0  0  0  0  0
    5.5350   -1.9920   -1.3980 H   0  0  0  0  0  0  0  0  0  0  0  0
    5.2300   -3.1200   -0.0750 H   0  0  0  0  0  0  0  0  0  0  0  0
    6.7250   -2.1980   -0.1150 H   0  0  0  0  0  0  0  0  0  0  0  0
    4.4830   -2.3230    2.1620 H   0  0  0  0  0  0  0  0  0  0  0  0
    4.5850   -0.6340    2.6320 H   0  0  0  0  0  0  0  0  0  0  0  0
    6.0610   -1.5510    2.3280 H   0  0  0  0  0  0  0  0  0  0  0  0
    5.1810    0.5190   -1.5410 H   0  0  0  0  0  0  0  0  0  0  0  0
    1.1630    1.1650   -2.4530 H   0  0  0  0  0  0  0  0  0  0  0  0
    2.7650    1.6380   -1.9340 H   0  0  0  0  0  0  0  0  0  0  0  0
    2.4230   -0.0500   -2.2410 H   0  0  0  0  0  0  0  0  0  0  0  0
   -1.4460   -0.1260    2.1510 H   0  0  0  0  0  0  0  0  0  0  0  0
   -1.9980    1.5540    2.1610 H   0  0  0  0  0  0  0  0  0  0  0  0
   -0.2890    1.1860    2.0940 H   0  0  0  0  0  0  0  0  0  0  0  0
   -0.5000    0.7280   -2.4210 H   0  0  0  0  0  0  0  0  0  0  0  0
   -1.8060   -0.4500   -2.4700 H   0  0  0  0  0  0  0  0  0  0  0  0
   -0.1440   -1.0030   -2.5210 H   0  0  0  0  0  0  0  0  0  0  0  0
   -4.1990    0.3230    2.1620 H   0  0  0  0  0  0  0  0  0  0  0  0
   -2.9410   -0.9040    2.0580 H   0  0  0  0  0  0  0  0  0  0  0  0
   -4.5980   -1.3430    1.7570 H   0  0  0  0  0  0  0  0  0  0  0  0
  1  2  1  0
  1 32  1  0
  1 33  1  0
  1 34  1  0
  2 35  1  6
  2  3  1  0
  2  4  1  0
  3 37  1  0
  3 38  1  0
  3 36  1  0
  4 39  1  6
  4  5  1  0
  4  8  1  0
  5 41  1  0
  5  6  1  0
  5 40  1  0
  6 43  1  0
  6  7  1  0
  6 42  1  0
  7 44  1  6
  7  8  1  0
  7 12  1  0
  8  9  1  0
  8 31  1  1
  9 46  1  0
  9 45  1  0
  9 10  1  0
 10 48  1  0
 10 11  1  0
 10 47  1  0
 11 30  1  6
 11 16  1  0
 11 12  1  0
 12 13  1  0
 12 29  1  1
 13 50  1  0
 13 49  1  0
 13 14  1  0
 14 15  1  0
 14 52  1  0
 14 51  1  0
 15 28  1  6
 15 16  1  0
 15 20  1  0
 16 17  1  0
 16 53  1  1
 17 55  1  0
 17 18  1  0
 17 54  1  0
 18 56  1  0
 18 19  2  0
 19 24  1  0
 19 20  1  0
 20 21  1  0
 20 57  1  1
 21 58  1  0
 21 59  1  0
 21 22  1  0
 22 23  1  0
 22 61  1  0
 22 60  1  0
 23 27  1  0
 23 24  1  0
 23 62  1  1
 24 25  1  6
 24 26  1  0
 25 63  1  0
 25 65  1  0
 25 64  1  0
 26 66  1  0
 26 68  1  0
 26 67  1  0
 27 69  1  0
 28 70  1  0
 28 72  1  0
 28 71  1  0
 29 75  1  0
 29 73  1  0
 29 74  1  0
 30 78  1  0
 30 77  1  0
 30 76  1  0
 31 81  1  0
 31 80  1  0
 31 79  1  0
M  END
>  <id>  (958) 
1078

>  <scaffolds>  (958) 
['C1=CCCCC1', 'C1=CCC2CCCCC2C1', 'C1CCC(C2CCCC2)CC1', 'C1CCCCC1', 'C1=C2CCCCC2CCC1', 'C1=C2CCCCC2C2CCC3C4CCCC4CCC3C2C1', 'C1CCC2CCCCC2C1']

>  <name>  (958) 
Simiarenol

>  <formula>  (958) 
C30H50O

>  <SMILES>  (958) 
CC(C)[C@H]1CC[C@@H]2[C@@]1(CC[C@]3([C@]2(CC[C@@]4([C@@H]3CC=C5[C@H]4CC[C@@H](C5(C)C)O)C)C)C)C

>  <ChEMBL_id>  (958) 
SCHEMBL2337338

>  <ZINC_id>  (958) 
ZINC56874814

>  <PubChem_id>  (958) 
12442794

>  <DrugBank_id>  (958) 


>  <CAS_no>  (958) 
1615-94-7

>  <references>  (958) 
[{'journal': {'name': 'South African Journal of Botany', 'id': 1}, 'title': 'The phytochemistry and gastroprotective activities of the leaves of Ficus glumosa', 'year': 2019, 'start_page': None, 'volume': None, 'issue': None, 'doi': '10.1016/j.sajb.2019.01.015', 'isbn': '', 'despositor': {'code': 'TMM', 'first_name': 'Thommas', 'last_name': 'Musyoka', 'id': 22}, 'refauthors_set': [{'author': {'first_name': 'Awolola', 'initials': 'AG', 'last_name': 'G.', 'id': 1070}, 'first_author': True, 'id': 1653}], 'id': 559}]

>  <classifications>  (958) 
[{'classification': 'Terpenoid', 'id': 839}, {'classification': 'Steroids and steroid derivatives (Classyfire)', 'id': 942}]

>  <molecular_mass>  (958) 
426.7

$$$$
SANC01079_minRM1.pdb
     RDKit          3D

 35 36  0  0  1  0  0  0  0  0999 V2000
    4.7270   -1.1690   -1.3140 C   0  0  0  0  0  0  0  0  0  0  0  0
    4.0540   -0.5670   -0.0730 C   0  0  2  0  0  0  0  0  0  0  0  0
    4.3420   -1.4500    1.1450 C   0  0  0  0  0  0  0  0  0  0  0  0
    2.5170   -0.4440   -0.3140 C   0  0  1  0  0  0  0  0  0  0  0  0
    1.8050    0.2320    0.8710 C   0  0  0  0  0  0  0  0  0  0  0  0
    0.3450    0.3510    0.5820 C   0  0  0  0  0  0  0  0  0  0  0  0
   -0.2600    1.5880    0.2650 C   0  0  0  0  0  0  0  0  0  0  0  0
   -1.6180    1.6930   -0.0180 C   0  0  0  0  0  0  0  0  0  0  0  0
   -2.3800    0.5220    0.0170 C   0  0  0  0  0  0  0  0  0  0  0  0
   -1.8150   -0.7170    0.3240 C   0  0  0  0  0  0  0  0  0  0  0  0
   -0.4450   -0.7810    0.6100 C   0  0  0  0  0  0  0  0  0  0  0  0
   -2.6630   -1.8790    0.3330 C   0  0  0  0  0  0  0  0  0  0  0  0
   -3.9690   -1.7390    0.0550 C   0  0  0  0  0  0  0  0  0  0  0  0
   -4.5250   -0.4280   -0.2470 C   0  0  0  0  0  0  0  0  0  0  0  0
   -5.6810   -0.1520   -0.5010 O   0  0  0  0  0  0  0  0  0  0  0  0
   -3.6970    0.6810   -0.2650 O   0  0  0  0  0  0  0  0  0  0  0  0
    0.5490    2.6690    0.2770 O   0  0  0  0  0  0  0  0  0  0  0  0
    2.3090    0.3960   -1.4130 O   0  0  0  0  0  0  0  0  0  0  0  0
    4.6180    0.6710    0.2290 O   0  0  0  0  0  0  0  0  0  0  0  0
    4.6350   -0.5320   -2.2050 H   0  0  0  0  0  0  0  0  0  0  0  0
    4.3110   -2.1520   -1.5700 H   0  0  0  0  0  0  0  0  0  0  0  0
    5.8070   -1.3090   -1.1600 H   0  0  0  0  0  0  0  0  0  0  0  0
    4.0290   -0.9850    2.0900 H   0  0  0  0  0  0  0  0  0  0  0  0
    3.8370   -2.4230    1.0690 H   0  0  0  0  0  0  0  0  0  0  0  0
    5.4180   -1.6510    1.2560 H   0  0  0  0  0  0  0  0  0  0  0  0
    2.0920   -1.4710   -0.4770 H   0  0  0  0  0  0  0  0  0  0  0  0
    2.2740    1.2120    1.1010 H   0  0  0  0  0  0  0  0  0  0  0  0
    1.9510   -0.3640    1.7970 H   0  0  0  0  0  0  0  0  0  0  0  0
   -2.0940    2.6470   -0.2630 H   0  0  0  0  0  0  0  0  0  0  0  0
   -0.0030   -1.7510    0.8630 H   0  0  0  0  0  0  0  0  0  0  0  0
   -2.2230   -2.8540    0.5640 H   0  0  0  0  0  0  0  0  0  0  0  0
   -4.6730   -2.5750    0.0390 H   0  0  0  0  0  0  0  0  0  0  0  0
    0.0540    3.4410   -0.0240 H   0  0  0  0  0  0  0  0  0  0  0  0
    2.2560   -0.1600   -2.1950 H   0  0  0  0  0  0  0  0  0  0  0  0
    4.3940    1.2870   -0.4770 H   0  0  0  0  0  0  0  0  0  0  0  0
  1 20  1  0
  1 21  1  0
  1 22  1  0
  1  2  1  0
  2  4  1  0
  2 19  1  1
  2  3  1  0
  3 24  1  0
  3 25  1  0
  3 23  1  0
  4 18  1  0
  4 26  1  6
  4  5  1  0
  5  6  1  0
  5 27  1  0
  5 28  1  0
  6  7  2  0
  6 11  1  0
  7  8  1  0
  7 17  1  0
  8 29  1  0
  8  9  2  0
  9 16  1  0
  9 10  1  0
 10 12  1  0
 10 11  2  0
 11 30  1  0
 12 13  2  0
 12 31  1  0
 13 14  1  0
 13 32  1  0
 14 15  2  0
 14 16  1  0
 17 33  1  0
 18 34  1  0
 19 35  1  0
M  END
>  <id>  (959) 
1079

>  <scaffolds>  (959) 
['c1ccccc1', 'O=c1ccc2ccccc2o1']

>  <name>  (959) 
Peucedanol

>  <formula>  (959) 
C14H16O5

>  <SMILES>  (959) 
CC(C)(C(CC1=C(C=C2C(=C1)C=CC(=O)O2)O)O)O

>  <ChEMBL_id>  (959) 


>  <ZINC_id>  (959) 


>  <PubChem_id>  (959) 
5374451

>  <DrugBank_id>  (959) 


>  <CAS_no>  (959) 
46992-81-8

>  <references>  (959) 
[{'journal': {'name': 'South African Journal of Botany', 'id': 1}, 'title': 'The phytochemistry and gastroprotective activities of the leaves of Ficus glumosa', 'year': 2019, 'start_page': None, 'volume': None, 'issue': None, 'doi': '10.1016/j.sajb.2019.01.015', 'isbn': '', 'despositor': {'code': 'TMM', 'first_name': 'Thommas', 'last_name': 'Musyoka', 'id': 22}, 'refauthors_set': [{'author': {'first_name': 'Awolola', 'initials': 'AG', 'last_name': 'G.', 'id': 1070}, 'first_author': True, 'id': 1653}], 'id': 559}]

>  <classifications>  (959) 
[{'classification': 'Coumarin', 'id': 762}, {'classification': 'Coumarins and derivatives (Classyfire)', 'id': 965}]

>  <molecular_mass>  (959) 
264.27

$$$$
SANC01080_minRM1.pdb
     RDKit          3D

 81 85  0  0  1  0  0  0  0  0999 V2000
    5.9280   -1.7020   -1.1730 C   0  0  0  0  0  0  0  0  0  0  0  0
    6.2820   -0.5890   -0.2560 C   0  0  0  0  0  0  0  0  0  0  0  0
    7.5350   -0.1290   -0.2470 C   0  0  0  0  0  0  0  0  0  0  0  0
    5.3010   -0.0460    0.7370 C   0  0  1  0  0  0  0  0  0  0  0  0
    5.3180    1.5070    0.7470 C   0  0  0  0  0  0  0  0  0  0  0  0
    3.8720    1.9960    0.5900 C   0  0  0  0  0  0  0  0  0  0  0  0
    3.1480    0.8110   -0.0820 C   0  0  1  0  0  0  0  0  0  0  0  0
    3.8000   -0.3650    0.6640 C   0  0  1  0  0  0  0  0  0  0  0  0
    3.2680   -1.6880    0.1630 C   0  0  0  0  0  0  0  0  0  0  0  0
    1.7710   -1.7550    0.4790 C   0  0  0  0  0  0  0  0  0  0  0  0
    0.9640   -0.5870   -0.1170 C   0  0  2  0  0  0  0  0  0  0  0  0
    1.6430    0.7650    0.2060 C   0  0  2  0  0  0  0  0  0  0  0  0
    0.8860    1.9110   -0.4560 C   0  0  0  0  0  0  0  0  0  0  0  0
   -0.5490    1.9520    0.0620 C   0  0  0  0  0  0  0  0  0  0  0  0
   -1.2440    0.6130   -0.1800 C   0  0  1  0  0  0  0  0  0  0  0  0
   -0.4770   -0.5330    0.5150 C   0  0  1  0  0  0  0  0  0  0  0  0
   -1.2200   -1.8560    0.2790 C   0  0  0  0  0  0  0  0  0  0  0  0
   -2.6970   -1.7550    0.6480 C   0  0  0  0  0  0  0  0  0  0  0  0
   -3.3720   -0.6780   -0.1950 C   0  0  2  0  0  0  0  0  0  0  0  0
   -2.7580    0.6900    0.1490 C   0  0  2  0  0  0  0  0  0  0  0  0
   -3.4010    1.7420   -0.7740 C   0  0  0  0  0  0  0  0  0  0  0  0
   -4.9140    1.7540   -0.6240 C   0  0  0  0  0  0  0  0  0  0  0  0
   -5.4850    0.3810   -1.0020 C   0  0  1  0  0  0  0  0  0  0  0  0
   -4.9110   -0.7510   -0.1130 C   0  0  1  0  0  0  0  0  0  0  0  0
   -5.3610   -2.0920   -0.7120 C   0  0  0  0  0  0  0  0  0  0  0  0
   -5.4620   -0.6820    1.3060 C   0  0  0  0  0  0  0  0  0  0  0  0
   -6.8730    0.3640   -0.8220 O   0  0  0  0  0  0  0  0  0  0  0  0
   -2.9940    1.1180    1.5900 C   0  0  0  0  0  0  0  0  0  0  0  0
   -0.3540   -0.3470    2.0270 C   0  0  0  0  0  0  0  0  0  0  0  0
    0.8340   -0.8520   -1.6170 C   0  0  0  0  0  0  0  0  0  0  0  0
    3.4920    0.8690   -1.5630 C   0  0  0  0  0  0  0  0  0  0  0  0
    6.6740   -1.8600   -1.9670 H   0  0  0  0  0  0  0  0  0  0  0  0
    5.8620   -2.6540   -0.6230 H   0  0  0  0  0  0  0  0  0  0  0  0
    4.9690   -1.5520   -1.6920 H   0  0  0  0  0  0  0  0  0  0  0  0
    7.9010    0.6400    0.4260 H   0  0  0  0  0  0  0  0  0  0  0  0
    8.3170   -0.4880   -0.9090 H   0  0  0  0  0  0  0  0  0  0  0  0
    5.6740   -0.4370    1.7220 H   0  0  0  0  0  0  0  0  0  0  0  0
    5.9490    1.9250   -0.0630 H   0  0  0  0  0  0  0  0  0  0  0  0
    5.7780    1.8950    1.6760 H   0  0  0  0  0  0  0  0  0  0  0  0
    3.4250    2.2580    1.5700 H   0  0  0  0  0  0  0  0  0  0  0  0
    3.8120    2.9360    0.0080 H   0  0  0  0  0  0  0  0  0  0  0  0
    3.4770   -0.3050    1.7450 H   0  0  0  0  0  0  0  0  0  0  0  0
    3.4500   -1.8440   -0.9200 H   0  0  0  0  0  0  0  0  0  0  0  0
    3.7960   -2.5340    0.6540 H   0  0  0  0  0  0  0  0  0  0  0  0
    1.3770   -2.7280    0.1140 H   0  0  0  0  0  0  0  0  0  0  0  0
    1.6260   -1.8060    1.5820 H   0  0  0  0  0  0  0  0  0  0  0  0
    1.5470    0.9220    1.3200 H   0  0  0  0  0  0  0  0  0  0  0  0
    0.8930    1.8310   -1.5630 H   0  0  0  0  0  0  0  0  0  0  0  0
    1.3880    2.8800   -0.2520 H   0  0  0  0  0  0  0  0  0  0  0  0
   -1.1040    2.7770   -0.4400 H   0  0  0  0  0  0  0  0  0  0  0  0
   -0.5790    2.2380    1.1350 H   0  0  0  0  0  0  0  0  0  0  0  0
   -1.1840    0.4160   -1.2890 H   0  0  0  0  0  0  0  0  0  0  0  0
   -1.1140   -2.1890   -0.7790 H   0  0  0  0  0  0  0  0  0  0  0  0
   -0.7590   -2.6790    0.8660 H   0  0  0  0  0  0  0  0  0  0  0  0
   -2.8140   -1.5550    1.7350 H   0  0  0  0  0  0  0  0  0  0  0  0
   -3.1910   -2.7410    0.4980 H   0  0  0  0  0  0  0  0  0  0  0  0
   -3.1200   -0.8880   -1.2730 H   0  0  0  0  0  0  0  0  0  0  0  0
   -3.1300    1.5640   -1.8370 H   0  0  0  0  0  0  0  0  0  0  0  0
   -2.9860    2.7510   -0.5560 H   0  0  0  0  0  0  0  0  0  0  0  0
   -5.2140    2.0450    0.4050 H   0  0  0  0  0  0  0  0  0  0  0  0
   -5.3550    2.5470   -1.2660 H   0  0  0  0  0  0  0  0  0  0  0  0
   -5.2300    0.1690   -2.0800 H   0  0  0  0  0  0  0  0  0  0  0  0
   -5.0360   -2.2310   -1.7530 H   0  0  0  0  0  0  0  0  0  0  0  0
   -4.9600   -2.9470   -0.1450 H   0  0  0  0  0  0  0  0  0  0  0  0
   -6.4550   -2.1990   -0.7150 H   0  0  0  0  0  0  0  0  0  0  0  0
   -5.0100   -1.4300    1.9720 H   0  0  0  0  0  0  0  0  0  0  0  0
   -6.5470   -0.8710    1.3370 H   0  0  0  0  0  0  0  0  0  0  0  0
   -5.3240    0.2980    1.7850 H   0  0  0  0  0  0  0  0  0  0  0  0
   -7.2490    1.0120   -1.4240 H   0  0  0  0  0  0  0  0  0  0  0  0
   -2.3450    1.9540    1.8920 H   0  0  0  0  0  0  0  0  0  0  0  0
   -2.8190    0.3040    2.3130 H   0  0  0  0  0  0  0  0  0  0  0  0
   -4.0300    1.4570    1.7680 H   0  0  0  0  0  0  0  0  0  0  0  0
    0.0790    0.6250    2.3120 H   0  0  0  0  0  0  0  0  0  0  0  0
   -1.3130   -0.4310    2.5600 H   0  0  0  0  0  0  0  0  0  0  0  0
    0.3020   -1.1100    2.4830 H   0  0  0  0  0  0  0  0  0  0  0  0
    0.3180   -0.0420   -2.1580 H   0  0  0  0  0  0  0  0  0  0  0  0
    0.2510   -1.7660   -1.8260 H   0  0  0  0  0  0  0  0  0  0  0  0
    1.8000   -0.9930   -2.1230 H   0  0  0  0  0  0  0  0  0  0  0  0
    3.1280    1.7930   -2.0370 H   0  0  0  0  0  0  0  0  0  0  0  0
    4.5760    0.8490   -1.7470 H   0  0  0  0  0  0  0  0  0  0  0  0
    3.0760    0.0420   -2.1540 H   0  0  0  0  0  0  0  0  0  0  0  0
  1 32  1  0
  1 34  1  0
  1 33  1  0
  1  2  1  0
  2  3  2  0
  2  4  1  0
  3 36  1  0
  3 35  1  0
  4  8  1  0
  4  5  1  0
  4 37  1  1
  5 38  1  0
  5  6  1  0
  5 39  1  0
  6  7  1  0
  6 41  1  0
  6 40  1  0
  7 31  1  6
  7 12  1  0
  7  8  1  0
  8  9  1  0
  8 42  1  1
  9 43  1  0
  9 10  1  0
  9 44  1  0
 10 11  1  0
 10 45  1  0
 10 46  1  0
 11 30  1  6
 11 12  1  0
 11 16  1  0
 12 13  1  0
 12 47  1  1
 13 48  1  0
 13 49  1  0
 13 14  1  0
 14 50  1  0
 14 15  1  0
 14 51  1  0
 15 52  1  6
 15 20  1  0
 15 16  1  0
 16 17  1  0
 16 29  1  1
 17 53  1  0
 17 18  1  0
 17 54  1  0
 18 19  1  0
 18 56  1  0
 18 55  1  0
 19 57  1  6
 19 24  1  0
 19 20  1  0
 20 21  1  0
 20 28  1  1
 21 58  1  0
 21 22  1  0
 21 59  1  0
 22 61  1  0
 22 23  1  0
 22 60  1  0
 23 62  1  6
 23 27  1  0
 23 24  1  0
 24 25  1  6
 24 26  1  0
 25 63  1  0
 25 65  1  0
 25 64  1  0
 26 67  1  0
 26 68  1  0
 26 66  1  0
 27 69  1  0
 28 72  1  0
 28 70  1  0
 28 71  1  0
 29 73  1  0
 29 75  1  0
 29 74  1  0
 30 76  1  0
 30 78  1  0
 30 77  1  0
 31 81  1  0
 31 79  1  0
 31 80  1  0
M  END
>  <id>  (960) 
1080

>  <scaffolds>  (960) 
['C1CCC2C(C1)CCC1C2CCC2C3CCCC3CCC21', 'C1CCC(C2CCCC2)CC1', 'C1CCCCC1', 'C1CCC2C(C1)CCC1C3CCCC3CCC21', 'C1CCC2CCCCC2C1']

>  <name>  (960) 
Hopenol b

>  <formula>  (960) 
C30H50O

>  <SMILES>  (960) 
CC(=C)[C@H]1CC[C@]2([C@H]1CC[C@@]3([C@@H]2CC[C@H]4[C@]3(CC[C@@H]5[C@@]4(CC[C@@H](C5(C)C)O)C)C)C)C

>  <ChEMBL_id>  (960) 
CHEMBL254343

>  <ZINC_id>  (960) 


>  <PubChem_id>  (960) 
10093995

>  <DrugBank_id>  (960) 


>  <CAS_no>  (960) 
58801-23-3

>  <references>  (960) 
[{'journal': {'name': 'South African Journal of Botany', 'id': 1}, 'title': 'The phytochemistry and gastroprotective activities of the leaves of Ficus glumosa', 'year': 2019, 'start_page': None, 'volume': None, 'issue': None, 'doi': '10.1016/j.sajb.2019.01.015', 'isbn': '', 'despositor': {'code': 'TMM', 'first_name': 'Thommas', 'last_name': 'Musyoka', 'id': 22}, 'refauthors_set': [{'author': {'first_name': 'Awolola', 'initials': 'AG', 'last_name': 'G.', 'id': 1070}, 'first_author': True, 'id': 1653}], 'id': 559}]

>  <classifications>  (960) 
[{'classification': 'Terpenoid', 'id': 839}, {'classification': 'Phenol lipids (Classyfire)', 'id': 951}]

>  <molecular_mass>  (960) 
426.7

$$$$
SANC01081_minRM1.pdb
     RDKit          3D

 86 90  0  0  1  0  0  0  0  0999 V2000
   -6.4500    2.5700    1.3090 C   0  0  0  0  0  0  0  0  0  0  0  0
   -5.8600    1.9300    0.0560 C   0  0  2  0  0  0  0  0  0  0  0  0
   -6.6930    0.7130   -0.3600 C   0  0  0  0  0  0  0  0  0  0  0  0
   -6.2150   -0.5400    0.3530 C   0  0  0  0  0  0  0  0  0  0  0  0
   -4.7670   -0.9050   -0.0300 C   0  0  2  0  0  0  0  0  0  0  0  0
   -4.0990   -1.5030    1.2090 C   0  0  0  0  0  0  0  0  0  0  0  0
   -2.6500   -1.8670    0.9560 C   0  0  0  0  0  0  0  0  0  0  0  0
   -1.8150   -0.6630    0.5010 C   0  0  2  0  0  0  0  0  0  0  0  0
   -2.5100    0.1220   -0.5720 C   0  0  0  0  0  0  0  0  0  0  0  0
   -1.8230    0.7160   -1.5530 C   0  0  0  0  0  0  0  0  0  0  0  0
   -0.3430    0.7110   -1.6910 C   0  0  0  0  0  0  0  0  0  0  0  0
    0.3610    0.0780   -0.4940 C   0  0  1  0  0  0  0  0  0  0  0  0
   -0.4270   -1.1640   -0.0350 C   0  0  1  0  0  0  0  0  0  0  0  0
    0.3270   -1.8920    1.0860 C   0  0  0  0  0  0  0  0  0  0  0  0
    1.8000   -2.1050    0.7610 C   0  0  0  0  0  0  0  0  0  0  0  0
    2.4710   -0.7590    0.5080 C   0  0  2  0  0  0  0  0  0  0  0  0
    1.8730   -0.1440   -0.7690 C   0  0  2  0  0  0  0  0  0  0  0  0
    2.5330    1.2250   -1.0130 C   0  0  0  0  0  0  0  0  0  0  0  0
    4.0520    1.1260   -1.0530 C   0  0  0  0  0  0  0  0  0  0  0  0
    4.5660    0.5550    0.2670 C   0  0  1  0  0  0  0  0  0  0  0  0
    4.0100   -0.8620    0.5470 C   0  0  1  0  0  0  0  0  0  0  0  0
    4.4310   -1.2650    1.9690 C   0  0  0  0  0  0  0  0  0  0  0  0
    4.5840   -1.9020   -0.4070 C   0  0  0  0  0  0  0  0  0  0  0  0
    5.9740    0.4110    0.1900 O   0  0  0  0  0  0  0  0  0  0  0  0
    6.7520    1.5110    0.3320 C   0  0  0  0  0  0  0  0  0  0  0  0
    6.2720    2.6090    0.5460 O   0  0  0  0  0  0  0  0  0  0  0  0
    8.2020    1.1700    0.1990 C   0  0  0  0  0  0  0  0  0  0  0  0
    2.0940   -1.0000   -2.0080 C   0  0  0  0  0  0  0  0  0  0  0  0
   -0.6760   -2.1500   -1.1770 C   0  0  0  0  0  0  0  0  0  0  0  0
   -3.9990    0.3280   -0.5340 C   0  0  2  0  0  0  0  0  0  0  0  0
   -4.3790    1.5690    0.2950 C   0  0  1  0  0  0  0  0  0  0  0  0
   -3.5150    2.7730   -0.0700 C   0  0  0  0  0  0  0  0  0  0  0  0
   -1.6310    0.2720    1.7030 C   0  0  0  0  0  0  0  0  0  0  0  0
   -4.7960   -1.9390   -1.1590 C   0  0  0  0  0  0  0  0  0  0  0  0
   -7.4680    2.9500    1.1390 H   0  0  0  0  0  0  0  0  0  0  0  0
   -6.5150    1.8710    2.1550 H   0  0  0  0  0  0  0  0  0  0  0  0
   -5.8570    3.4270    1.6580 H   0  0  0  0  0  0  0  0  0  0  0  0
   -5.9280    2.6790   -0.7770 H   0  0  0  0  0  0  0  0  0  0  0  0
   -6.6610    0.5690   -1.4610 H   0  0  0  0  0  0  0  0  0  0  0  0
   -7.7710    0.8880   -0.1550 H   0  0  0  0  0  0  0  0  0  0  0  0
   -6.3230   -0.3930    1.4490 H   0  0  0  0  0  0  0  0  0  0  0  0
   -6.8990   -1.3900    0.1420 H   0  0  0  0  0  0  0  0  0  0  0  0
   -4.6600   -2.4060    1.5420 H   0  0  0  0  0  0  0  0  0  0  0  0
   -4.1770   -0.8170    2.0790 H   0  0  0  0  0  0  0  0  0  0  0  0
   -2.2240   -2.3060    1.8850 H   0  0  0  0  0  0  0  0  0  0  0  0
   -2.5920   -2.7040    0.2250 H   0  0  0  0  0  0  0  0  0  0  0  0
   -2.3330    1.2730   -2.3490 H   0  0  0  0  0  0  0  0  0  0  0  0
   -0.0080    1.7640   -1.8260 H   0  0  0  0  0  0  0  0  0  0  0  0
   -0.0560    0.2120   -2.6460 H   0  0  0  0  0  0  0  0  0  0  0  0
    0.3050    0.8250    0.3490 H   0  0  0  0  0  0  0  0  0  0  0  0
   -0.1380   -2.8790    1.2980 H   0  0  0  0  0  0  0  0  0  0  0  0
    0.2320   -1.3400    2.0480 H   0  0  0  0  0  0  0  0  0  0  0  0
    1.9170   -2.7890   -0.1070 H   0  0  0  0  0  0  0  0  0  0  0  0
    2.2970   -2.6430    1.6000 H   0  0  0  0  0  0  0  0  0  0  0  0
    2.1970   -0.0740    1.3600 H   0  0  0  0  0  0  0  0  0  0  0  0
    2.1770    1.6680   -1.9670 H   0  0  0  0  0  0  0  0  0  0  0  0
    2.2280    1.9590   -0.2370 H   0  0  0  0  0  0  0  0  0  0  0  0
    4.4890    2.1320   -1.2380 H   0  0  0  0  0  0  0  0  0  0  0  0
    4.3980    0.5240   -1.9180 H   0  0  0  0  0  0  0  0  0  0  0  0
    4.2810    1.2430    1.1120 H   0  0  0  0  0  0  0  0  0  0  0  0
    4.0110   -2.2430    2.2550 H   0  0  0  0  0  0  0  0  0  0  0  0
    4.1000   -0.5500    2.7360 H   0  0  0  0  0  0  0  0  0  0  0  0
    5.5220   -1.3460    2.0740 H   0  0  0  0  0  0  0  0  0  0  0  0
    5.6730   -2.0190   -0.2900 H   0  0  0  0  0  0  0  0  0  0  0  0
    4.4240   -1.6630   -1.4680 H   0  0  0  0  0  0  0  0  0  0  0  0
    4.1620   -2.9040   -0.2410 H   0  0  0  0  0  0  0  0  0  0  0  0
    8.4280    0.7680   -0.8000 H   0  0  0  0  0  0  0  0  0  0  0  0
    8.8360    2.0550    0.3560 H   0  0  0  0  0  0  0  0  0  0  0  0
    8.5060    0.4070    0.9320 H   0  0  0  0  0  0  0  0  0  0  0  0
    3.1360   -0.9800   -2.3670 H   0  0  0  0  0  0  0  0  0  0  0  0
    1.4730   -0.6660   -2.8570 H   0  0  0  0  0  0  0  0  0  0  0  0
    1.8520   -2.0630   -1.8390 H   0  0  0  0  0  0  0  0  0  0  0  0
   -1.2640   -3.0250   -0.8490 H   0  0  0  0  0  0  0  0  0  0  0  0
    0.2470   -2.5670   -1.6030 H   0  0  0  0  0  0  0  0  0  0  0  0
   -1.2410   -1.7260   -2.0180 H   0  0  0  0  0  0  0  0  0  0  0  0
   -4.3340    0.5260   -1.5900 H   0  0  0  0  0  0  0  0  0  0  0  0
   -4.2040    1.3360    1.3790 H   0  0  0  0  0  0  0  0  0  0  0  0
   -3.8420    3.6870    0.4480 H   0  0  0  0  0  0  0  0  0  0  0  0
   -3.5330    3.0010   -1.1450 H   0  0  0  0  0  0  0  0  0  0  0  0
   -2.4590    2.6330    0.2050 H   0  0  0  0  0  0  0  0  0  0  0  0
   -2.5820    0.7110    2.0430 H   0  0  0  0  0  0  0  0  0  0  0  0
   -1.1800   -0.2390    2.5680 H   0  0  0  0  0  0  0  0  0  0  0  0
   -0.9670    1.1230    1.4730 H   0  0  0  0  0  0  0  0  0  0  0  0
   -5.4710   -1.6410   -1.9750 H   0  0  0  0  0  0  0  0  0  0  0  0
   -3.8090   -2.0890   -1.6210 H   0  0  0  0  0  0  0  0  0  0  0  0
   -5.1390   -2.9260   -0.8180 H   0  0  0  0  0  0  0  0  0  0  0  0
  1  2  1  0
  1 35  1  0
  1 37  1  0
  1 36  1  0
  2 38  1  6
  2  3  1  0
  2 31  1  0
  3 39  1  0
  3 40  1  0
  3  4  1  0
  4  5  1  0
  4 42  1  0
  4 41  1  0
  5 34  1  6
  5 30  1  0
  5  6  1  0
  6  7  1  0
  6 43  1  0
  6 44  1  0
  7 46  1  0
  7  8  1  0
  7 45  1  0
  8  9  1  0
  8 13  1  0
  8 33  1  1
  9 10  2  0
  9 30  1  0
 10 47  1  0
 10 11  1  0
 11 49  1  0
 11 48  1  0
 11 12  1  0
 12 17  1  0
 12 13  1  0
 12 50  1  1
 13 29  1  6
 13 14  1  0
 14 15  1  0
 14 51  1  0
 14 52  1  0
 15 53  1  0
 15 16  1  0
 15 54  1  0
 16 17  1  0
 16 21  1  0
 16 55  1  1
 17 28  1  6
 17 18  1  0
 18 56  1  0
 18 19  1  0
 18 57  1  0
 19 59  1  0
 19 58  1  0
 19 20  1  0
 20 24  1  0
 20 21  1  0
 20 60  1  1
 21 23  1  6
 21 22  1  0
 22 63  1  0
 22 61  1  0
 22 62  1  0
 23 65  1  0
 23 64  1  0
 23 66  1  0
 24 25  1  0
 25 27  1  0
 25 26  2  0
 27 67  1  0
 27 68  1  0
 27 69  1  0
 28 71  1  0
 28 70  1  0
 28 72  1  0
 29 75  1  0
 29 74  1  0
 29 73  1  0
 30 76  1  6
 30 31  1  0
 31 32  1  0
 31 77  1  1
 32 79  1  0
 32 80  1  0
 32 78  1  0
 33 83  1  0
 33 81  1  0
 33 82  1  0
 34 84  1  0
 34 85  1  0
 34 86  1  0
M  END
>  <id>  (961) 
1081

>  <scaffolds>  (961) 
['C1=C2C3CCCCC3CCC2C2CCC3CCCCC3C2C1', 'C1=CCCCC1', 'C1=CCC2CCCCC2C1', 'C1CCCCC1', 'C=C1CCCC2CCCCC12', 'C1=C2CCCCC2CCC1', 'C1=C2C3CCCCC3CCC2C2CCCCC2C1', 'C1CCC2CCCCC2C1']

>  <name>  (961) 
Alpha-amyrin acetate

>  <formula>  (961) 
C32H52O2

>  <SMILES>  (961) 
C[C@@H]1CC[C@@]2(CC[C@@]3(C(=CC[C@H]4[C@]3(CC[C@@H]5[C@@]4(CC[C@@H](C5(C)C)OC(=O)C)C)C)[C@@H]2[C@H]1C)C)C

>  <ChEMBL_id>  (961) 
SCHEMBL3486683

>  <ZINC_id>  (961) 
ZINC3984053

>  <PubChem_id>  (961) 
92842

>  <DrugBank_id>  (961) 


>  <CAS_no>  (961) 
863-76-3

>  <references>  (961) 
[{'journal': {'name': 'South African Journal of Botany', 'id': 1}, 'title': 'The phytochemistry and gastroprotective activities of the leaves of Ficus glumosa', 'year': 2019, 'start_page': None, 'volume': None, 'issue': None, 'doi': '10.1016/j.sajb.2019.01.015', 'isbn': '', 'despositor': {'code': 'TMM', 'first_name': 'Thommas', 'last_name': 'Musyoka', 'id': 22}, 'refauthors_set': [{'author': {'first_name': 'Awolola', 'initials': 'AG', 'last_name': 'G.', 'id': 1070}, 'first_author': True, 'id': 1653}], 'id': 559}]

>  <classifications>  (961) 
[{'classification': 'Terpenoid', 'id': 839}, {'classification': 'Phenol lipids (Classyfire)', 'id': 951}]

>  <molecular_mass>  (961) 
468.8

$$$$
SANC01082_minRM1.pdb
     RDKit          3D

 41 40  0  0  0  0  0  0  0  0999 V2000
    7.0610   -1.6230   -0.4280 C   0  0  0  0  0  0  0  0  0  0  0  0
    7.0150   -0.3320    0.3710 C   0  0  0  0  0  0  0  0  0  0  0  0
    5.9270    0.6180   -0.1240 C   0  0  0  0  0  0  0  0  0  0  0  0
    4.5290    0.0480    0.0960 C   0  0  0  0  0  0  0  0  0  0  0  0
    3.4630    1.0880   -0.2550 C   0  0  0  0  0  0  0  0  0  0  0  0
    2.1020    0.5070   -0.0750 C   0  0  0  0  0  0  0  0  0  0  0  0
    1.1810    1.0620    0.7140 C   0  0  0  0  0  0  0  0  0  0  0  0
   -0.1470    0.4880    0.8780 C   0  0  0  0  0  0  0  0  0  0  0  0
   -0.8420    0.0000   -0.1500 C   0  0  0  0  0  0  0  0  0  0  0  0
   -2.1770   -0.6160    0.0380 C   0  0  0  0  0  0  0  0  0  0  0  0
   -2.4330   -1.7610   -0.3240 O   0  0  0  0  0  0  0  0  0  0  0  0
   -3.1200    0.1860    0.6640 N   0  0  0  0  0  0  0  0  0  0  0  0
   -4.4950   -0.2660    0.8700 C   0  0  0  0  0  0  0  0  0  0  0  0
   -5.3740   -0.0130   -0.3720 C   0  0  0  0  0  0  0  0  0  0  0  0
   -6.7600   -0.6000   -0.1270 C   0  0  0  0  0  0  0  0  0  0  0  0
   -5.4870    1.4780   -0.6590 C   0  0  0  0  0  0  0  0  0  0  0  0
    7.1010   -1.4440   -1.5120 H   0  0  0  0  0  0  0  0  0  0  0  0
    6.1910   -2.2690   -0.2430 H   0  0  0  0  0  0  0  0  0  0  0  0
    7.9470   -2.2250   -0.1760 H   0  0  0  0  0  0  0  0  0  0  0  0
    8.0020    0.1780    0.3180 H   0  0  0  0  0  0  0  0  0  0  0  0
    6.8780   -0.5520    1.4510 H   0  0  0  0  0  0  0  0  0  0  0  0
    6.0820    0.8560   -1.1980 H   0  0  0  0  0  0  0  0  0  0  0  0
    6.0290    1.5960    0.3940 H   0  0  0  0  0  0  0  0  0  0  0  0
    4.4030   -0.2850    1.1470 H   0  0  0  0  0  0  0  0  0  0  0  0
    4.3800   -0.8680   -0.5130 H   0  0  0  0  0  0  0  0  0  0  0  0
    3.6060    2.0100    0.3480 H   0  0  0  0  0  0  0  0  0  0  0  0
    3.5750    1.4260   -1.3080 H   0  0  0  0  0  0  0  0  0  0  0  0
    1.9030   -0.4160   -0.6320 H   0  0  0  0  0  0  0  0  0  0  0  0
    1.3760    1.9710    1.2950 H   0  0  0  0  0  0  0  0  0  0  0  0
   -0.5380    0.4810    1.9030 H   0  0  0  0  0  0  0  0  0  0  0  0
   -0.4720   -0.0110   -1.1800 H   0  0  0  0  0  0  0  0  0  0  0  0
   -2.9030    1.1530    0.8710 H   0  0  0  0  0  0  0  0  0  0  0  0
   -4.5040   -1.3510    1.1320 H   0  0  0  0  0  0  0  0  0  0  0  0
   -4.9180    0.2520    1.7630 H   0  0  0  0  0  0  0  0  0  0  0  0
   -4.9120   -0.5260   -1.2550 H   0  0  0  0  0  0  0  0  0  0  0  0
   -7.2630   -0.1440    0.7380 H   0  0  0  0  0  0  0  0  0  0  0  0
   -6.7250   -1.6840    0.0580 H   0  0  0  0  0  0  0  0  0  0  0  0
   -7.4240   -0.4540   -0.9910 H   0  0  0  0  0  0  0  0  0  0  0  0
   -6.1560    1.6810   -1.5080 H   0  0  0  0  0  0  0  0  0  0  0  0
   -5.8860    2.0420    0.1960 H   0  0  0  0  0  0  0  0  0  0  0  0
   -4.5200    1.9310   -0.9190 H   0  0  0  0  0  0  0  0  0  0  0  0
  1 17  1  0
  1 18  1  0
  1 19  1  0
  1  2  1  0
  2  3  1  0
  2 20  1  0
  2 21  1  0
  3 22  1  0
  3  4  1  0
  3 23  1  0
  4 25  1  0
  4  5  1  0
  4 24  1  0
  5 27  1  0
  5  6  1  0
  5 26  1  0
  6 28  1  0
  6  7  2  0
  7  8  1  0
  7 29  1  0
  8  9  2  0
  8 30  1  0
  9 31  1  0
  9 10  1  0
 10 11  2  0
 10 12  1  0
 12 13  1  0
 12 32  1  0
 13 14  1  0
 13 33  1  0
 13 34  1  0
 14 35  1  0
 14 16  1  0
 14 15  1  0
 15 38  1  0
 15 37  1  0
 15 36  1  0
 16 39  1  0
 16 41  1  0
 16 40  1  0
M  END
>  <id>  (962) 
1082

>  <scaffolds>  (962) 
[]

>  <name>  (962) 
Pellitorine

>  <formula>  (962) 
C14H25NO

>  <SMILES>  (962) 
CCCCC/C=C/C=C/C(=O)NCC(C)C

>  <ChEMBL_id>  (962) 
CHEMBL271242

>  <ZINC_id>  (962) 
ZINC13838505

>  <PubChem_id>  (962) 
5318516

>  <DrugBank_id>  (962) 


>  <CAS_no>  (962) 
18836-52-7

>  <references>  (962) 
[{'journal': {'name': 'South African Journal of Botany', 'id': 1}, 'title': 'Biological activities of extract from Coleonema album in vitro', 'year': 2019, 'start_page': None, 'volume': None, 'issue': None, 'doi': '10.1016/j.sajb.2019.06.015', 'isbn': '', 'despositor': {'code': 'TMM', 'first_name': 'Thommas', 'last_name': 'Musyoka', 'id': 22}, 'refauthors_set': [{'author': {'first_name': 'Rárová', 'initials': 'RL', 'last_name': 'L.', 'id': 1071}, 'first_author': True, 'id': 1654}], 'id': 560}]

>  <classifications>  (962) 
[{'classification': 'alkamide', 'id': 939}, {'classification': 'Fatty Acyls (Classyfire)', 'id': 957}]

>  <molecular_mass>  (962) 
223.35

$$$$
SANC01083_minRM1.pdb
     RDKit          3D

 55 57  0  0  1  0  0  0  0  0999 V2000
   -5.9290   -0.4050    0.8010 C   0  0  0  0  0  0  0  0  0  0  0  0
   -6.9200    0.3210    1.4380 C   0  0  0  0  0  0  0  0  0  0  0  0
   -7.5480    1.3580    0.7380 C   0  0  0  0  0  0  0  0  0  0  0  0
   -7.1960    1.6660   -0.5760 C   0  0  0  0  0  0  0  0  0  0  0  0
   -6.1990    0.9230   -1.1940 C   0  0  0  0  0  0  0  0  0  0  0  0
   -5.5660   -0.1110   -0.5130 C   0  0  0  0  0  0  0  0  0  0  0  0
   -4.4840   -0.9000   -1.1710 C   0  0  0  0  0  0  0  0  0  0  0  0
   -3.1290   -0.3820   -0.6910 C   0  0  0  0  0  0  0  0  0  0  0  0
   -1.9870   -1.1340   -1.3200 C   0  0  0  0  0  0  0  0  0  0  0  0
   -2.0450   -1.5890   -2.4490 O   0  0  0  0  0  0  0  0  0  0  0  0
   -0.7680   -1.2460   -0.5020 C   0  0  0  0  0  0  0  0  0  0  0  0
   -0.7810   -1.9440    0.7100 C   0  0  0  0  0  0  0  0  0  0  0  0
    0.3090   -1.9380    1.5760 C   0  0  0  0  0  0  0  0  0  0  0  0
    1.4500   -1.2290    1.1920 C   0  0  0  0  0  0  0  0  0  0  0  0
    1.5520   -0.5970   -0.0560 C   0  0  0  0  0  0  0  0  0  0  0  0
    0.4260   -0.6190   -0.8860 C   0  0  0  0  0  0  0  0  0  0  0  0
    0.5430    0.0640   -2.0460 O   0  0  0  0  0  0  0  0  0  0  0  0
    2.8070    0.1100   -0.4670 C   0  0  1  0  0  0  0  0  0  0  0  0
    2.8850    1.4820    0.2570 C   0  0  1  0  0  0  0  0  0  0  0  0
    4.2370    2.1370   -0.1190 C   0  0  2  0  0  0  0  0  0  0  0  0
    5.3710    1.1580    0.2820 C   0  0  1  0  0  0  0  0  0  0  0  0
    5.1350   -0.2060   -0.4070 C   0  0  2  0  0  0  0  0  0  0  0  0
    3.8740   -0.7130   -0.0530 O   0  0  0  0  0  0  0  0  0  0  0  0
    6.1210   -1.2780    0.1150 C   0  0  0  0  0  0  0  0  0  0  0  0
    7.4370   -0.9020   -0.1380 O   0  0  0  0  0  0  0  0  0  0  0  0
    6.5370    1.7390   -0.2180 O   0  0  0  0  0  0  0  0  0  0  0  0
    4.3200    3.3010    0.6410 O   0  0  0  0  0  0  0  0  0  0  0  0
    1.8070    2.2850   -0.0770 O   0  0  0  0  0  0  0  0  0  0  0  0
    2.5180   -1.1150    2.0050 O   0  0  0  0  0  0  0  0  0  0  0  0
   -1.8420   -2.6600    1.1460 O   0  0  0  0  0  0  0  0  0  0  0  0
   -8.5080    2.0230    1.4280 O   0  0  0  0  0  0  0  0  0  0  0  0
   -5.4300   -1.2190    1.3370 H   0  0  0  0  0  0  0  0  0  0  0  0
   -7.2110    0.0960    2.4680 H   0  0  0  0  0  0  0  0  0  0  0  0
   -7.6880    2.4770   -1.1200 H   0  0  0  0  0  0  0  0  0  0  0  0
   -5.9160    1.1610   -2.2240 H   0  0  0  0  0  0  0  0  0  0  0  0
   -4.5540   -0.8490   -2.2790 H   0  0  0  0  0  0  0  0  0  0  0  0
   -4.5910   -1.9830   -0.9440 H   0  0  0  0  0  0  0  0  0  0  0  0
   -3.0070    0.6940   -0.9470 H   0  0  0  0  0  0  0  0  0  0  0  0
   -3.0710   -0.3960    0.4190 H   0  0  0  0  0  0  0  0  0  0  0  0
    0.2550   -2.4760    2.5270 H   0  0  0  0  0  0  0  0  0  0  0  0
   -0.0860   -0.2680   -2.6980 H   0  0  0  0  0  0  0  0  0  0  0  0
    2.8520    0.2520   -1.5830 H   0  0  0  0  0  0  0  0  0  0  0  0
    2.7920    1.3690    1.3690 H   0  0  0  0  0  0  0  0  0  0  0  0
    4.2810    2.3580   -1.2210 H   0  0  0  0  0  0  0  0  0  0  0  0
    5.3880    1.0330    1.3990 H   0  0  0  0  0  0  0  0  0  0  0  0
    5.2390   -0.0970   -1.5210 H   0  0  0  0  0  0  0  0  0  0  0  0
    5.8720   -2.2790   -0.3100 H   0  0  0  0  0  0  0  0  0  0  0  0
    6.0670   -1.3890    1.2200 H   0  0  0  0  0  0  0  0  0  0  0  0
    7.5690   -0.8860   -1.0910 H   0  0  0  0  0  0  0  0  0  0  0  0
    7.2780    1.4170    0.3050 H   0  0  0  0  0  0  0  0  0  0  0  0
    5.1220    3.7620    0.3730 H   0  0  0  0  0  0  0  0  0  0  0  0
    1.8070    2.4230   -1.0310 H   0  0  0  0  0  0  0  0  0  0  0  0
    2.3660   -1.6340    2.8050 H   0  0  0  0  0  0  0  0  0  0  0  0
   -2.4710   -2.7920    0.4270 H   0  0  0  0  0  0  0  0  0  0  0  0
   -8.8710    2.7160    0.8660 H   0  0  0  0  0  0  0  0  0  0  0  0
  1  6  2  0
  1 32  1  0
  1  2  1  0
  2  3  2  0
  2 33  1  0
  3  4  1  0
  3 31  1  0
  4  5  2  0
  4 34  1  0
  5 35  1  0
  5  6  1  0
  6  7  1  0
  7 36  1  0
  7 37  1  0
  7  8  1  0
  8  9  1  0
  8 38  1  0
  8 39  1  0
  9 10  2  0
  9 11  1  0
 11 16  2  0
 11 12  1  0
 12 30  1  0
 12 13  2  0
 13 14  1  0
 13 40  1  0
 14 15  2  0
 14 29  1  0
 15 16  1  0
 15 18  1  0
 16 17  1  0
 17 41  1  0
 18 42  1  6
 18 23  1  0
 18 19  1  0
 19 20  1  0
 19 28  1  0
 19 43  1  1
 20 44  1  6
 20 21  1  0
 20 27  1  0
 21 22  1  0
 21 26  1  0
 21 45  1  1
 22 46  1  6
 22 23  1  0
 22 24  1  0
 24 47  1  0
 24 25  1  0
 24 48  1  0
 25 49  1  0
 26 50  1  0
 27 51  1  0
 28 52  1  0
 29 53  1  0
 30 54  1  0
 31 55  1  0
M  END
>  <id>  (963) 
1083

>  <scaffolds>  (963) 
['c1ccccc1', 'C1CCOCC1', 'O=C(CCc1ccccc1)c1ccccc1', 'O=C(CCc1ccccc1)c1cccc(C2CCCCO2)c1']

>  <name>  (963) 
Nothofagin

>  <formula>  (963) 
C21H24O10

>  <SMILES>  (963) 
C1=CC(=CC=C1CCC(=O)C2=C(C=C(C(=C2O)[C@H]3[C@@H]([C@H]([C@@H]([C@H](O3)CO)O)O)O)O)O)O

>  <ChEMBL_id>  (963) 
CHEMBL4082869

>  <ZINC_id>  (963) 


>  <PubChem_id>  (963) 
21722188

>  <DrugBank_id>  (963) 


>  <CAS_no>  (963) 
11023-94-2

>  <references>  (963) 
[{'journal': {'name': 'Journal of Agricultural and Food Chemistry', 'id': 71}, 'title': 'Safety Assessment of Phytochemicals Derived from the Globalized South African Rooibos Tea (Aspalathus linearis) through Interaction with CYP, PXR, and P-gp', 'year': 2019, 'start_page': None, 'volume': None, 'issue': None, 'doi': '10.1021/acs.jafc.9b00846', 'isbn': '', 'despositor': {'code': 'TMM', 'first_name': 'Thommas', 'last_name': 'Musyoka', 'id': 22}, 'refauthors_set': [{'author': {'first_name': 'Fantoukh', 'initials': 'FO', 'last_name': 'Omer', 'id': 1072}, 'first_author': True, 'id': 1655}], 'id': 561}]

>  <classifications>  (963) 
[{'classification': 'Phenol', 'id': 805}, {'classification': 'Linear 1,3-diarylpropanoids (Classyfire)', 'id': 943}]

>  <molecular_mass>  (963) 
436.4

$$$$
SANC01084_minRM1.pdb
     RDKit          3D

 50 51  0  0  1  0  0  0  0  0999 V2000
   -0.0530   -1.4310   -2.3960 C   0  0  0  0  0  0  0  0  0  0  0  0
    0.7140   -1.6890   -1.2410 O   0  0  0  0  0  0  0  0  0  0  0  0
    1.2360   -0.6020   -0.6080 C   0  0  0  0  0  0  0  0  0  0  0  0
    2.5470   -0.7690   -0.1400 C   0  0  0  0  0  0  0  0  0  0  0  0
    3.1530    0.2580    0.5690 C   0  0  0  0  0  0  0  0  0  0  0  0
    2.4840    1.4590    0.8210 C   0  0  0  0  0  0  0  0  0  0  0  0
    1.1880    1.6170    0.3500 C   0  0  0  0  0  0  0  0  0  0  0  0
    0.5480    0.5850   -0.3590 C   0  0  0  0  0  0  0  0  0  0  0  0
   -0.7010    0.8000   -0.8780 O   0  0  0  0  0  0  0  0  0  0  0  0
   -1.7310    0.6490    0.0660 C   0  0  1  0  0  0  0  0  0  0  0  0
   -3.0320    1.0550   -0.6900 C   0  0  1  0  0  0  0  0  0  0  0  0
   -4.2350    0.6350    0.1940 C   0  0  2  0  0  0  0  0  0  0  0  0
   -4.1130   -0.8830    0.4820 C   0  0  1  0  0  0  0  0  0  0  0  0
   -2.7600   -1.1420    1.1850 C   0  0  2  0  0  0  0  0  0  0  0  0
   -1.7220   -0.7330    0.3330 O   0  0  0  0  0  0  0  0  0  0  0  0
   -2.5050   -2.6480    1.4160 C   0  0  0  0  0  0  0  0  0  0  0  0
   -2.6880   -3.3790    0.2480 O   0  0  0  0  0  0  0  0  0  0  0  0
   -5.1560   -1.1800    1.3590 O   0  0  0  0  0  0  0  0  0  0  0  0
   -5.3660    0.8890   -0.5770 O   0  0  0  0  0  0  0  0  0  0  0  0
   -3.0440    2.4080   -0.9770 O   0  0  0  0  0  0  0  0  0  0  0  0
    0.4060    2.7120    0.5660 O   0  0  0  0  0  0  0  0  0  0  0  0
    1.0750    3.9150    0.8560 C   0  0  0  0  0  0  0  0  0  0  0  0
    4.5140    0.0940    1.0700 C   0  0  0  0  0  0  0  0  0  0  0  0
    5.4830   -0.4270    0.3180 C   0  0  0  0  0  0  0  0  0  0  0  0
    6.8690   -0.5840    0.8680 C   0  0  0  0  0  0  0  0  0  0  0  0
    7.6480   -1.1290   -0.1610 O   0  0  0  0  0  0  0  0  0  0  0  0
    0.0860   -2.3290   -3.0180 H   0  0  0  0  0  0  0  0  0  0  0  0
   -1.1230   -1.3330   -2.1510 H   0  0  0  0  0  0  0  0  0  0  0  0
    0.2620   -0.5460   -2.9710 H   0  0  0  0  0  0  0  0  0  0  0  0
    3.0710   -1.7110   -0.3250 H   0  0  0  0  0  0  0  0  0  0  0  0
    2.9960    2.2460    1.3790 H   0  0  0  0  0  0  0  0  0  0  0  0
   -1.5750    1.2520    1.0040 H   0  0  0  0  0  0  0  0  0  0  0  0
   -3.0850    0.5740   -1.7020 H   0  0  0  0  0  0  0  0  0  0  0  0
   -4.2490    1.2180    1.1550 H   0  0  0  0  0  0  0  0  0  0  0  0
   -4.1790   -1.4590   -0.4810 H   0  0  0  0  0  0  0  0  0  0  0  0
   -2.7240   -0.6080    2.1740 H   0  0  0  0  0  0  0  0  0  0  0  0
   -3.2410   -3.0650    2.1360 H   0  0  0  0  0  0  0  0  0  0  0  0
   -1.4990   -2.8040    1.8710 H   0  0  0  0  0  0  0  0  0  0  0  0
   -1.9710   -3.1570   -0.3580 H   0  0  0  0  0  0  0  0  0  0  0  0
   -5.3250   -2.1250    1.2930 H   0  0  0  0  0  0  0  0  0  0  0  0
   -6.1360    0.6850   -0.0360 H   0  0  0  0  0  0  0  0  0  0  0  0
   -2.9970    2.9030   -0.1520 H   0  0  0  0  0  0  0  0  0  0  0  0
    0.2900    4.6800    0.7540 H   0  0  0  0  0  0  0  0  0  0  0  0
    1.8940    4.1500    0.1570 H   0  0  0  0  0  0  0  0  0  0  0  0
    1.4630    3.9430    1.8880 H   0  0  0  0  0  0  0  0  0  0  0  0
    4.6890    0.4290    2.0980 H   0  0  0  0  0  0  0  0  0  0  0  0
    5.3180   -0.7480   -0.7170 H   0  0  0  0  0  0  0  0  0  0  0  0
    7.2680    0.4010    1.2110 H   0  0  0  0  0  0  0  0  0  0  0  0
    6.8570   -1.2400    1.7720 H   0  0  0  0  0  0  0  0  0  0  0  0
    8.5360   -1.2470    0.1870 H   0  0  0  0  0  0  0  0  0  0  0  0
  1 27  1  0
  1 29  1  0
  1 28  1  0
  1  2  1  0
  2  3  1  0
  3  8  2  0
  3  4  1  0
  4 30  1  0
  4  5  2  0
  5  6  1  0
  5 23  1  0
  6  7  2  0
  6 31  1  0
  7  8  1  0
  7 21  1  0
  8  9  1  0
  9 10  1  0
 10 11  1  0
 10 15  1  0
 10 32  1  1
 11 33  1  6
 11 20  1  0
 11 12  1  0
 12 19  1  0
 12 13  1  0
 12 34  1  1
 13 35  1  6
 13 14  1  0
 13 18  1  0
 14 15  1  0
 14 16  1  0
 14 36  1  1
 16 17  1  0
 16 38  1  0
 16 37  1  0
 17 39  1  0
 18 40  1  0
 19 41  1  0
 20 42  1  0
 21 22  1  0
 22 44  1  0
 22 43  1  0
 22 45  1  0
 23 24  2  0
 23 46  1  0
 24 47  1  0
 24 25  1  0
 25 26  1  0
 25 48  1  0
 25 49  1  0
 26 50  1  0
M  END
>  <id>  (964) 
1084

>  <scaffolds>  (964) 
['c1ccccc1', 'C1CCOCC1', 'c1ccc(OC2CCCCO2)cc1']

>  <name>  (964) 
Syringin

>  <formula>  (964) 
C17H24O9

>  <SMILES>  (964) 
COC1=CC(=CC(=C1O[C@H]2[C@@H]([C@H]([C@@H]([C@H](O2)CO)O)O)O)OC)/C=C/CO

>  <ChEMBL_id>  (964) 
SCHEMBL409032

>  <ZINC_id>  (964) 
ZINC3779261

>  <PubChem_id>  (964) 
5316860

>  <DrugBank_id>  (964) 


>  <CAS_no>  (964) 
118-34-3

>  <references>  (964) 
[{'journal': {'name': 'Journal of Agricultural and Food Chemistry', 'id': 71}, 'title': 'Safety Assessment of Phytochemicals Derived from the Globalized South African Rooibos Tea (Aspalathus linearis) through Interaction with CYP, PXR, and P-gp', 'year': 2019, 'start_page': None, 'volume': None, 'issue': None, 'doi': '10.1021/acs.jafc.9b00846', 'isbn': '', 'despositor': {'code': 'TMM', 'first_name': 'Thommas', 'last_name': 'Musyoka', 'id': 22}, 'refauthors_set': [{'author': {'first_name': 'Fantoukh', 'initials': 'FO', 'last_name': 'Omer', 'id': 1072}, 'first_author': True, 'id': 1655}], 'id': 561}]

>  <classifications>  (964) 
[{'classification': 'Phenols', 'id': 895}, {'classification': 'Organooxygen compounds (Classyfire)', 'id': 954}]

>  <molecular_mass>  (964) 
372.4

$$$$
SANC01085_minRM1.pdb
     RDKit          3D

 73 77  0  0  1  0  0  0  0  0999 V2000
    7.8650    1.8670    0.5400 C   0  0  0  0  0  0  0  0  0  0  0  0
    6.8590    0.7310    0.3700 C   0  0  1  0  0  0  0  0  0  0  0  0
    7.3980   -0.5910    0.9730 C   0  0  1  0  0  0  0  0  0  0  0  0
    6.3620   -1.7260    0.7580 C   0  0  2  0  0  0  0  0  0  0  0  0
    4.9460   -1.1380    0.5120 C   0  0  2  0  0  0  0  0  0  0  0  0
    4.7420    0.1640    1.3290 C   0  0  1  0  0  0  0  0  0  0  0  0
    5.7250    1.1380    1.0940 O   0  0  0  0  0  0  0  0  0  0  0  0
    3.5260    0.7980    1.0960 O   0  0  0  0  0  0  0  0  0  0  0  0
    3.2540    1.2810   -0.1920 C   0  0  0  0  0  0  0  0  0  0  0  0
    2.2280    0.3460   -0.8710 C   0  0  2  0  0  0  0  0  0  0  0  0
    2.0800    0.7290   -2.3650 C   0  0  2  0  0  0  0  0  0  0  0  0
    0.7430    0.1840   -2.9490 C   0  0  1  0  0  0  0  0  0  0  0  0
    0.0900   -0.8730   -2.0220 C   0  0  2  0  0  0  0  0  0  0  0  0
    0.0370   -0.3870   -0.5370 C   0  0  1  0  0  0  0  0  0  0  0  0
    0.9990    0.5970   -0.2380 O   0  0  0  0  0  0  0  0  0  0  0  0
   -1.1410    0.3750   -0.3500 O   0  0  0  0  0  0  0  0  0  0  0  0
   -2.3120   -0.2910   -0.1300 C   0  0  0  0  0  0  0  0  0  0  0  0
   -3.3650    0.5280    0.1450 C   0  0  0  0  0  0  0  0  0  0  0  0
   -4.6360    0.0760    0.3740 O   0  0  0  0  0  0  0  0  0  0  0  0
   -4.8690   -1.2620    0.3530 C   0  0  0  0  0  0  0  0  0  0  0  0
   -6.1830   -1.6430    0.5990 C   0  0  0  0  0  0  0  0  0  0  0  0
   -6.4580   -3.0170    0.5840 C   0  0  0  0  0  0  0  0  0  0  0  0
   -5.4810   -3.9870    0.3410 C   0  0  0  0  0  0  0  0  0  0  0  0
   -4.1780   -3.5560    0.0940 C   0  0  0  0  0  0  0  0  0  0  0  0
   -3.8510   -2.1800    0.0930 C   0  0  0  0  0  0  0  0  0  0  0  0
   -2.5070   -1.7380   -0.1830 C   0  0  0  0  0  0  0  0  0  0  0  0
   -1.6330   -2.5740   -0.4480 O   0  0  0  0  0  0  0  0  0  0  0  0
   -3.2710   -4.5070   -0.1400 O   0  0  0  0  0  0  0  0  0  0  0  0
   -7.6960   -3.5020    0.8050 O   0  0  0  0  0  0  0  0  0  0  0  0
   -3.3460    1.9860    0.2310 C   0  0  0  0  0  0  0  0  0  0  0  0
   -3.9690    2.6160    1.3080 C   0  0  0  0  0  0  0  0  0  0  0  0
   -3.9510    4.0040    1.3740 C   0  0  0  0  0  0  0  0  0  0  0  0
   -3.3190    4.7600    0.3730 C   0  0  0  0  0  0  0  0  0  0  0  0
   -2.7030    4.1140   -0.7010 C   0  0  0  0  0  0  0  0  0  0  0  0
   -2.7190    2.7270   -0.7690 C   0  0  0  0  0  0  0  0  0  0  0  0
   -3.2760    6.1100    0.3500 O   0  0  0  0  0  0  0  0  0  0  0  0
   -4.5770    4.7100    2.3570 O   0  0  0  0  0  0  0  0  0  0  0  0
    0.9170   -1.9910   -2.1190 O   0  0  0  0  0  0  0  0  0  0  0  0
   -0.2170    1.1950   -3.0360 O   0  0  0  0  0  0  0  0  0  0  0  0
    3.1920    0.1520   -2.9810 O   0  0  0  0  0  0  0  0  0  0  0  0
    3.9810   -2.0080    1.0180 O   0  0  0  0  0  0  0  0  0  0  0  0
    6.3580   -2.6150    1.8240 O   0  0  0  0  0  0  0  0  0  0  0  0
    8.5350   -0.9800    0.2630 O   0  0  0  0  0  0  0  0  0  0  0  0
    8.1890    1.9950    1.5830 H   0  0  0  0  0  0  0  0  0  0  0  0
    8.7630    1.7010   -0.0720 H   0  0  0  0  0  0  0  0  0  0  0  0
    7.4430    2.8330    0.2250 H   0  0  0  0  0  0  0  0  0  0  0  0
    6.6200    0.5980   -0.7190 H   0  0  0  0  0  0  0  0  0  0  0  0
    7.6040   -0.4470    2.0690 H   0  0  0  0  0  0  0  0  0  0  0  0
    6.6570   -2.3830   -0.1050 H   0  0  0  0  0  0  0  0  0  0  0  0
    4.8070   -0.9520   -0.5870 H   0  0  0  0  0  0  0  0  0  0  0  0
    4.6960   -0.0300    2.4360 H   0  0  0  0  0  0  0  0  0  0  0  0
    4.1450    1.4070   -0.8460 H   0  0  0  0  0  0  0  0  0  0  0  0
    2.8360    2.2990   -0.0270 H   0  0  0  0  0  0  0  0  0  0  0  0
    2.5440   -0.7260   -0.7550 H   0  0  0  0  0  0  0  0  0  0  0  0
    2.1140    1.8500   -2.4720 H   0  0  0  0  0  0  0  0  0  0  0  0
    0.9160   -0.2830   -3.9600 H   0  0  0  0  0  0  0  0  0  0  0  0
   -0.9500   -1.0860   -2.3950 H   0  0  0  0  0  0  0  0  0  0  0  0
    0.1610   -1.2200    0.2090 H   0  0  0  0  0  0  0  0  0  0  0  0
   -6.9540   -0.8950    0.7900 H   0  0  0  0  0  0  0  0  0  0  0  0
   -5.7300   -5.0520    0.3420 H   0  0  0  0  0  0  0  0  0  0  0  0
   -2.3800   -4.1100   -0.3050 H   0  0  0  0  0  0  0  0  0  0  0  0
   -8.3090   -2.7710    0.9520 H   0  0  0  0  0  0  0  0  0  0  0  0
   -4.4610    2.0280    2.0880 H   0  0  0  0  0  0  0  0  0  0  0  0
   -2.2080    4.7030   -1.4790 H   0  0  0  0  0  0  0  0  0  0  0  0
   -2.2320    2.2260   -1.6150 H   0  0  0  0  0  0  0  0  0  0  0  0
   -3.6490    6.4640    1.1660 H   0  0  0  0  0  0  0  0  0  0  0  0
   -4.5770    4.1690    3.1540 H   0  0  0  0  0  0  0  0  0  0  0  0
    0.4300   -2.7470   -1.7730 H   0  0  0  0  0  0  0  0  0  0  0  0
    0.1200    1.8730   -3.6290 H   0  0  0  0  0  0  0  0  0  0  0  0
    3.1360    0.3240   -3.9260 H   0  0  0  0  0  0  0  0  0  0  0  0
    4.0830   -2.8520    0.5620 H   0  0  0  0  0  0  0  0  0  0  0  0
    5.9730   -2.1830    2.5950 H   0  0  0  0  0  0  0  0  0  0  0  0
    9.2950   -0.5790    0.6940 H   0  0  0  0  0  0  0  0  0  0  0  0
  1 45  1  0
  1 46  1  0
  1  2  1  0
  1 44  1  0
  2 47  1  6
  2  3  1  0
  2  7  1  0
  3 43  1  0
  3  4  1  0
  3 48  1  1
  4 49  1  6
  4  5  1  0
  4 42  1  0
  5 50  1  6
  5 41  1  0
  5  6  1  0
  6  7  1  0
  6  8  1  0
  6 51  1  1
  8  9  1  0
  9 10  1  0
  9 52  1  0
  9 53  1  0
 10 11  1  0
 10 54  1  6
 10 15  1  0
 11 40  1  0
 11 12  1  0
 11 55  1  1
 12 56  1  6
 12 39  1  0
 12 13  1  0
 13 57  1  6
 13 38  1  0
 13 14  1  0
 14 16  1  0
 14 15  1  0
 14 58  1  1
 16 17  1  0
 17 26  1  0
 17 18  2  0
 18 30  1  0
 18 19  1  0
 19 20  1  0
 20 25  2  0
 20 21  1  0
 21 22  2  0
 21 59  1  0
 22 23  1  0
 22 29  1  0
 23 24  2  0
 23 60  1  0
 24 28  1  0
 24 25  1  0
 25 26  1  0
 26 27  2  0
 28 61  1  0
 29 62  1  0
 30 35  2  0
 30 31  1  0
 31 32  2  0
 31 63  1  0
 32 33  1  0
 32 37  1  0
 33 34  2  0
 33 36  1  0
 34 64  1  0
 34 35  1  0
 35 65  1  0
 36 66  1  0
 37 67  1  0
 38 68  1  0
 39 69  1  0
 40 70  1  0
 41 71  1  0
 42 72  1  0
 43 73  1  0
M  END
>  <id>  (965) 
1085

>  <scaffolds>  (965) 
['c1ccccc1', 'O=c1cc(-c2ccccc2)oc2ccccc12', 'O=c1c(OC2CCCCO2)c(-c2ccccc2)oc2ccccc12', 'C1CCOCC1', 'O=c1ccoc2ccccc12', 'O=c1c(OC2CCCC(COC3CCCCO3)O2)c(-c2ccccc2)oc2ccccc12']

>  <name>  (965) 
Rutin

>  <formula>  (965) 
C27H30O16

>  <SMILES>  (965) 
C[C@H]1[C@@H]([C@H]([C@H]([C@@H](O1)OC[C@@H]2[C@H]([C@@H]([C@H]([C@@H](O2)OC3=C(OC4=CC(=CC(=C4C3=O)O)O)C5=CC(=C(C=C5)O)O)O)O)O)O)O)O

>  <ChEMBL_id>  (965) 


>  <ZINC_id>  (965) 
ZINC4096846

>  <PubChem_id>  (965) 
5280805

>  <DrugBank_id>  (965) 


>  <CAS_no>  (965) 
153-18-4

>  <references>  (965) 
[{'journal': {'name': 'Journal of Agricultural and Food Chemistry', 'id': 71}, 'title': 'Safety Assessment of Phytochemicals Derived from the Globalized South African Rooibos Tea (Aspalathus linearis) through Interaction with CYP, PXR, and P-gp', 'year': 2019, 'start_page': None, 'volume': None, 'issue': None, 'doi': '10.1021/acs.jafc.9b00846', 'isbn': '', 'despositor': {'code': 'TMM', 'first_name': 'Thommas', 'last_name': 'Musyoka', 'id': 22}, 'refauthors_set': [{'author': {'first_name': 'Fantoukh', 'initials': 'FO', 'last_name': 'Omer', 'id': 1072}, 'first_author': True, 'id': 1655}], 'id': 561}]

>  <classifications>  (965) 
[{'classification': 'Phenols', 'id': 895}, {'classification': 'Flavonoids (Classyfire)', 'id': 941}]

>  <molecular_mass>  (965) 
610.5

$$$$
SANC01086_minRM1.pdb
     RDKit          3D

 51 54  0  0  1  0  0  0  0  0999 V2000
   -4.3500    0.7010    0.7050 C   0  0  0  0  0  0  0  0  0  0  0  0
   -5.1100    1.8570    0.6750 C   0  0  0  0  0  0  0  0  0  0  0  0
   -4.7460    2.8810   -0.2080 C   0  0  0  0  0  0  0  0  0  0  0  0
   -3.6360    2.7620   -1.0470 C   0  0  0  0  0  0  0  0  0  0  0  0
   -2.8840    1.5970   -1.0030 C   0  0  0  0  0  0  0  0  0  0  0  0
   -3.2440    0.5660   -0.1380 C   0  0  0  0  0  0  0  0  0  0  0  0
   -2.4830   -0.6810   -0.1030 C   0  0  0  0  0  0  0  0  0  0  0  0
   -3.0260   -1.9100   -0.0150 C   0  0  0  0  0  0  0  0  0  0  0  0
   -2.1640   -3.0770    0.0090 C   0  0  0  0  0  0  0  0  0  0  0  0
   -2.5730   -4.2390    0.1050 O   0  0  0  0  0  0  0  0  0  0  0  0
   -0.7470   -2.8010   -0.0980 C   0  0  0  0  0  0  0  0  0  0  0  0
   -0.2810   -1.4900   -0.1840 C   0  0  0  0  0  0  0  0  0  0  0  0
   -1.1430   -0.4330   -0.1810 O   0  0  0  0  0  0  0  0  0  0  0  0
    1.0760   -1.1810   -0.2880 C   0  0  0  0  0  0  0  0  0  0  0  0
    1.9680   -2.2700   -0.3450 C   0  0  0  0  0  0  0  0  0  0  0  0
    1.5500   -3.6010   -0.2520 C   0  0  0  0  0  0  0  0  0  0  0  0
    0.1880   -3.8580   -0.1170 C   0  0  0  0  0  0  0  0  0  0  0  0
   -0.1820   -5.1370   -0.0220 O   0  0  0  0  0  0  0  0  0  0  0  0
    3.2960   -2.1130   -0.4740 O   0  0  0  0  0  0  0  0  0  0  0  0
    1.5330    0.2440   -0.2530 C   0  0  1  0  0  0  0  0  0  0  0  0
    1.8560    0.6650    1.2020 C   0  0  1  0  0  0  0  0  0  0  0  0
    2.1860    2.1810    1.2160 C   0  0  2  0  0  0  0  0  0  0  0  0
    2.8280    2.6420   -0.1210 C   0  0  1  0  0  0  0  0  0  0  0  0
    3.4720    1.4970   -0.9390 C   0  0  2  0  0  0  0  0  0  0  0  0
    2.7310    0.3030   -1.0030 O   0  0  0  0  0  0  0  0  0  0  0  0
    4.8720    1.1080   -0.3960 C   0  0  0  0  0  0  0  0  0  0  0  0
    5.6400    2.2740   -0.4610 O   0  0  0  0  0  0  0  0  0  0  0  0
    1.7670    3.1700   -0.8640 O   0  0  0  0  0  0  0  0  0  0  0  0
    2.9800    2.5020    2.3100 O   0  0  0  0  0  0  0  0  0  0  0  0
    0.6990    0.4230    1.9390 O   0  0  0  0  0  0  0  0  0  0  0  0
   -5.5420    3.9750   -0.1820 O   0  0  0  0  0  0  0  0  0  0  0  0
   -4.6170   -0.1020    1.4010 H   0  0  0  0  0  0  0  0  0  0  0  0
   -5.9800    1.9750    1.3270 H   0  0  0  0  0  0  0  0  0  0  0  0
   -3.3510    3.5660   -1.7300 H   0  0  0  0  0  0  0  0  0  0  0  0
   -2.0090    1.4940   -1.6540 H   0  0  0  0  0  0  0  0  0  0  0  0
   -4.1060   -2.0650    0.0250 H   0  0  0  0  0  0  0  0  0  0  0  0
    2.2740   -4.4190   -0.2860 H   0  0  0  0  0  0  0  0  0  0  0  0
   -1.1690   -5.2130    0.0600 H   0  0  0  0  0  0  0  0  0  0  0  0
    3.4990   -1.1970   -0.7440 H   0  0  0  0  0  0  0  0  0  0  0  0
    0.7710    0.9270   -0.7150 H   0  0  0  0  0  0  0  0  0  0  0  0
    2.7170    0.0540    1.5910 H   0  0  0  0  0  0  0  0  0  0  0  0
    1.2530    2.7810    1.4170 H   0  0  0  0  0  0  0  0  0  0  0  0
    3.6020    3.4330    0.0880 H   0  0  0  0  0  0  0  0  0  0  0  0
    3.5810    1.8140   -2.0130 H   0  0  0  0  0  0  0  0  0  0  0  0
    5.3050    0.2790   -1.0050 H   0  0  0  0  0  0  0  0  0  0  0  0
    4.8230    0.7150    0.6450 H   0  0  0  0  0  0  0  0  0  0  0  0
    6.5650    2.0110   -0.4560 H   0  0  0  0  0  0  0  0  0  0  0  0
    2.1380    3.7670   -1.5200 H   0  0  0  0  0  0  0  0  0  0  0  0
    3.8550    2.1180    2.1950 H   0  0  0  0  0  0  0  0  0  0  0  0
    0.8940    0.6550    2.8540 H   0  0  0  0  0  0  0  0  0  0  0  0
   -5.2070    4.6230   -0.8130 H   0  0  0  0  0  0  0  0  0  0  0  0
  1  6  2  0
  1  2  1  0
  1 32  1  0
  2  3  2  0
  2 33  1  0
  3  4  1  0
  3 31  1  0
  4 34  1  0
  4  5  2  0
  5 35  1  0
  5  6  1  0
  6  7  1  0
  7 13  1  0
  7  8  2  0
  8  9  1  0
  8 36  1  0
  9 11  1  0
  9 10  2  0
 11 12  2  0
 11 17  1  0
 12 14  1  0
 12 13  1  0
 14 15  2  0
 14 20  1  0
 15 19  1  0
 15 16  1  0
 16 37  1  0
 16 17  2  0
 17 18  1  0
 18 38  1  0
 19 39  1  0
 20 25  1  0
 20 40  1  6
 20 21  1  0
 21 22  1  0
 21 41  1  1
 21 30  1  0
 22 23  1  0
 22 42  1  1
 22 29  1  0
 23 24  1  0
 23 28  1  0
 23 43  1  1
 24 44  1  6
 24 25  1  0
 24 26  1  0
 26 45  1  0
 26 27  1  0
 26 46  1  0
 27 47  1  0
 28 48  1  0
 29 49  1  0
 30 50  1  0
 31 51  1  0
M  END
>  <id>  (966) 
1086

>  <scaffolds>  (966) 
['c1ccccc1', 'O=c1cc(-c2ccccc2)oc2ccccc12', 'C1CCOCC1', 'O=c1ccoc2ccccc12', 'O=c1ccoc2c(C3CCCCO3)cccc12', 'O=c1cc(-c2ccccc2)oc2c(C3CCCCO3)cccc12']

>  <name>  (966) 
Vitexin

>  <formula>  (966) 
C21H20O10

>  <SMILES>  (966) 
C1=CC(=CC=C1C2=CC(=O)C3=C(O2)C(=C(C=C3O)O)[C@H]4[C@@H]([C@H]([C@@H]([C@H](O4)CO)O)O)O)O

>  <ChEMBL_id>  (966) 
CHEMBL487417

>  <ZINC_id>  (966) 
ZINC4245684

>  <PubChem_id>  (966) 
5280441

>  <DrugBank_id>  (966) 


>  <CAS_no>  (966) 
3681-93-4

>  <references>  (966) 
[{'journal': {'name': 'Journal of Agricultural and Food Chemistry', 'id': 71}, 'title': 'Safety Assessment of Phytochemicals Derived from the Globalized South African Rooibos Tea (Aspalathus linearis) through Interaction with CYP, PXR, and P-gp', 'year': 2019, 'start_page': None, 'volume': None, 'issue': None, 'doi': '10.1021/acs.jafc.9b00846', 'isbn': '', 'despositor': {'code': 'TMM', 'first_name': 'Thommas', 'last_name': 'Musyoka', 'id': 22}, 'refauthors_set': [{'author': {'first_name': 'Fantoukh', 'initials': 'FO', 'last_name': 'Omer', 'id': 1072}, 'first_author': True, 'id': 1655}], 'id': 561}]

>  <classifications>  (966) 
[{'classification': 'Glycoside', 'id': 781}, {'classification': 'Flavonoids (Classyfire)', 'id': 941}]

>  <molecular_mass>  (966) 
432.4

$$$$
SANC01087_minRM1.pdb
     RDKit          3D

 51 54  0  0  1  0  0  0  0  0999 V2000
    5.9320   -0.7550    0.5900 C   0  0  0  0  0  0  0  0  0  0  0  0
    7.2560   -0.3420    0.5950 C   0  0  0  0  0  0  0  0  0  0  0  0
    7.5780    0.8970    0.0380 C   0  0  0  0  0  0  0  0  0  0  0  0
    6.5970    1.7290   -0.5150 C   0  0  0  0  0  0  0  0  0  0  0  0
    5.2820    1.2990   -0.5150 C   0  0  0  0  0  0  0  0  0  0  0  0
    4.9470    0.0560    0.0280 C   0  0  0  0  0  0  0  0  0  0  0  0
    3.5690   -0.4250   -0.0070 C   0  0  0  0  0  0  0  0  0  0  0  0
    3.2040   -1.6990   -0.2500 C   0  0  0  0  0  0  0  0  0  0  0  0
    1.7990   -2.0600   -0.2810 C   0  0  0  0  0  0  0  0  0  0  0  0
    1.3780   -3.2080   -0.4570 O   0  0  0  0  0  0  0  0  0  0  0  0
    0.8750   -0.9580   -0.1100 C   0  0  0  0  0  0  0  0  0  0  0  0
    1.3560    0.3300    0.1270 C   0  0  0  0  0  0  0  0  0  0  0  0
    2.6910    0.5930    0.2340 O   0  0  0  0  0  0  0  0  0  0  0  0
    0.5170    1.4230    0.2610 C   0  0  0  0  0  0  0  0  0  0  0  0
   -0.8630    1.1970    0.1150 C   0  0  0  0  0  0  0  0  0  0  0  0
   -1.4090   -0.0810   -0.0970 C   0  0  0  0  0  0  0  0  0  0  0  0
   -0.5160   -1.1560   -0.2080 C   0  0  0  0  0  0  0  0  0  0  0  0
   -1.0270   -2.3760   -0.3890 O   0  0  0  0  0  0  0  0  0  0  0  0
   -2.8840   -0.3040   -0.2600 C   0  0  1  0  0  0  0  0  0  0  0  0
   -3.5810   -0.4610    1.1160 C   0  0  1  0  0  0  0  0  0  0  0  0
   -5.1040   -0.7000    0.9080 C   0  0  2  0  0  0  0  0  0  0  0  0
   -5.5830   -0.2270   -0.4910 C   0  0  1  0  0  0  0  0  0  0  0  0
   -4.7850    0.9960   -0.9750 C   0  0  2  0  0  0  0  0  0  0  0  0
   -3.3840    0.8670   -0.8760 O   0  0  0  0  0  0  0  0  0  0  0  0
   -5.1590    2.2720   -0.1690 C   0  0  0  0  0  0  0  0  0  0  0  0
   -6.5210    2.5280   -0.2760 O   0  0  0  0  0  0  0  0  0  0  0  0
   -5.3520   -1.2230   -1.4430 O   0  0  0  0  0  0  0  0  0  0  0  0
   -5.8330    0.0770    1.8130 O   0  0  0  0  0  0  0  0  0  0  0  0
   -3.1470   -1.5870    1.8130 O   0  0  0  0  0  0  0  0  0  0  0  0
   -1.6130    2.3020    0.2140 O   0  0  0  0  0  0  0  0  0  0  0  0
    8.8390    1.3840   -0.0090 O   0  0  0  0  0  0  0  0  0  0  0  0
    5.6700   -1.7190    1.0390 H   0  0  0  0  0  0  0  0  0  0  0  0
    8.0250   -0.9850    1.0320 H   0  0  0  0  0  0  0  0  0  0  0  0
    6.8710    2.6990   -0.9400 H   0  0  0  0  0  0  0  0  0  0  0  0
    4.5060    1.9400   -0.9500 H   0  0  0  0  0  0  0  0  0  0  0  0
    3.9370   -2.4830   -0.4530 H   0  0  0  0  0  0  0  0  0  0  0  0
    0.9020    2.4280    0.4520 H   0  0  0  0  0  0  0  0  0  0  0  0
   -0.3050   -3.0550   -0.4990 H   0  0  0  0  0  0  0  0  0  0  0  0
   -3.0680   -1.1960   -0.9170 H   0  0  0  0  0  0  0  0  0  0  0  0
   -3.3950    0.4650    1.7300 H   0  0  0  0  0  0  0  0  0  0  0  0
   -5.3480   -1.7930    1.0330 H   0  0  0  0  0  0  0  0  0  0  0  0
   -6.6800    0.0230   -0.4610 H   0  0  0  0  0  0  0  0  0  0  0  0
   -4.9780    1.1690   -2.0680 H   0  0  0  0  0  0  0  0  0  0  0  0
   -4.7970    2.2180    0.8820 H   0  0  0  0  0  0  0  0  0  0  0  0
   -4.6700    3.1640   -0.6220 H   0  0  0  0  0  0  0  0  0  0  0  0
   -6.9660    2.0650    0.4420 H   0  0  0  0  0  0  0  0  0  0  0  0
   -5.9840   -1.9330   -1.2890 H   0  0  0  0  0  0  0  0  0  0  0  0
   -5.6530   -0.2630    2.6950 H   0  0  0  0  0  0  0  0  0  0  0  0
   -2.1850   -1.6000    1.8060 H   0  0  0  0  0  0  0  0  0  0  0  0
   -2.5110    2.1320   -0.1420 H   0  0  0  0  0  0  0  0  0  0  0  0
    9.4420    0.7410    0.3830 H   0  0  0  0  0  0  0  0  0  0  0  0
  1  6  2  0
  1  2  1  0
  1 32  1  0
  2  3  2  0
  2 33  1  0
  3  4  1  0
  3 31  1  0
  4 34  1  0
  4  5  2  0
  5 35  1  0
  5  6  1  0
  6  7  1  0
  7  8  2  0
  7 13  1  0
  8 36  1  0
  8  9  1  0
  9 10  2  0
  9 11  1  0
 11 17  2  0
 11 12  1  0
 12 13  1  0
 12 14  2  0
 14 15  1  0
 14 37  1  0
 15 16  2  0
 15 30  1  0
 16 19  1  0
 16 17  1  0
 17 18  1  0
 18 38  1  0
 19 39  1  6
 19 24  1  0
 19 20  1  0
 20 21  1  0
 20 40  1  1
 20 29  1  0
 21 22  1  0
 21 41  1  1
 21 28  1  0
 22 27  1  0
 22 23  1  0
 22 42  1  1
 23 43  1  6
 23 24  1  0
 23 25  1  0
 25 45  1  0
 25 26  1  0
 25 44  1  0
 26 46  1  0
 27 47  1  0
 28 48  1  0
 29 49  1  0
 30 50  1  0
 31 51  1  0
M  END
>  <id>  (967) 
1087

>  <scaffolds>  (967) 
['c1ccccc1', 'O=c1cc(-c2ccccc2)oc2ccccc12', 'C1CCOCC1', 'O=c1ccoc2ccccc12', 'O=c1cc(-c2ccccc2)oc2ccc(C3CCCCO3)cc12']

>  <name>  (967) 
Isovitexin

>  <formula>  (967) 
C21H20O10

>  <SMILES>  (967) 
C1=CC(=CC=C1C2=CC(=O)C3=C(O2)C=C(C(=C3O)[C@H]4[C@@H]([C@H]([C@@H]([C@H](O4)CO)O)O)O)O)O

>  <ChEMBL_id>  (967) 
CHEMBL465360

>  <ZINC_id>  (967) 
ZINC4095704

>  <PubChem_id>  (967) 
162350

>  <DrugBank_id>  (967) 


>  <CAS_no>  (967) 
38953-85-4

>  <references>  (967) 
[{'journal': {'name': 'Journal of Agricultural and Food Chemistry', 'id': 71}, 'title': 'Safety Assessment of Phytochemicals Derived from the Globalized South African Rooibos Tea (Aspalathus linearis) through Interaction with CYP, PXR, and P-gp', 'year': 2019, 'start_page': None, 'volume': None, 'issue': None, 'doi': '10.1021/acs.jafc.9b00846', 'isbn': '', 'despositor': {'code': 'TMM', 'first_name': 'Thommas', 'last_name': 'Musyoka', 'id': 22}, 'refauthors_set': [{'author': {'first_name': 'Fantoukh', 'initials': 'FO', 'last_name': 'Omer', 'id': 1072}, 'first_author': True, 'id': 1655}], 'id': 561}]

>  <classifications>  (967) 
[{'classification': 'Glycoside', 'id': 781}, {'classification': 'Flavonoids (Classyfire)', 'id': 941}]

>  <molecular_mass>  (967) 
432.4

$$$$
SANC01088_minRM1.pdb
     RDKit          3D

 56 58  0  0  1  0  0  0  0  0999 V2000
   -5.7160    1.9340   -0.6360 C   0  0  0  0  0  0  0  0  0  0  0  0
   -6.8970    1.7870    0.0840 C   0  0  0  0  0  0  0  0  0  0  0  0
   -7.2130    0.5480    0.6330 C   0  0  0  0  0  0  0  0  0  0  0  0
   -6.3450   -0.5440    0.4500 C   0  0  0  0  0  0  0  0  0  0  0  0
   -5.1730   -0.3920   -0.2830 C   0  0  0  0  0  0  0  0  0  0  0  0
   -4.8610    0.8540   -0.8210 C   0  0  0  0  0  0  0  0  0  0  0  0
   -3.5980    1.0370   -1.5960 C   0  0  0  0  0  0  0  0  0  0  0  0
   -2.4820    1.5250   -0.6720 C   0  0  0  0  0  0  0  0  0  0  0  0
   -2.0380    0.3800    0.2060 C   0  0  0  0  0  0  0  0  0  0  0  0
   -2.6780    0.0080    1.1670 O   0  0  0  0  0  0  0  0  0  0  0  0
   -0.7660   -0.2680   -0.1770 C   0  0  0  0  0  0  0  0  0  0  0  0
   -0.7810   -1.5370   -0.7670 C   0  0  0  0  0  0  0  0  0  0  0  0
    0.3880   -2.1800   -1.1590 C   0  0  0  0  0  0  0  0  0  0  0  0
    1.6080   -1.5270   -0.9410 C   0  0  0  0  0  0  0  0  0  0  0  0
    1.6760   -0.2650   -0.3330 C   0  0  0  0  0  0  0  0  0  0  0  0
    0.4700    0.3390    0.0450 C   0  0  0  0  0  0  0  0  0  0  0  0
    0.5800    1.5550    0.6290 O   0  0  0  0  0  0  0  0  0  0  0  0
    2.9810    0.4080   -0.0410 C   0  0  1  0  0  0  0  0  0  0  0  0
    3.4860   -0.0330    1.3590 C   0  0  1  0  0  0  0  0  0  0  0  0
    4.9150    0.5200    1.5810 C   0  0  2  0  0  0  0  0  0  0  0  0
    5.8130    0.0450    0.4110 C   0  0  1  0  0  0  0  0  0  0  0  0
    5.1760    0.5130   -0.9200 C   0  0  2  0  0  0  0  0  0  0  0  0
    3.8890   -0.0510   -1.0200 O   0  0  0  0  0  0  0  0  0  0  0  0
    5.9410   -0.0400   -2.1510 C   0  0  0  0  0  0  0  0  0  0  0  0
    6.9360    0.8450   -2.5430 O   0  0  0  0  0  0  0  0  0  0  0  0
    7.0560    0.6700    0.4660 O   0  0  0  0  0  0  0  0  0  0  0  0
    5.4960   -0.0310    2.7230 O   0  0  0  0  0  0  0  0  0  0  0  0
    2.6470    0.3860    2.3810 O   0  0  0  0  0  0  0  0  0  0  0  0
    2.6850   -2.2200   -1.3450 O   0  0  0  0  0  0  0  0  0  0  0  0
   -2.0030   -2.0770   -0.9620 O   0  0  0  0  0  0  0  0  0  0  0  0
   -6.7500   -1.7260    0.9760 O   0  0  0  0  0  0  0  0  0  0  0  0
   -8.3280    0.2990    1.3590 O   0  0  0  0  0  0  0  0  0  0  0  0
   -5.4680    2.9130   -1.0570 H   0  0  0  0  0  0  0  0  0  0  0  0
   -7.5610    2.6460    0.2180 H   0  0  0  0  0  0  0  0  0  0  0  0
   -4.4910   -1.2380   -0.4210 H   0  0  0  0  0  0  0  0  0  0  0  0
   -3.7470    1.7630   -2.4250 H   0  0  0  0  0  0  0  0  0  0  0  0
   -3.2960    0.1000   -2.1120 H   0  0  0  0  0  0  0  0  0  0  0  0
   -2.8300    2.3790   -0.0530 H   0  0  0  0  0  0  0  0  0  0  0  0
   -1.6330    1.9230   -1.2660 H   0  0  0  0  0  0  0  0  0  0  0  0
    0.3800   -3.1690   -1.6250 H   0  0  0  0  0  0  0  0  0  0  0  0
   -0.2690    1.8250    0.9970 H   0  0  0  0  0  0  0  0  0  0  0  0
    2.8930    1.5270   -0.1050 H   0  0  0  0  0  0  0  0  0  0  0  0
    3.4750   -1.1510    1.4540 H   0  0  0  0  0  0  0  0  0  0  0  0
    4.9060    1.6430    1.6410 H   0  0  0  0  0  0  0  0  0  0  0  0
    5.9090   -1.0760    0.4340 H   0  0  0  0  0  0  0  0  0  0  0  0
    5.1330    1.6350   -0.9670 H   0  0  0  0  0  0  0  0  0  0  0  0
    5.2780   -0.1090   -3.0430 H   0  0  0  0  0  0  0  0  0  0  0  0
    6.3190   -1.0710   -1.9620 H   0  0  0  0  0  0  0  0  0  0  0  0
    7.6180    0.8650   -1.8640 H   0  0  0  0  0  0  0  0  0  0  0  0
    7.4900    0.3960    1.2810 H   0  0  0  0  0  0  0  0  0  0  0  0
    4.8950    0.1090    3.4640 H   0  0  0  0  0  0  0  0  0  0  0  0
    2.4660    1.3270    2.2720 H   0  0  0  0  0  0  0  0  0  0  0  0
    3.4960   -1.6760   -1.2880 H   0  0  0  0  0  0  0  0  0  0  0  0
   -1.9050   -2.9710   -1.3140 H   0  0  0  0  0  0  0  0  0  0  0  0
   -5.9590   -2.2450    1.1670 H   0  0  0  0  0  0  0  0  0  0  0  0
   -8.8570    1.1050    1.3850 H   0  0  0  0  0  0  0  0  0  0  0  0
  1 33  1  0
  1  6  2  0
  1  2  1  0
  2 34  1  0
  2  3  2  0
  3  4  1  0
  3 32  1  0
  4  5  2  0
  4 31  1  0
  5  6  1  0
  5 35  1  0
  6  7  1  0
  7 36  1  0
  7 37  1  0
  7  8  1  0
  8 39  1  0
  8 38  1  0
  8  9  1  0
  9 11  1  0
  9 10  2  0
 11 12  2  0
 11 16  1  0
 12 13  1  0
 12 30  1  0
 13 40  1  0
 13 14  2  0
 14 29  1  0
 14 15  1  0
 15 18  1  0
 15 16  2  0
 16 17  1  0
 17 41  1  0
 18 23  1  0
 18 42  1  1
 18 19  1  0
 19 43  1  6
 19 20  1  0
 19 28  1  0
 20 21  1  0
 20 44  1  1
 20 27  1  0
 21 22  1  0
 21 45  1  6
 21 26  1  0
 22 24  1  0
 22 23  1  0
 22 46  1  1
 24 47  1  0
 24 25  1  0
 24 48  1  0
 25 49  1  0
 26 50  1  0
 27 51  1  0
 28 52  1  0
 29 53  1  0
 30 54  1  0
 31 55  1  0
 32 56  1  0
M  END
>  <id>  (968) 
1088

>  <scaffolds>  (968) 
['c1ccccc1', 'C1CCOCC1', 'O=C(CCc1ccccc1)c1ccccc1', 'O=C(CCc1ccccc1)c1cccc(C2CCCCO2)c1']

>  <name>  (968) 
Aspalathin

>  <formula>  (968) 
C21H24O11

>  <SMILES>  (968) 
C1=CC(=C(C=C1CCC(=O)C2=C(C=C(C(=C2O)[C@H]3[C@@H]([C@H]([C@@H]([C@H](O3)CO)O)O)O)O)O)O)O

>  <ChEMBL_id>  (968) 
SCHEMBL1933939

>  <ZINC_id>  (968) 
ZINC95910950

>  <PubChem_id>  (968) 
11282394

>  <DrugBank_id>  (968) 


>  <CAS_no>  (968) 
6027-43-6

>  <references>  (968) 
[{'journal': {'name': 'Journal of Agricultural and Food Chemistry', 'id': 71}, 'title': 'Safety Assessment of Phytochemicals Derived from the Globalized South African Rooibos Tea (Aspalathus linearis) through Interaction with CYP, PXR, and P-gp', 'year': 2019, 'start_page': None, 'volume': None, 'issue': None, 'doi': '10.1021/acs.jafc.9b00846', 'isbn': '', 'despositor': {'code': 'TMM', 'first_name': 'Thommas', 'last_name': 'Musyoka', 'id': 22}, 'refauthors_set': [{'author': {'first_name': 'Fantoukh', 'initials': 'FO', 'last_name': 'Omer', 'id': 1072}, 'first_author': True, 'id': 1655}], 'id': 561}]

>  <classifications>  (968) 
[{'classification': 'Glycoside', 'id': 781}, {'classification': 'Linear 1,3-diarylpropanoids (Classyfire)', 'id': 943}]

>  <molecular_mass>  (968) 
452.4

$$$$
SANC01089_minRM1.pdb
     RDKit          3D

 56 59  0  0  1  0  0  0  0  0999 V2000
   -2.5960    4.2170   -1.7530 C   0  0  0  0  0  0  0  0  0  0  0  0
   -1.5190    3.6610   -0.8270 C   0  0  1  0  0  0  0  0  0  0  0  0
   -1.4610    4.4710    0.4980 C   0  0  1  0  0  0  0  0  0  0  0  0
   -0.9640    3.5910    1.6820 C   0  0  2  0  0  0  0  0  0  0  0  0
   -0.1120    2.4200    1.1410 C   0  0  2  0  0  0  0  0  0  0  0  0
   -0.9670    1.5900    0.1400 C   0  0  1  0  0  0  0  0  0  0  0  0
   -1.9250    2.3450   -0.5280 O   0  0  0  0  0  0  0  0  0  0  0  0
   -0.1560    1.1190   -0.9320 O   0  0  0  0  0  0  0  0  0  0  0  0
    0.8050    0.2380   -0.5410 C   0  0  0  0  0  0  0  0  0  0  0  0
    0.5180   -1.0460   -0.2240 C   0  0  0  0  0  0  0  0  0  0  0  0
    1.4710   -1.9760    0.0760 O   0  0  0  0  0  0  0  0  0  0  0  0
    2.7820   -1.6060    0.0030 C   0  0  0  0  0  0  0  0  0  0  0  0
    3.6940   -2.6110    0.2980 C   0  0  0  0  0  0  0  0  0  0  0  0
    5.0540   -2.2730    0.2340 C   0  0  0  0  0  0  0  0  0  0  0  0
    5.5070   -0.9970   -0.1080 C   0  0  0  0  0  0  0  0  0  0  0  0
    4.5520   -0.0190   -0.3940 C   0  0  0  0  0  0  0  0  0  0  0  0
    3.1730   -0.3120   -0.3430 C   0  0  0  0  0  0  0  0  0  0  0  0
    2.1880    0.7070   -0.6290 C   0  0  0  0  0  0  0  0  0  0  0  0
    2.5220    1.8550   -0.9210 O   0  0  0  0  0  0  0  0  0  0  0  0
    5.0130    1.1930   -0.7150 O   0  0  0  0  0  0  0  0  0  0  0  0
    6.0270   -3.1690    0.4990 O   0  0  0  0  0  0  0  0  0  0  0  0
   -0.8210   -1.6350   -0.1390 C   0  0  0  0  0  0  0  0  0  0  0  0
   -1.1670   -2.3950    0.9710 C   0  0  0  0  0  0  0  0  0  0  0  0
   -2.4530   -2.9460    1.0290 C   0  0  0  0  0  0  0  0  0  0  0  0
   -3.3660   -2.7380   -0.0090 C   0  0  0  0  0  0  0  0  0  0  0  0
   -2.9890   -1.9570   -1.1090 C   0  0  0  0  0  0  0  0  0  0  0  0
   -1.7090   -1.4070   -1.1870 C   0  0  0  0  0  0  0  0  0  0  0  0
   -3.9230   -1.8090   -2.0750 O   0  0  0  0  0  0  0  0  0  0  0  0
   -4.6430   -3.2070    0.1290 O   0  0  0  0  0  0  0  0  0  0  0  0
   -4.9040   -4.3280   -0.6870 C   0  0  0  0  0  0  0  0  0  0  0  0
   -2.7250   -3.6730    2.1350 O   0  0  0  0  0  0  0  0  0  0  0  0
    0.3820    1.6130    2.1520 O   0  0  0  0  0  0  0  0  0  0  0  0
   -2.0380    2.9850    2.3340 O   0  0  0  0  0  0  0  0  0  0  0  0
   -0.6660    5.6020    0.3570 O   0  0  0  0  0  0  0  0  0  0  0  0
   -3.6080    4.1250   -1.3330 H   0  0  0  0  0  0  0  0  0  0  0  0
   -2.4220    5.2820   -1.9600 H   0  0  0  0  0  0  0  0  0  0  0  0
   -2.6090    3.6920   -2.7190 H   0  0  0  0  0  0  0  0  0  0  0  0
   -0.5260    3.6760   -1.3530 H   0  0  0  0  0  0  0  0  0  0  0  0
   -2.4660    4.9090    0.7360 H   0  0  0  0  0  0  0  0  0  0  0  0
   -0.3480    4.2050    2.3970 H   0  0  0  0  0  0  0  0  0  0  0  0
    0.8150    2.8290    0.6570 H   0  0  0  0  0  0  0  0  0  0  0  0
   -1.5480    0.7640    0.6300 H   0  0  0  0  0  0  0  0  0  0  0  0
    3.3540   -3.6140    0.5660 H   0  0  0  0  0  0  0  0  0  0  0  0
    6.5750   -0.7680   -0.1490 H   0  0  0  0  0  0  0  0  0  0  0  0
    4.2650    1.8160   -0.8930 H   0  0  0  0  0  0  0  0  0  0  0  0
    5.6290   -4.0180    0.7290 H   0  0  0  0  0  0  0  0  0  0  0  0
   -0.4590   -2.5690    1.7860 H   0  0  0  0  0  0  0  0  0  0  0  0
   -1.4060   -0.8060   -2.0500 H   0  0  0  0  0  0  0  0  0  0  0  0
   -3.6180   -1.1380   -2.6990 H   0  0  0  0  0  0  0  0  0  0  0  0
   -4.2590   -5.1900   -0.4460 H   0  0  0  0  0  0  0  0  0  0  0  0
   -5.9490   -4.5830   -0.4560 H   0  0  0  0  0  0  0  0  0  0  0  0
   -4.8190   -4.1220   -1.7650 H   0  0  0  0  0  0  0  0  0  0  0  0
   -3.6570   -3.9240    2.1350 H   0  0  0  0  0  0  0  0  0  0  0  0
   -0.3490    1.2940    2.6950 H   0  0  0  0  0  0  0  0  0  0  0  0
   -2.5370    3.6740    2.7830 H   0  0  0  0  0  0  0  0  0  0  0  0
    0.2300    5.3270    0.1310 H   0  0  0  0  0  0  0  0  0  0  0  0
  1 37  1  0
  1 36  1  0
  1 35  1  0
  1  2  1  0
  2 38  1  6
  2  7  1  0
  2  3  1  0
  3 34  1  0
  3 39  1  1
  3  4  1  0
  4  5  1  0
  4 33  1  0
  4 40  1  1
  5  6  1  0
  5 41  1  6
  5 32  1  0
  6  8  1  0
  6  7  1  0
  6 42  1  1
  8  9  1  0
  9 18  1  0
  9 10  2  0
 10 22  1  0
 10 11  1  0
 11 12  1  0
 12 17  2  0
 12 13  1  0
 13 14  2  0
 13 43  1  0
 14 15  1  0
 14 21  1  0
 15 16  2  0
 15 44  1  0
 16 20  1  0
 16 17  1  0
 17 18  1  0
 18 19  2  0
 20 45  1  0
 21 46  1  0
 22 27  2  0
 22 23  1  0
 23 24  2  0
 23 47  1  0
 24 25  1  0
 24 31  1  0
 25 26  2  0
 25 29  1  0
 26 28  1  0
 26 27  1  0
 27 48  1  0
 28 49  1  0
 29 30  1  0
 30 52  1  0
 30 51  1  0
 30 50  1  0
 31 53  1  0
 32 54  1  0
 33 55  1  0
 34 56  1  0
M  END
>  <id>  (969) 
1089

>  <scaffolds>  (969) 
['c1ccccc1', 'O=c1cc(-c2ccccc2)oc2ccccc12', 'O=c1c(OC2CCCCO2)c(-c2ccccc2)oc2ccccc12', 'C1CCOCC1', 'O=c1ccoc2ccccc12']

>  <name>  (969) 
Mearnsitrin

>  <formula>  (969) 
C22H22O12

>  <SMILES>  (969) 
C[C@H]1[C@@H]([C@H]([C@H]([C@@H](O1)OC2=C(OC3=CC(=CC(=C3C2=O)O)O)C4=CC(=C(C(=C4)O)OC)O)O)O)O

>  <ChEMBL_id>  (969) 
CHEMBL3109438

>  <ZINC_id>  (969) 
ZINC31158282

>  <PubChem_id>  (969) 
6918652

>  <DrugBank_id>  (969) 


>  <CAS_no>  (969) 
30484-88-9

>  <references>  (969) 
[{'journal': {'name': 'Journal of Natural Products', 'id': 5}, 'title': 'Isolation of Flavonoids and Flavonoid Glycosides from Myrsine africana and Their Inhibitory Activities against Mushroom Tyrosinase', 'year': 2018, 'start_page': None, 'volume': None, 'issue': None, 'doi': '10.1021/acs.jnatprod.7b00564', 'isbn': '', 'despositor': {'code': 'TMM', 'first_name': 'Thommas', 'last_name': 'Musyoka', 'id': 22}, 'refauthors_set': [{'author': {'first_name': 'Kishore', 'initials': 'KN', 'last_name': 'Navneet', 'id': 1073}, 'first_author': True, 'id': 1656}], 'id': 562}]

>  <classifications>  (969) 
[{'classification': 'Glycoside', 'id': 781}, {'classification': 'Flavonoids (Classyfire)', 'id': 941}]

>  <molecular_mass>  (969) 
478.4

$$$$
SANC01090_minRM1.pdb
     RDKit          3D

 43 44  0  0  1  0  0  0  0  0999 V2000
    4.7100    0.4600    0.7200 C   0  0  0  0  0  0  0  0  0  0  0  0
    3.9340    1.7850    0.7780 C   0  0  2  0  0  0  0  0  0  0  0  0
    2.4350    1.4800    1.0360 C   0  0  2  0  0  0  0  0  0  0  0  0
    1.9100    0.6070   -0.1250 C   0  0  1  0  0  0  0  0  0  0  0  0
    2.6550   -0.7260   -0.1600 C   0  0  0  0  0  0  0  0  0  0  0  0
    4.1510   -0.4550   -0.3770 C   0  0  2  0  0  0  0  0  0  0  0  0
    4.8770   -1.8020   -0.3350 C   0  0  0  0  0  0  0  0  0  0  0  0
    5.5980   -2.2500    0.5360 O   0  0  0  0  0  0  0  0  0  0  0  0
    4.6300   -2.5310   -1.4420 O   0  0  0  0  0  0  0  0  0  0  0  0
    4.4440    0.1640   -1.5850 O   0  0  0  0  0  0  0  0  0  0  0  0
    0.5130    0.4450   -0.0880 O   0  0  0  0  0  0  0  0  0  0  0  0
   -0.1150   -0.1700    0.9470 C   0  0  0  0  0  0  0  0  0  0  0  0
    0.5140   -0.6410    1.8780 O   0  0  0  0  0  0  0  0  0  0  0  0
   -1.5780   -0.1650    0.8190 C   0  0  0  0  0  0  0  0  0  0  0  0
   -2.2180    0.0450   -0.3350 C   0  0  0  0  0  0  0  0  0  0  0  0
   -3.6760    0.0510   -0.4070 C   0  0  0  0  0  0  0  0  0  0  0  0
   -4.4190   -0.9100    0.2810 C   0  0  0  0  0  0  0  0  0  0  0  0
   -5.8050   -0.8740    0.2060 C   0  0  0  0  0  0  0  0  0  0  0  0
   -6.4490    0.1250   -0.5540 C   0  0  0  0  0  0  0  0  0  0  0  0
   -5.6980    1.0710   -1.2420 C   0  0  0  0  0  0  0  0  0  0  0  0
   -4.3090    1.0240   -1.1710 C   0  0  0  0  0  0  0  0  0  0  0  0
   -7.8010    0.0760   -0.5540 O   0  0  0  0  0  0  0  0  0  0  0  0
   -6.6280   -1.7540    0.8240 O   0  0  0  0  0  0  0  0  0  0  0  0
    1.8070    2.7240    1.0590 O   0  0  0  0  0  0  0  0  0  0  0  0
    3.9790    2.4920   -0.4220 O   0  0  0  0  0  0  0  0  0  0  0  0
    5.7930    0.6440    0.5560 H   0  0  0  0  0  0  0  0  0  0  0  0
    4.6620   -0.0550    1.7020 H   0  0  0  0  0  0  0  0  0  0  0  0
    4.3360    2.4180    1.6170 H   0  0  0  0  0  0  0  0  0  0  0  0
    2.3390    0.9570    2.0260 H   0  0  0  0  0  0  0  0  0  0  0  0
    2.0040    1.1520   -1.1050 H   0  0  0  0  0  0  0  0  0  0  0  0
    2.2410   -1.3830   -0.9540 H   0  0  0  0  0  0  0  0  0  0  0  0
    2.5250   -1.3080    0.7770 H   0  0  0  0  0  0  0  0  0  0  0  0
    5.1090   -3.3720   -1.4320 H   0  0  0  0  0  0  0  0  0  0  0  0
    3.9270   -0.2480   -2.2860 H   0  0  0  0  0  0  0  0  0  0  0  0
   -2.1020   -0.3450    1.7650 H   0  0  0  0  0  0  0  0  0  0  0  0
   -1.6910    0.2350   -1.2790 H   0  0  0  0  0  0  0  0  0  0  0  0
   -3.9110   -1.6880    0.8600 H   0  0  0  0  0  0  0  0  0  0  0  0
   -6.1830    1.8490   -1.8380 H   0  0  0  0  0  0  0  0  0  0  0  0
   -3.7190    1.7690   -1.7140 H   0  0  0  0  0  0  0  0  0  0  0  0
   -8.1320    0.8010   -1.0980 H   0  0  0  0  0  0  0  0  0  0  0  0
   -6.0870   -2.3720    1.3290 H   0  0  0  0  0  0  0  0  0  0  0  0
    0.8670    2.5750    1.2030 H   0  0  0  0  0  0  0  0  0  0  0  0
    4.8930    2.5110   -0.7250 H   0  0  0  0  0  0  0  0  0  0  0  0
  1  6  1  0
  1 26  1  0
  1  2  1  0
  1 27  1  0
  2 25  1  0
  2  3  1  0
  2 28  1  1
  3  4  1  0
  3 24  1  0
  3 29  1  1
  4 30  1  6
  4  5  1  0
  4 11  1  0
  5 31  1  0
  5  6  1  0
  5 32  1  0
  6 10  1  6
  6  7  1  0
  7  9  1  0
  7  8  2  0
  9 33  1  0
 10 34  1  0
 11 12  1  0
 12 14  1  0
 12 13  2  0
 14 15  2  0
 14 35  1  0
 15 36  1  0
 15 16  1  0
 16 21  2  0
 16 17  1  0
 17 18  2  0
 17 37  1  0
 18 19  1  0
 18 23  1  0
 19 20  2  0
 19 22  1  0
 20 38  1  0
 20 21  1  0
 21 39  1  0
 22 40  1  0
 23 41  1  0
 24 42  1  0
 25 43  1  0
M  END
>  <id>  (970) 
1090

>  <scaffolds>  (970) 
['c1ccccc1', 'C1CCCCC1', 'O=C(C=Cc1ccccc1)OC1CCCCC1']

>  <name>  (970) 
Chlorogenic acid

>  <formula>  (970) 
C16H18O9

>  <SMILES>  (970) 
C1[C@H]([C@H]([C@@H](C[C@@]1(C(=O)O)O)OC(=O)/C=C/C2=CC(=C(C=C2)O)O)O)O

>  <ChEMBL_id>  (970) 


>  <ZINC_id>  (970) 
ZINC2138728

>  <PubChem_id>  (970) 
1794427

>  <DrugBank_id>  (970) 


>  <CAS_no>  (970) 
327-97-9

>  <references>  (970) 
[{'journal': {'name': 'Planta Medica', 'id': 54}, 'title': 'Identification, Isolation and Determination of Biomarkers for Quality Control of Bush Tea (Athrixia phyllicoides)', 'year': 2018, 'start_page': None, 'volume': None, 'issue': None, 'doi': '10.1055/a-0594-9527', 'isbn': '', 'despositor': {'code': 'TMM', 'first_name': 'Thommas', 'last_name': 'Musyoka', 'id': 22}, 'refauthors_set': [], 'id': 563}]

>  <classifications>  (970) 
[{'classification': 'Flavanoid', 'id': 774}, {'classification': 'Organooxygen compounds (Classyfire)', 'id': 954}]

>  <molecular_mass>  (970) 
354.31

$$$$
SANC01091_minRM1.pdb
     RDKit          3D

 53 55  0  0  0  0  0  0  0  0999 V2000
    4.4970   -2.5940    1.8490 C   0  0  0  0  0  0  0  0  0  0  0  0
    4.9330   -1.4710    1.1250 O   0  0  0  0  0  0  0  0  0  0  0  0
    3.9730   -0.6790    0.5760 C   0  0  0  0  0  0  0  0  0  0  0  0
    2.6200   -0.9980    0.4650 C   0  0  0  0  0  0  0  0  0  0  0  0
    1.7760   -0.0910   -0.1700 C   0  0  0  0  0  0  0  0  0  0  0  0
    2.2340    1.1120   -0.6980 C   0  0  0  0  0  0  0  0  0  0  0  0
    3.5890    1.4180   -0.5760 C   0  0  0  0  0  0  0  0  0  0  0  0
    4.4590    0.5380    0.0800 C   0  0  0  0  0  0  0  0  0  0  0  0
    5.7530    0.9000    0.3140 O   0  0  0  0  0  0  0  0  0  0  0  0
    6.6100    0.5140   -0.7380 C   0  0  0  0  0  0  0  0  0  0  0  0
    4.1980    2.5260   -1.0750 O   0  0  0  0  0  0  0  0  0  0  0  0
    3.3620    3.5720   -1.5090 C   0  0  0  0  0  0  0  0  0  0  0  0
    0.3560   -0.4320   -0.2890 C   0  0  0  0  0  0  0  0  0  0  0  0
   -0.1520   -1.6060   -0.7360 C   0  0  0  0  0  0  0  0  0  0  0  0
   -1.5920   -1.8250   -0.8160 C   0  0  0  0  0  0  0  0  0  0  0  0
   -2.1320   -2.8710   -1.1780 O   0  0  0  0  0  0  0  0  0  0  0  0
   -2.3880   -0.6820   -0.4190 C   0  0  0  0  0  0  0  0  0  0  0  0
   -3.7950   -0.7360   -0.4790 C   0  0  0  0  0  0  0  0  0  0  0  0
   -4.5510    0.3780   -0.0970 C   0  0  0  0  0  0  0  0  0  0  0  0
   -3.9120    1.5580    0.3100 C   0  0  0  0  0  0  0  0  0  0  0  0
   -2.5100    1.6240    0.3580 C   0  0  0  0  0  0  0  0  0  0  0  0
   -1.7700    0.4960    0.0030 C   0  0  0  0  0  0  0  0  0  0  0  0
   -0.4190    0.6240    0.0980 O   0  0  0  0  0  0  0  0  0  0  0  0
   -1.8760    2.8010    0.6290 O   0  0  0  0  0  0  0  0  0  0  0  0
   -1.7700    3.0450    2.0150 C   0  0  0  0  0  0  0  0  0  0  0  0
   -4.5640    2.6690    0.6900 O   0  0  0  0  0  0  0  0  0  0  0  0
   -5.9120    0.3910   -0.2330 O   0  0  0  0  0  0  0  0  0  0  0  0
   -6.5670   -0.3390    0.7830 C   0  0  0  0  0  0  0  0  0  0  0  0
   -4.4600   -1.8260   -0.8630 O   0  0  0  0  0  0  0  0  0  0  0  0
    0.7190   -2.5290   -1.2380 O   0  0  0  0  0  0  0  0  0  0  0  0
    0.5890   -3.8120   -0.6630 C   0  0  0  0  0  0  0  0  0  0  0  0
    5.4280   -2.9940    2.2810 H   0  0  0  0  0  0  0  0  0  0  0  0
    3.8020   -2.3500    2.6690 H   0  0  0  0  0  0  0  0  0  0  0  0
    4.0440   -3.3690    1.2080 H   0  0  0  0  0  0  0  0  0  0  0  0
    2.2120   -1.9340    0.8520 H   0  0  0  0  0  0  0  0  0  0  0  0
    1.5300    1.7850   -1.1930 H   0  0  0  0  0  0  0  0  0  0  0  0
    6.6420   -0.5780   -0.8850 H   0  0  0  0  0  0  0  0  0  0  0  0
    7.6020    0.8620   -0.4150 H   0  0  0  0  0  0  0  0  0  0  0  0
    6.3550    0.9920   -1.6980 H   0  0  0  0  0  0  0  0  0  0  0  0
    4.0700    4.3860   -1.7310 H   0  0  0  0  0  0  0  0  0  0  0  0
    2.6510    3.9180   -0.7410 H   0  0  0  0  0  0  0  0  0  0  0  0
    2.8100    3.3240   -2.4310 H   0  0  0  0  0  0  0  0  0  0  0  0
   -2.7470    3.1350    2.5170 H   0  0  0  0  0  0  0  0  0  0  0  0
   -1.1750    2.2800    2.5410 H   0  0  0  0  0  0  0  0  0  0  0  0
   -1.2470    4.0110    2.0740 H   0  0  0  0  0  0  0  0  0  0  0  0
   -5.5080    2.5740    0.5020 H   0  0  0  0  0  0  0  0  0  0  0  0
   -6.3690    0.0600    1.7910 H   0  0  0  0  0  0  0  0  0  0  0  0
   -6.3240   -1.4130    0.7800 H   0  0  0  0  0  0  0  0  0  0  0  0
   -7.6340   -0.2180    0.5470 H   0  0  0  0  0  0  0  0  0  0  0  0
   -3.8290   -2.5420   -1.1340 H   0  0  0  0  0  0  0  0  0  0  0  0
   -0.1910   -4.4090   -1.1610 H   0  0  0  0  0  0  0  0  0  0  0  0
    1.5660   -4.2850   -0.8490 H   0  0  0  0  0  0  0  0  0  0  0  0
    0.3950   -3.8090    0.4220 H   0  0  0  0  0  0  0  0  0  0  0  0
  1  2  1  0
  1 34  1  0
  1 32  1  0
  1 33  1  0
  2  3  1  0
  3  8  2  0
  3  4  1  0
  4  5  2  0
  4 35  1  0
  5  6  1  0
  5 13  1  0
  6 36  1  0
  6  7  2  0
  7 11  1  0
  7  8  1  0
  8  9  1  0
  9 10  1  0
 10 39  1  0
 10 37  1  0
 10 38  1  0
 11 12  1  0
 12 42  1  0
 12 40  1  0
 12 41  1  0
 13 14  2  0
 13 23  1  0
 14 30  1  0
 14 15  1  0
 15 16  2  0
 15 17  1  0
 17 18  2  0
 17 22  1  0
 18 29  1  0
 18 19  1  0
 19 27  1  0
 19 20  2  0
 20 21  1  0
 20 26  1  0
 21 22  2  0
 21 24  1  0
 22 23  1  0
 24 25  1  0
 25 45  1  0
 25 43  1  0
 25 44  1  0
 26 46  1  0
 27 28  1  0
 28 49  1  0
 28 48  1  0
 28 47  1  0
 29 50  1  0
 30 31  1  0
 31 51  1  0
 31 52  1  0
 31 53  1  0
M  END
>  <id>  (971) 
1091

>  <scaffolds>  (971) 
['c1ccccc1', 'O=c1cc(-c2ccccc2)oc2ccccc12', 'O=c1ccoc2ccccc12']

>  <name>  (971) 
5,7-Dihydroxy-3,6,8,3',4',5'-hexamethoxyflavone

>  <formula>  (971) 
C21H22O10

>  <SMILES>  (971) 
COC1=CC(=CC(=C1OC)OC)C2=C(C(=O)C3=C(C(=C(C(=C3O2)OC)O)OC)O)OC

>  <ChEMBL_id>  (971) 
CHEMBL77385

>  <ZINC_id>  (971) 


>  <PubChem_id>  (971) 
5386963

>  <DrugBank_id>  (971) 


>  <CAS_no>  (971) 
96887-18-2

>  <references>  (971) 
[{'journal': {'name': 'Planta Medica', 'id': 54}, 'title': 'Identification, Isolation and Determination of Biomarkers for Quality Control of Bush Tea (Athrixia phyllicoides)', 'year': 2018, 'start_page': None, 'volume': None, 'issue': None, 'doi': '10.1055/a-0594-9527', 'isbn': '', 'despositor': {'code': 'TMM', 'first_name': 'Thommas', 'last_name': 'Musyoka', 'id': 22}, 'refauthors_set': [], 'id': 563}]

>  <classifications>  (971) 
[{'classification': 'Flavones', 'id': 925}, {'classification': 'Flavonoids (Classyfire)', 'id': 941}]

>  <molecular_mass>  (971) 
434.4

$$$$
SANC01092_minRM1.pdb
     RDKit          3D

 45 47  0  0  0  0  0  0  0  0999 V2000
    7.3770    0.3680    0.5190 C   0  0  0  0  0  0  0  0  0  0  0  0
    6.3780    1.1280   -0.1130 O   0  0  0  0  0  0  0  0  0  0  0  0
    5.0960    0.6780   -0.0290 C   0  0  0  0  0  0  0  0  0  0  0  0
    4.6860   -0.4680    0.6480 C   0  0  0  0  0  0  0  0  0  0  0  0
    3.3370   -0.8030    0.6460 C   0  0  0  0  0  0  0  0  0  0  0  0
    2.4160   -0.0010   -0.0210 C   0  0  0  0  0  0  0  0  0  0  0  0
    2.8370    1.1490   -0.6950 C   0  0  0  0  0  0  0  0  0  0  0  0
    4.1750    1.4940   -0.7050 C   0  0  0  0  0  0  0  0  0  0  0  0
    1.0080   -0.3790   -0.0170 C   0  0  0  0  0  0  0  0  0  0  0  0
    0.5060   -1.6130   -0.2700 C   0  0  0  0  0  0  0  0  0  0  0  0
   -0.9290   -1.8680   -0.2430 C   0  0  0  0  0  0  0  0  0  0  0  0
   -1.4600   -2.9590   -0.4550 O   0  0  0  0  0  0  0  0  0  0  0  0
   -1.7320   -0.7030    0.0670 C   0  0  0  0  0  0  0  0  0  0  0  0
   -3.1360   -0.8030    0.1390 C   0  0  0  0  0  0  0  0  0  0  0  0
   -3.9050    0.3260    0.4560 C   0  0  0  0  0  0  0  0  0  0  0  0
   -3.2780    1.5600    0.6740 C   0  0  0  0  0  0  0  0  0  0  0  0
   -1.8790    1.6660    0.5920 C   0  0  0  0  0  0  0  0  0  0  0  0
   -1.1250    0.5290    0.3050 C   0  0  0  0  0  0  0  0  0  0  0  0
    0.2230    0.7070    0.2560 O   0  0  0  0  0  0  0  0  0  0  0  0
   -1.2820    2.8530    0.9160 O   0  0  0  0  0  0  0  0  0  0  0  0
   -0.8650    3.5730   -0.2250 C   0  0  0  0  0  0  0  0  0  0  0  0
   -4.0880    2.5980    0.9370 O   0  0  0  0  0  0  0  0  0  0  0  0
   -5.2470    0.2080    0.6720 O   0  0  0  0  0  0  0  0  0  0  0  0
   -5.9870    0.2510   -0.5280 C   0  0  0  0  0  0  0  0  0  0  0  0
   -3.7950   -1.9390   -0.0950 O   0  0  0  0  0  0  0  0  0  0  0  0
    1.3730   -2.5840   -0.6840 O   0  0  0  0  0  0  0  0  0  0  0  0
    1.3140   -3.7650    0.0880 C   0  0  0  0  0  0  0  0  0  0  0  0
    7.4750   -0.6510    0.1080 H   0  0  0  0  0  0  0  0  0  0  0  0
    8.3000    0.9270    0.3000 H   0  0  0  0  0  0  0  0  0  0  0  0
    7.2510    0.3090    1.6130 H   0  0  0  0  0  0  0  0  0  0  0  0
    5.3850   -1.1160    1.1810 H   0  0  0  0  0  0  0  0  0  0  0  0
    3.0050   -1.7010    1.1770 H   0  0  0  0  0  0  0  0  0  0  0  0
    2.1100    1.7770   -1.2190 H   0  0  0  0  0  0  0  0  0  0  0  0
    4.5160    2.3900   -1.2330 H   0  0  0  0  0  0  0  0  0  0  0  0
   -0.1170    3.0370   -0.8320 H   0  0  0  0  0  0  0  0  0  0  0  0
   -0.4020    4.4810    0.1890 H   0  0  0  0  0  0  0  0  0  0  0  0
   -1.7030    3.8580   -0.8810 H   0  0  0  0  0  0  0  0  0  0  0  0
   -3.5610    3.3540    1.2290 H   0  0  0  0  0  0  0  0  0  0  0  0
   -5.8860    1.2120   -1.0580 H   0  0  0  0  0  0  0  0  0  0  0  0
   -5.7350   -0.5640   -1.2250 H   0  0  0  0  0  0  0  0  0  0  0  0
   -7.0300    0.1300   -0.1990 H   0  0  0  0  0  0  0  0  0  0  0  0
   -3.1590   -2.6760   -0.2830 H   0  0  0  0  0  0  0  0  0  0  0  0
    2.2810   -4.2550   -0.1060 H   0  0  0  0  0  0  0  0  0  0  0  0
    1.2100   -3.5970    1.1720 H   0  0  0  0  0  0  0  0  0  0  0  0
    0.5080   -4.4380   -0.2450 H   0  0  0  0  0  0  0  0  0  0  0  0
  1  2  1  0
  1 28  1  0
  1 29  1  0
  1 30  1  0
  2  3  1  0
  3  8  2  0
  3  4  1  0
  4  5  2  0
  4 31  1  0
  5  6  1  0
  5 32  1  0
  6  7  2  0
  6  9  1  0
  7 33  1  0
  7  8  1  0
  8 34  1  0
  9 10  2  0
  9 19  1  0
 10 26  1  0
 10 11  1  0
 11 12  2  0
 11 13  1  0
 13 14  2  0
 13 18  1  0
 14 25  1  0
 14 15  1  0
 15 23  1  0
 15 16  2  0
 16 17  1  0
 16 22  1  0
 17 18  2  0
 17 20  1  0
 18 19  1  0
 20 21  1  0
 21 37  1  0
 21 35  1  0
 21 36  1  0
 22 38  1  0
 23 24  1  0
 24 40  1  0
 24 39  1  0
 24 41  1  0
 25 42  1  0
 26 27  1  0
 27 45  1  0
 27 43  1  0
 27 44  1  0
M  END
>  <id>  (972) 
1092

>  <scaffolds>  (972) 
['c1ccccc1', 'O=c1cc(-c2ccccc2)oc2ccccc12', 'O=c1ccoc2ccccc12']

>  <name>  (972) 
Araneosol

>  <formula>  (972) 
C19H18O8

>  <SMILES>  (972) 
COC1=CC=C(C=C1)C2=C(C(=O)C3=C(C(=C(C(=C3O2)OC)O)OC)O)OC

>  <ChEMBL_id>  (972) 


>  <ZINC_id>  (972) 
ZINC14437227

>  <PubChem_id>  (972) 
5491522

>  <DrugBank_id>  (972) 


>  <CAS_no>  (972) 
50461-86-4

>  <references>  (972) 
[{'journal': {'name': 'Planta Medica', 'id': 54}, 'title': 'Identification, Isolation and Determination of Biomarkers for Quality Control of Bush Tea (Athrixia phyllicoides)', 'year': 2018, 'start_page': None, 'volume': None, 'issue': None, 'doi': '10.1055/a-0594-9527', 'isbn': '', 'despositor': {'code': 'TMM', 'first_name': 'Thommas', 'last_name': 'Musyoka', 'id': 22}, 'refauthors_set': [], 'id': 563}]

>  <classifications>  (972) 
[{'classification': 'Flavones', 'id': 925}, {'classification': 'Flavonoids (Classyfire)', 'id': 941}]

>  <molecular_mass>  (972) 
374.3

$$$$
SANC01093_minRM1.pdb
     RDKit          3D

 62 67  0  0  1  0  0  0  0  0999 V2000
    0.7560   -1.2730    2.9120 C   0  0  0  0  0  0  0  0  0  0  0  0
    0.1780   -2.4910    3.2410 C   0  0  0  0  0  0  0  0  0  0  0  0
    0.2070   -3.5230    2.3020 C   0  0  0  0  0  0  0  0  0  0  0  0
    0.8060   -3.3490    1.0490 C   0  0  0  0  0  0  0  0  0  0  0  0
    1.3740   -2.1230    0.7430 C   0  0  0  0  0  0  0  0  0  0  0  0
    1.3530   -1.0790    1.6690 C   0  0  0  0  0  0  0  0  0  0  0  0
    1.9360    0.2670    1.3660 C   0  0  2  0  0  0  0  0  0  0  0  0
    0.8130    1.2070    0.8620 C   0  0  1  0  0  0  0  0  0  0  0  0
    1.5130    2.4970    0.5110 C   0  0  0  0  0  0  0  0  0  0  0  0
    1.3390    3.5940    0.9820 O   0  0  0  0  0  0  0  0  0  0  0  0
    2.4760    2.4250   -0.4760 O   0  0  0  0  0  0  0  0  0  0  0  0
    3.2090    1.2770   -0.5380 C   0  0  0  0  0  0  0  0  0  0  0  0
    4.1510    1.2620   -1.5620 C   0  0  0  0  0  0  0  0  0  0  0  0
    5.0310    0.1760   -1.6020 C   0  0  0  0  0  0  0  0  0  0  0  0
    5.0210   -0.8220   -0.6300 C   0  0  0  0  0  0  0  0  0  0  0  0
    4.0500   -0.7560    0.3750 C   0  0  0  0  0  0  0  0  0  0  0  0
    3.0630    0.2360    0.3890 C   0  0  0  0  0  0  0  0  0  0  0  0
    4.1690   -1.7290    1.3040 O   0  0  0  0  0  0  0  0  0  0  0  0
    5.9060    0.1860   -2.6320 O   0  0  0  0  0  0  0  0  0  0  0  0
    0.0510    0.6480   -0.3460 C   0  0  1  0  0  0  0  0  0  0  0  0
   -1.2470   -0.0910    0.0530 C   0  0  2  0  0  0  0  0  0  0  0  0
   -1.9140   -0.5580   -1.1990 C   0  0  0  0  0  0  0  0  0  0  0  0
   -2.7390   -1.6900   -1.2290 C   0  0  0  0  0  0  0  0  0  0  0  0
   -3.3340   -2.1430   -2.4070 C   0  0  0  0  0  0  0  0  0  0  0  0
   -3.0920   -1.4280   -3.5820 C   0  0  0  0  0  0  0  0  0  0  0  0
   -2.2920   -0.2850   -3.6080 C   0  0  0  0  0  0  0  0  0  0  0  0
   -1.7310    0.1250   -2.3990 C   0  0  0  0  0  0  0  0  0  0  0  0
   -1.0160    1.2850   -2.4770 O   0  0  0  0  0  0  0  0  0  0  0  0
   -0.3430    1.7030   -1.3450 C   0  0  0  0  0  0  0  0  0  0  0  0
   -0.1040    2.8900   -1.3380 O   0  0  0  0  0  0  0  0  0  0  0  0
   -3.6920   -1.9220   -4.6880 O   0  0  0  0  0  0  0  0  0  0  0  0
   -2.9190   -2.3240   -0.0490 O   0  0  0  0  0  0  0  0  0  0  0  0
   -2.1720    0.7770    0.8530 C   0  0  0  0  0  0  0  0  0  0  0  0
   -2.9170    1.7880    0.2560 C   0  0  0  0  0  0  0  0  0  0  0  0
   -3.7680    2.5850    1.0110 C   0  0  0  0  0  0  0  0  0  0  0  0
   -3.8770    2.3480    2.3810 C   0  0  0  0  0  0  0  0  0  0  0  0
   -3.1560    1.3210    2.9980 C   0  0  0  0  0  0  0  0  0  0  0  0
   -2.3110    0.5440    2.2230 C   0  0  0  0  0  0  0  0  0  0  0  0
   -4.6800    3.0670    3.2010 O   0  0  0  0  0  0  0  0  0  0  0  0
   -0.3290   -4.7470    2.5230 O   0  0  0  0  0  0  0  0  0  0  0  0
    0.7330   -0.4620    3.6490 H   0  0  0  0  0  0  0  0  0  0  0  0
   -0.2880   -2.6270    4.2200 H   0  0  0  0  0  0  0  0  0  0  0  0
    0.8230   -4.1710    0.3270 H   0  0  0  0  0  0  0  0  0  0  0  0
    1.8430   -1.9960   -0.2400 H   0  0  0  0  0  0  0  0  0  0  0  0
    2.3460    0.7110    2.3170 H   0  0  0  0  0  0  0  0  0  0  0  0
    0.0990    1.4080    1.7030 H   0  0  0  0  0  0  0  0  0  0  0  0
    4.2140    2.0740   -2.2920 H   0  0  0  0  0  0  0  0  0  0  0  0
    5.7520   -1.6350   -0.6290 H   0  0  0  0  0  0  0  0  0  0  0  0
    3.6250   -1.5240    2.0740 H   0  0  0  0  0  0  0  0  0  0  0  0
    6.4880   -0.5800   -2.5610 H   0  0  0  0  0  0  0  0  0  0  0  0
    0.7200   -0.0650   -0.9010 H   0  0  0  0  0  0  0  0  0  0  0  0
   -0.9520   -0.9880    0.6610 H   0  0  0  0  0  0  0  0  0  0  0  0
   -3.9750   -3.0280   -2.4300 H   0  0  0  0  0  0  0  0  0  0  0  0
   -2.1090    0.2820   -4.5230 H   0  0  0  0  0  0  0  0  0  0  0  0
   -3.4790   -1.3610   -5.4430 H   0  0  0  0  0  0  0  0  0  0  0  0
   -3.4860   -3.0930   -0.1860 H   0  0  0  0  0  0  0  0  0  0  0  0
   -2.8630    1.9750   -0.8210 H   0  0  0  0  0  0  0  0  0  0  0  0
   -4.3360    3.3840    0.5260 H   0  0  0  0  0  0  0  0  0  0  0  0
   -3.2630    1.1400    4.0710 H   0  0  0  0  0  0  0  0  0  0  0  0
   -1.7540   -0.2680    2.7050 H   0  0  0  0  0  0  0  0  0  0  0  0
   -5.0900    3.7760    2.6920 H   0  0  0  0  0  0  0  0  0  0  0  0
   -0.7120   -4.7670    3.4070 H   0  0  0  0  0  0  0  0  0  0  0  0
  1  6  2  0
  1  2  1  0
  1 41  1  0
  2  3  2  0
  2 42  1  0
  3  4  1  0
  3 40  1  0
  4 43  1  0
  4  5  2  0
  5 44  1  0
  5  6  1  0
  6  7  1  0
  7 17  1  0
  7  8  1  0
  7 45  1  1
  8 20  1  0
  8  9  1  0
  8 46  1  1
  9 11  1  0
  9 10  2  0
 11 12  1  0
 12 13  2  0
 12 17  1  0
 13 47  1  0
 13 14  1  0
 14 19  1  0
 14 15  2  0
 15 48  1  0
 15 16  1  0
 16 17  2  0
 16 18  1  0
 18 49  1  0
 19 50  1  0
 20 29  1  0
 20 51  1  6
 20 21  1  0
 21 22  1  0
 21 52  1  1
 21 33  1  0
 22 27  2  0
 22 23  1  0
 23 24  2  0
 23 32  1  0
 24 25  1  0
 24 53  1  0
 25 31  1  0
 25 26  2  0
 26 54  1  0
 26 27  1  0
 27 28  1  0
 28 29  1  0
 29 30  2  0
 31 55  1  0
 32 56  1  0
 33 34  2  0
 33 38  1  0
 34 57  1  0
 34 35  1  0
 35 58  1  0
 35 36  2  0
 36 37  1  0
 36 39  1  0
 37 38  2  0
 37 59  1  0
 38 60  1  0
 39 61  1  0
 40 62  1  0
M  END
>  <id>  (973) 
1093

>  <scaffolds>  (973) 
['c1ccccc1', 'O=C1Oc2ccccc2C(c2ccccc2)C1C1C(=O)Oc2ccccc2C1c1ccccc1', 'c1ccc(Cc2ccccc2)cc1']

>  <name>  (973) 
Diphysin

>  <formula>  (973) 
C30H22O10

>  <SMILES>  (973) 
C1=CC(=CC=C1[C@@H]2[C@@H](C(=O)OC3=CC(=CC(=C23)O)O)[C@H]4[C@H](C5=C(C=C(C=C5OC4=O)O)O)C6=CC=C(C=C6)O)O

>  <ChEMBL_id>  (973) 


>  <ZINC_id>  (973) 


>  <PubChem_id>  (973) 
133556276

>  <DrugBank_id>  (973) 


>  <CAS_no>  (973) 
152246-61-2

>  <references>  (973) 
[{'journal': {'name': 'Planta Medica', 'id': 54}, 'title': 'Antiplasmodial and antibacterial activity of compounds isolated from ormocarpum trichocarpum', 'year': 2012, 'start_page': None, 'volume': None, 'issue': None, 'doi': '10.1055/s-0032-1315386', 'isbn': '', 'despositor': {'code': 'TMM', 'first_name': 'Thommas', 'last_name': 'Musyoka', 'id': 22}, 'refauthors_set': [{'author': {'first_name': 'Jude', 'initials': 'J', 'last_name': 'Chukwujekwu', 'id': 487}, 'first_author': True, 'id': 1657}], 'id': 564}]

>  <classifications>  (973) 
[{'classification': 'Flavanoid', 'id': 774}, {'classification': 'Neoflavonoids (Classyfire)', 'id': 1015}]

>  <molecular_mass>  (973) 
542.5

$$$$
SANC01094_minRM1.pdb
     RDKit          3D

 41 46  0  0  1  0  0  0  0  0999 V2000
   -2.0880   -4.1040    0.1730 C   0  0  0  0  0  0  0  0  0  0  0  0
   -2.4170   -2.6880   -0.1260 N   0  0  0  0  0  0  0  0  0  0  0  0
   -3.5990   -2.2540    0.6680 C   0  0  0  0  0  0  0  0  0  0  0  0
   -4.0480   -0.8930    0.1360 C   0  0  0  0  0  0  0  0  0  0  0  0
   -2.9240    0.0840    0.1120 C   0  0  0  0  0  0  0  0  0  0  0  0
   -3.2520    1.4530    0.0400 C   0  0  0  0  0  0  0  0  0  0  0  0
   -2.1950    2.3160   -0.0400 C   0  0  0  0  0  0  0  0  0  0  0  0
   -0.8530    1.8830   -0.0460 C   0  0  0  0  0  0  0  0  0  0  0  0
   -0.5200    0.5530    0.0370 C   0  0  0  0  0  0  0  0  0  0  0  0
   -1.6090   -0.3500    0.1110 C   0  0  0  0  0  0  0  0  0  0  0  0
   -1.2500   -1.8060    0.1880 C   0  0  2  0  0  0  0  0  0  0  0  0
   -0.1380   -2.0690   -0.8480 C   0  0  0  0  0  0  0  0  0  0  0  0
    1.0500   -1.2430   -0.4840 C   0  0  0  0  0  0  0  0  0  0  0  0
    2.3340   -1.7900   -0.6280 C   0  0  0  0  0  0  0  0  0  0  0  0
    3.3710   -0.9840   -0.2300 C   0  0  0  0  0  0  0  0  0  0  0  0
    3.1630    0.3000    0.3040 C   0  0  0  0  0  0  0  0  0  0  0  0
    1.9140    0.8520    0.4400 C   0  0  0  0  0  0  0  0  0  0  0  0
    0.8450    0.0510    0.0010 C   0  0  0  0  0  0  0  0  0  0  0  0
    4.3720    0.8540    0.6400 O   0  0  0  0  0  0  0  0  0  0  0  0
    5.3640   -0.1090    0.2910 C   0  0  0  0  0  0  0  0  0  0  0  0
    4.7130   -1.2580   -0.2480 O   0  0  0  0  0  0  0  0  0  0  0  0
   -0.0320    2.9730   -0.1720 O   0  0  0  0  0  0  0  0  0  0  0  0
   -0.8810    4.1170   -0.2380 C   0  0  0  0  0  0  0  0  0  0  0  0
   -2.2340    3.6820   -0.1430 O   0  0  0  0  0  0  0  0  0  0  0  0
   -1.9200   -4.3500    1.2390 H   0  0  0  0  0  0  0  0  0  0  0  0
   -1.1760   -4.4100   -0.3730 H   0  0  0  0  0  0  0  0  0  0  0  0
   -2.9030   -4.7550   -0.1870 H   0  0  0  0  0  0  0  0  0  0  0  0
   -4.4200   -2.9970    0.5500 H   0  0  0  0  0  0  0  0  0  0  0  0
   -3.4170   -2.2030    1.7700 H   0  0  0  0  0  0  0  0  0  0  0  0
   -4.4570   -0.9900   -0.8940 H   0  0  0  0  0  0  0  0  0  0  0  0
   -4.8960   -0.5160    0.7480 H   0  0  0  0  0  0  0  0  0  0  0  0
   -4.2860    1.8030    0.0380 H   0  0  0  0  0  0  0  0  0  0  0  0
   -0.8390   -1.9940    1.2250 H   0  0  0  0  0  0  0  0  0  0  0  0
   -0.4820   -1.8140   -1.8740 H   0  0  0  0  0  0  0  0  0  0  0  0
    0.1100   -3.1520   -0.8950 H   0  0  0  0  0  0  0  0  0  0  0  0
    2.5040   -2.7900   -1.0290 H   0  0  0  0  0  0  0  0  0  0  0  0
    1.7820    1.8410    0.8810 H   0  0  0  0  0  0  0  0  0  0  0  0
    5.9350   -0.3990    1.2000 H   0  0  0  0  0  0  0  0  0  0  0  0
    6.0490    0.3210   -0.4710 H   0  0  0  0  0  0  0  0  0  0  0  0
   -0.6500    4.8000    0.6080 H   0  0  0  0  0  0  0  0  0  0  0  0
   -0.7240    4.6400   -1.2070 H   0  0  0  0  0  0  0  0  0  0  0  0
  1 26  1  0
  1 27  1  0
  1  2  1  0
  1 25  1  0
  2 11  1  0
  2  3  1  0
  3  4  1  0
  3 28  1  0
  3 29  1  0
  4 30  1  0
  4  5  1  0
  4 31  1  0
  5  6  2  0
  5 10  1  0
  6  7  1  0
  6 32  1  0
  7 24  1  0
  7  8  2  0
  8 22  1  0
  8  9  1  0
  9 18  1  0
  9 10  2  0
 10 11  1  0
 11 12  1  0
 11 33  1  1
 12 34  1  0
 12 35  1  0
 12 13  1  0
 13 14  2  0
 13 18  1  0
 14 36  1  0
 14 15  1  0
 15 21  1  0
 15 16  2  0
 16 17  1  0
 16 19  1  0
 17 18  2  0
 17 37  1  0
 19 20  1  0
 20 39  1  0
 20 21  1  0
 20 38  1  0
 22 23  1  0
 23 41  1  0
 23 24  1  0
 23 40  1  0
M  END
>  <id>  (974) 
1094

>  <scaffolds>  (974) 
['c1ccccc1', 'c1ccc(CCc2ccccc2)cc1', 'c1ccc2c(c1)CC1NCCc3cccc-2c31', 'c1ccc2c(c1)CC1NCCc3cc4c(c-2c31)OCO4', 'c1cc2c3c(c1)-c1cc4c(cc1CC3NCC2)OCO4', 'c1c2c(cc3c1OCO3)-c1c3c(cc4c1C(C2)NCC4)OCO3', 'c1ccc2c(c1)OCO2', 'c1ccc(CC2NCCc3ccccc32)cc1']

>  <name>  (974) 
Neolitsine

>  <formula>  (974) 
C19H17NO4

>  <SMILES>  (974) 
CN1CCC2=CC3=C(C4=C2[C@@H]1CC5=CC6=C(C=C54)OCO6)OCO3

>  <ChEMBL_id>  (974) 
CHEMBL404684

>  <ZINC_id>  (974) 
ZINC14613037

>  <PubChem_id>  (974) 
10064778

>  <DrugBank_id>  (974) 


>  <CAS_no>  (974) 
2466-42-4

>  <references>  (974) 
[{'journal': {'name': 'Planta Medica', 'id': 54}, 'title': 'Anthelmintic activity of aporphine alkaloids from Cissampelos capensis', 'year': 2007, 'start_page': None, 'volume': None, 'issue': None, 'doi': '10.1055/s-2007-967124', 'isbn': '', 'despositor': {'code': 'TMM', 'first_name': 'Thommas', 'last_name': 'Musyoka', 'id': 22}, 'refauthors_set': [{'author': {'first_name': 'Sloan', 'initials': 'AS', 'last_name': 'Ayers', 'id': 1077}, 'first_author': True, 'id': 1659}], 'id': 566}]

>  <classifications>  (974) 
[{'classification': 'Alkaloid', 'id': 738}, {'classification': 'Aporphines (Classyfire)', 'id': 976}]

>  <molecular_mass>  (974) 
323.3

$$$$
SANC01095_minRM1.pdb
     RDKit          3D

 27 28  0  0  0  0  0  0  0  0999 V2000
   -1.1730   -3.4760   -0.7860 C   0  0  0  0  0  0  0  0  0  0  0  0
   -0.7680   -2.7890    0.3790 O   0  0  0  0  0  0  0  0  0  0  0  0
   -0.6300   -1.4440    0.1890 C   0  0  0  0  0  0  0  0  0  0  0  0
   -1.7460   -0.6200    0.1540 C   0  0  0  0  0  0  0  0  0  0  0  0
   -1.6020    0.7880    0.0620 C   0  0  0  0  0  0  0  0  0  0  0  0
   -0.3260    1.3440    0.0230 C   0  0  0  0  0  0  0  0  0  0  0  0
    0.7910    0.4830    0.0550 C   0  0  0  0  0  0  0  0  0  0  0  0
    0.6640   -0.9010    0.1260 C   0  0  0  0  0  0  0  0  0  0  0  0
    1.8590   -1.7050    0.1620 C   0  0  0  0  0  0  0  0  0  0  0  0
    3.0550   -1.1000    0.0960 C   0  0  0  0  0  0  0  0  0  0  0  0
    3.1500    0.3480   -0.0110 C   0  0  0  0  0  0  0  0  0  0  0  0
    4.1500    1.0300   -0.1050 O   0  0  0  0  0  0  0  0  0  0  0  0
    1.9930    1.1110   -0.0130 O   0  0  0  0  0  0  0  0  0  0  0  0
   -0.1780    2.6930    0.0470 O   0  0  0  0  0  0  0  0  0  0  0  0
   -2.7990    1.4230    0.0710 O   0  0  0  0  0  0  0  0  0  0  0  0
   -2.8460    2.8190   -0.1030 C   0  0  0  0  0  0  0  0  0  0  0  0
   -2.9680   -1.2080    0.1090 O   0  0  0  0  0  0  0  0  0  0  0  0
   -2.1500   -3.1540   -1.1810 H   0  0  0  0  0  0  0  0  0  0  0  0
   -1.2510   -4.5230   -0.4560 H   0  0  0  0  0  0  0  0  0  0  0  0
   -0.4270   -3.4050   -1.5950 H   0  0  0  0  0  0  0  0  0  0  0  0
    1.7630   -2.7930    0.2460 H   0  0  0  0  0  0  0  0  0  0  0  0
    4.0040   -1.6420    0.1190 H   0  0  0  0  0  0  0  0  0  0  0  0
    0.5480    2.9270   -0.5460 H   0  0  0  0  0  0  0  0  0  0  0  0
   -3.9290    3.0180   -0.1460 H   0  0  0  0  0  0  0  0  0  0  0  0
   -2.4160    3.3730    0.7470 H   0  0  0  0  0  0  0  0  0  0  0  0
   -2.3860    3.1590   -1.0440 H   0  0  0  0  0  0  0  0  0  0  0  0
   -3.5070   -0.8020    0.8020 H   0  0  0  0  0  0  0  0  0  0  0  0
  1 20  1  0
  1 18  1  0
  1 19  1  0
  1  2  1  0
  2  3  1  0
  3  8  2  0
  3  4  1  0
  4  5  2  0
  4 17  1  0
  5  6  1  0
  5 15  1  0
  6 14  1  0
  6  7  2  0
  7 13  1  0
  7  8  1  0
  8  9  1  0
  9 10  2  0
  9 21  1  0
 10 11  1  0
 10 22  1  0
 11 12  2  0
 11 13  1  0
 14 23  1  0
 15 16  1  0
 16 26  1  0
 16 24  1  0
 16 25  1  0
 17 27  1  0
M  END
>  <id>  (975) 
1095

>  <scaffolds>  (975) 
['c1ccccc1', 'O=c1ccc2ccccc2o1']

>  <name>  (975) 
6,8-dihydroxy-5,7-dimethoxycoumarin

>  <formula>  (975) 
C11H10O6

>  <SMILES>  (975) 
COC1=C(C(=C(C2=C1C=CC(=O)O2)O)OC)O

>  <ChEMBL_id>  (975) 
SCHEMBL17047860

>  <ZINC_id>  (975) 


>  <PubChem_id>  (975) 
3025904

>  <DrugBank_id>  (975) 


>  <CAS_no>  (975) 
167105-92-2

>  <references>  (975) 
[{'journal': {'name': 'Planta Medica', 'id': 54}, 'title': 'Antibacterial Activity of Extracts and Constituents of Pelargonium sidoides and Pelargonium reniforme', 'year': 2006, 'start_page': None, 'volume': None, 'issue': None, 'doi': 'https://doi.org/10.1055/s-2006-957752', 'isbn': '', 'despositor': {'code': 'BND', 'first_name': "Bakary N'tji", 'last_name': 'Diallo', 'id': 26}, 'refauthors_set': [{'author': {'first_name': 'O', 'initials': 'OK', 'last_name': 'Kayser', 'id': 1090}, 'first_author': True, 'id': 1672}], 'id': 583}]

>  <classifications>  (975) 
[{'classification': 'Coumarin', 'id': 762}, {'classification': 'Coumarins and derivatives (Classyfire)', 'id': 965}]

>  <molecular_mass>  (975) 
238.19

$$$$
SANC01097_minRM1.pdb
     RDKit          3D

 38 37  0  0  0  0  0  0  0  0999 V2000
   -6.8430    0.2070   -0.6340 C   0  0  0  0  0  0  0  0  0  0  0  0
   -5.5100    0.5490    0.0140 C   0  0  0  0  0  0  0  0  0  0  0  0
   -4.5310   -0.6130   -0.1240 C   0  0  0  0  0  0  0  0  0  0  0  0
   -3.1930   -0.3200    0.5540 C   0  0  0  0  0  0  0  0  0  0  0  0
   -2.3510    0.6570   -0.2600 C   0  0  0  0  0  0  0  0  0  0  0  0
   -1.1240    1.1420    0.5070 C   0  0  0  0  0  0  0  0  0  0  0  0
   -0.1780    0.0280    0.9420 C   0  0  0  0  0  0  0  0  0  0  0  0
    0.3330   -0.7930   -0.2400 C   0  0  0  0  0  0  0  0  0  0  0  0
    1.4990   -1.7040    0.1560 C   0  0  0  0  0  0  0  0  0  0  0  0
    2.8460   -1.2110   -0.3670 C   0  0  0  0  0  0  0  0  0  0  0  0
    3.2460    0.1150    0.2710 C   0  0  0  0  0  0  0  0  0  0  0  0
    4.6400    0.4840   -0.1700 C   0  0  0  0  0  0  0  0  0  0  0  0
    5.6380    0.4340    0.5220 O   0  0  0  0  0  0  0  0  0  0  0  0
    4.8440    0.9060   -1.4430 O   0  0  0  0  0  0  0  0  0  0  0  0
   -7.5620    1.0350   -0.5510 H   0  0  0  0  0  0  0  0  0  0  0  0
   -7.3200   -0.6700   -0.1730 H   0  0  0  0  0  0  0  0  0  0  0  0
   -6.7410   -0.0160   -1.7060 H   0  0  0  0  0  0  0  0  0  0  0  0
   -5.0950    1.4730   -0.4400 H   0  0  0  0  0  0  0  0  0  0  0  0
   -5.6620    0.8060    1.0840 H   0  0  0  0  0  0  0  0  0  0  0  0
   -4.3750   -0.8660   -1.1940 H   0  0  0  0  0  0  0  0  0  0  0  0
   -4.9760   -1.5320    0.3150 H   0  0  0  0  0  0  0  0  0  0  0  0
   -2.6410   -1.2730    0.6970 H   0  0  0  0  0  0  0  0  0  0  0  0
   -3.3540    0.0640    1.5840 H   0  0  0  0  0  0  0  0  0  0  0  0
   -2.9600    1.5410   -0.5530 H   0  0  0  0  0  0  0  0  0  0  0  0
   -2.0600    0.2040   -1.2300 H   0  0  0  0  0  0  0  0  0  0  0  0
   -0.5720    1.8820   -0.1130 H   0  0  0  0  0  0  0  0  0  0  0  0
   -1.4450    1.7210    1.4000 H   0  0  0  0  0  0  0  0  0  0  0  0
    0.6720    0.4760    1.5020 H   0  0  0  0  0  0  0  0  0  0  0  0
   -0.6630   -0.6340    1.6900 H   0  0  0  0  0  0  0  0  0  0  0  0
    0.6090   -0.1300   -1.0860 H   0  0  0  0  0  0  0  0  0  0  0  0
   -0.4940   -1.4130   -0.6490 H   0  0  0  0  0  0  0  0  0  0  0  0
    1.5440   -1.8510    1.2560 H   0  0  0  0  0  0  0  0  0  0  0  0
    1.3220   -2.7300   -0.2360 H   0  0  0  0  0  0  0  0  0  0  0  0
    3.6280   -1.9760   -0.1630 H   0  0  0  0  0  0  0  0  0  0  0  0
    2.8220   -1.1280   -1.4740 H   0  0  0  0  0  0  0  0  0  0  0  0
    3.2170    0.0450    1.3800 H   0  0  0  0  0  0  0  0  0  0  0  0
    2.5330    0.9290    0.0220 H   0  0  0  0  0  0  0  0  0  0  0  0
    4.0130    0.9320   -1.9270 H   0  0  0  0  0  0  0  0  0  0  0  0
  1 17  1  0
  1 15  1  0
  1 16  1  0
  1  2  1  0
  2 18  1  0
  2  3  1  0
  2 19  1  0
  3 20  1  0
  3 21  1  0
  3  4  1  0
  4  5  1  0
  4 22  1  0
  4 23  1  0
  5 25  1  0
  5 24  1  0
  5  6  1  0
  6 26  1  0
  6  7  1  0
  6 27  1  0
  7  8  1  0
  7 28  1  0
  7 29  1  0
  8 30  1  0
  8 31  1  0
  8  9  1  0
  9 10  1  0
  9 33  1  0
  9 32  1  0
 10 35  1  0
 10 34  1  0
 10 11  1  0
 11 12  1  0
 11 37  1  0
 11 36  1  0
 12 14  1  0
 12 13  2  0
 14 38  1  0
M  END
>  <id>  (976) 
1097

>  <scaffolds>  (976) 
[]

>  <name>  (976) 
Lauric acid

>  <formula>  (976) 
C12H24O2

>  <SMILES>  (976) 
CCCCCCCCCCCC(=O)O

>  <ChEMBL_id>  (976) 
CHEMBL108766

>  <ZINC_id>  (976) 
ZINC1529498

>  <PubChem_id>  (976) 
3893

>  <DrugBank_id>  (976) 


>  <CAS_no>  (976) 
143-07-7

>  <references>  (976) 
[{'journal': {'name': 'Pharmaceutical Biology', 'id': 72}, 'title': 'Antimycobacterial activity of the red alga Polysiphonia virgata', 'year': 2008, 'start_page': None, 'volume': None, 'issue': None, 'doi': '10.1080/13880200701739413', 'isbn': '', 'despositor': {'code': 'TMM', 'first_name': 'Thommas', 'last_name': 'Musyoka', 'id': 22}, 'refauthors_set': [{'author': {'first_name': '', 'initials': 'SD', 'last_name': 'Saravanakumar', 'id': 1079}, 'first_author': True, 'id': 1661}], 'id': 568}]

>  <classifications>  (976) 
[{'classification': 'Fatty Acids', 'id': 880}, {'classification': 'Fatty Acyls (Classyfire)', 'id': 957}]

>  <molecular_mass>  (976) 
200.32

$$$$
SANC01098_minRM1.pdb
     RDKit          3D

 52 51  0  0  0  0  0  0  0  0999 V2000
    8.9430    1.2930   -0.6680 C   0  0  0  0  0  0  0  0  0  0  0  0
    7.7360    0.7370    0.0720 C   0  0  0  0  0  0  0  0  0  0  0  0
    6.4660    1.4780   -0.3330 C   0  0  0  0  0  0  0  0  0  0  0  0
    5.2810    1.1410    0.5670 C   0  0  0  0  0  0  0  0  0  0  0  0
    4.9410   -0.3470    0.6340 C   0  0  0  0  0  0  0  0  0  0  0  0
    4.6210   -0.9000   -0.7110 C   0  0  0  0  0  0  0  0  0  0  0  0
    3.4660   -1.4580   -1.0630 C   0  0  0  0  0  0  0  0  0  0  0  0
    2.2860   -1.6160   -0.1640 C   0  0  0  0  0  0  0  0  0  0  0  0
    1.6570   -0.3000    0.1420 C   0  0  0  0  0  0  0  0  0  0  0  0
    0.5060   -0.1650    0.7990 C   0  0  0  0  0  0  0  0  0  0  0  0
   -0.3100   -1.3070    1.3010 C   0  0  0  0  0  0  0  0  0  0  0  0
   -1.2470   -1.8320    0.2090 C   0  0  0  0  0  0  0  0  0  0  0  0
   -2.6570   -1.2520    0.3090 C   0  0  0  0  0  0  0  0  0  0  0  0
   -2.6600    0.2660    0.1640 C   0  0  0  0  0  0  0  0  0  0  0  0
   -4.0440    0.8060   -0.1900 C   0  0  0  0  0  0  0  0  0  0  0  0
   -5.0710    0.4840    0.8900 C   0  0  0  0  0  0  0  0  0  0  0  0
   -6.3720    1.2500    0.6580 C   0  0  0  0  0  0  0  0  0  0  0  0
   -6.9720    0.8520   -0.6580 C   0  0  0  0  0  0  0  0  0  0  0  0
   -7.0820    1.5230   -1.6700 O   0  0  0  0  0  0  0  0  0  0  0  0
   -7.4350   -0.4170   -0.6550 O   0  0  0  0  0  0  0  0  0  0  0  0
    9.8630    0.7440   -0.4200 H   0  0  0  0  0  0  0  0  0  0  0  0
    8.8240    1.2340   -1.7590 H   0  0  0  0  0  0  0  0  0  0  0  0
    9.1330    2.3480   -0.4270 H   0  0  0  0  0  0  0  0  0  0  0  0
    7.6410   -0.3500   -0.1350 H   0  0  0  0  0  0  0  0  0  0  0  0
    7.8960    0.8040    1.1690 H   0  0  0  0  0  0  0  0  0  0  0  0
    6.6400    2.5760   -0.3000 H   0  0  0  0  0  0  0  0  0  0  0  0
    6.2270    1.2800   -1.3990 H   0  0  0  0  0  0  0  0  0  0  0  0
    4.3890    1.7100    0.2270 H   0  0  0  0  0  0  0  0  0  0  0  0
    5.4750    1.5160    1.5950 H   0  0  0  0  0  0  0  0  0  0  0  0
    5.7770   -0.9300    1.0790 H   0  0  0  0  0  0  0  0  0  0  0  0
    4.1100   -0.4910    1.3580 H   0  0  0  0  0  0  0  0  0  0  0  0
    5.4400   -0.8500   -1.4400 H   0  0  0  0  0  0  0  0  0  0  0  0
    3.3340   -1.8420   -2.0800 H   0  0  0  0  0  0  0  0  0  0  0  0
    1.5410   -2.3020   -0.6260 H   0  0  0  0  0  0  0  0  0  0  0  0
    2.5800   -2.1370    0.7760 H   0  0  0  0  0  0  0  0  0  0  0  0
    2.2010    0.5860   -0.2040 H   0  0  0  0  0  0  0  0  0  0  0  0
    0.1040    0.8340    0.9980 H   0  0  0  0  0  0  0  0  0  0  0  0
   -0.8780   -1.0080    2.2070 H   0  0  0  0  0  0  0  0  0  0  0  0
    0.3450   -2.1250    1.6730 H   0  0  0  0  0  0  0  0  0  0  0  0
   -0.8240   -1.6410   -0.8000 H   0  0  0  0  0  0  0  0  0  0  0  0
   -1.3080   -2.9400    0.2700 H   0  0  0  0  0  0  0  0  0  0  0  0
   -3.2990   -1.7170   -0.4690 H   0  0  0  0  0  0  0  0  0  0  0  0
   -3.1230   -1.5530    1.2710 H   0  0  0  0  0  0  0  0  0  0  0  0
   -1.9340    0.5820   -0.6160 H   0  0  0  0  0  0  0  0  0  0  0  0
   -2.2920    0.7460    1.0960 H   0  0  0  0  0  0  0  0  0  0  0  0
   -3.9810    1.9050   -0.3470 H   0  0  0  0  0  0  0  0  0  0  0  0
   -4.3750    0.4080   -1.1730 H   0  0  0  0  0  0  0  0  0  0  0  0
   -5.2780   -0.6060    0.9320 H   0  0  0  0  0  0  0  0  0  0  0  0
   -4.6730    0.7370    1.8960 H   0  0  0  0  0  0  0  0  0  0  0  0
   -7.0980    1.0550    1.4760 H   0  0  0  0  0  0  0  0  0  0  0  0
   -6.2060    2.3490    0.6730 H   0  0  0  0  0  0  0  0  0  0  0  0
   -7.8080   -0.6590   -1.5140 H   0  0  0  0  0  0  0  0  0  0  0  0
  1 22  1  0
  1 23  1  0
  1 21  1  0
  1  2  1  0
  2  3  1  0
  2 24  1  0
  2 25  1  0
  3 27  1  0
  3 26  1  0
  3  4  1  0
  4 28  1  0
  4  5  1  0
  4 29  1  0
  5  6  1  0
  5 30  1  0
  5 31  1  0
  6 32  1  0
  6  7  2  0
  7 33  1  0
  7  8  1  0
  8 34  1  0
  8  9  1  0
  8 35  1  0
  9 36  1  0
  9 10  2  0
 10 37  1  0
 10 11  1  0
 11 12  1  0
 11 39  1  0
 11 38  1  0
 12 40  1  0
 12 41  1  0
 12 13  1  0
 13 42  1  0
 13 14  1  0
 13 43  1  0
 14 44  1  0
 14 15  1  0
 14 45  1  0
 15 47  1  0
 15 46  1  0
 15 16  1  0
 16 17  1  0
 16 48  1  0
 16 49  1  0
 17 18  1  0
 17 51  1  0
 17 50  1  0
 18 19  2  0
 18 20  1  0
 20 52  1  0
M  END
>  <id>  (977) 
1098

>  <scaffolds>  (977) 
[]

>  <name>  (977) 
Linoleic acid

>  <formula>  (977) 
C18H32O2

>  <SMILES>  (977) 
CCCCC/C=C\C/C=C\CCCCCCCC(=O)O

>  <ChEMBL_id>  (977) 
SCHEMBL7067

>  <ZINC_id>  (977) 
ZINC4474613

>  <PubChem_id>  (977) 
5280450

>  <DrugBank_id>  (977) 


>  <CAS_no>  (977) 
60-33-3

>  <references>  (977) 
[{'journal': {'name': 'Pharmaceutical Biology', 'id': 72}, 'title': 'Antimycobacterial activity of the red alga Polysiphonia virgata', 'year': 2008, 'start_page': None, 'volume': None, 'issue': None, 'doi': '10.1080/13880200701739413', 'isbn': '', 'despositor': {'code': 'TMM', 'first_name': 'Thommas', 'last_name': 'Musyoka', 'id': 22}, 'refauthors_set': [{'author': {'first_name': '', 'initials': 'SD', 'last_name': 'Saravanakumar', 'id': 1079}, 'first_author': True, 'id': 1661}], 'id': 568}]

>  <classifications>  (977) 
[{'classification': 'Fatty Acids', 'id': 880}, {'classification': 'Fatty Acyls (Classyfire)', 'id': 957}]

>  <molecular_mass>  (977) 
280.4

$$$$
SANC01099_minRM1.pdb
     RDKit          3D

 48 51  0  0  1  0  0  0  0  0999 V2000
   -2.7410   -0.0860    1.9100 C   0  0  0  0  0  0  0  0  0  0  0  0
   -3.8410   -1.0650    1.4460 C   0  0  1  0  0  0  0  0  0  0  0  0
   -4.3890   -0.5920    0.0750 C   0  0  1  0  0  0  0  0  0  0  0  0
   -3.1980   -0.4650   -0.9040 C   0  0  2  0  0  0  0  0  0  0  0  0
   -2.2090    0.5560   -0.2790 C   0  0  1  0  0  0  0  0  0  0  0  0
   -1.7340    0.0780    0.9490 O   0  0  0  0  0  0  0  0  0  0  0  0
   -1.0950    0.7420   -1.1140 O   0  0  0  0  0  0  0  0  0  0  0  0
    0.0710    0.1350   -0.7400 C   0  0  0  0  0  0  0  0  0  0  0  0
    1.0620    0.8890   -0.2210 C   0  0  0  0  0  0  0  0  0  0  0  0
    2.2990    0.3840    0.0730 O   0  0  0  0  0  0  0  0  0  0  0  0
    2.4800   -0.9640   -0.0160 C   0  0  0  0  0  0  0  0  0  0  0  0
    3.7140   -1.4040    0.4620 C   0  0  0  0  0  0  0  0  0  0  0  0
    3.9700   -2.7730    0.3900 C   0  0  0  0  0  0  0  0  0  0  0  0
    3.0460   -3.6860   -0.1290 C   0  0  0  0  0  0  0  0  0  0  0  0
    1.8280   -3.1920   -0.5980 C   0  0  0  0  0  0  0  0  0  0  0  0
    1.5210   -1.8210   -0.5600 C   0  0  0  0  0  0  0  0  0  0  0  0
    0.2620   -1.2860   -1.0690 C   0  0  0  0  0  0  0  0  0  0  0  0
   -0.5260   -1.9220   -1.7440 O   0  0  0  0  0  0  0  0  0  0  0  0
    0.8750   -3.9900   -1.1100 O   0  0  0  0  0  0  0  0  0  0  0  0
    5.1770   -3.1530    0.8620 O   0  0  0  0  0  0  0  0  0  0  0  0
    1.0450    2.3290    0.0260 C   0  0  0  0  0  0  0  0  0  0  0  0
    0.1360    2.8730    0.9330 C   0  0  0  0  0  0  0  0  0  0  0  0
    0.1090    4.2400    1.1510 C   0  0  0  0  0  0  0  0  0  0  0  0
    1.0070    5.0530    0.4510 C   0  0  0  0  0  0  0  0  0  0  0  0
    1.9290    4.5180   -0.4510 C   0  0  0  0  0  0  0  0  0  0  0  0
    1.9430    3.1450   -0.6570 C   0  0  0  0  0  0  0  0  0  0  0  0
    0.9150    6.3780    0.7170 O   0  0  0  0  0  0  0  0  0  0  0  0
   -3.7260    0.0640   -2.0800 O   0  0  0  0  0  0  0  0  0  0  0  0
   -5.2830   -1.5810   -0.3310 O   0  0  0  0  0  0  0  0  0  0  0  0
   -3.2160   -2.3060    1.3620 O   0  0  0  0  0  0  0  0  0  0  0  0
   -3.1920    0.8900    2.2020 H   0  0  0  0  0  0  0  0  0  0  0  0
   -2.1890   -0.4740    2.7930 H   0  0  0  0  0  0  0  0  0  0  0  0
   -4.6750   -1.0820    2.1990 H   0  0  0  0  0  0  0  0  0  0  0  0
   -4.9140    0.3950    0.1920 H   0  0  0  0  0  0  0  0  0  0  0  0
   -2.7220   -1.4690   -1.0590 H   0  0  0  0  0  0  0  0  0  0  0  0
   -2.6670    1.5830   -0.2080 H   0  0  0  0  0  0  0  0  0  0  0  0
    4.4490   -0.7090    0.8770 H   0  0  0  0  0  0  0  0  0  0  0  0
    3.2710   -4.7540   -0.1650 H   0  0  0  0  0  0  0  0  0  0  0  0
    1.1750   -4.9080   -1.0840 H   0  0  0  0  0  0  0  0  0  0  0  0
    5.2670   -4.1100    0.7820 H   0  0  0  0  0  0  0  0  0  0  0  0
   -0.5520    2.2210    1.4800 H   0  0  0  0  0  0  0  0  0  0  0  0
   -0.5990    4.6820    1.8580 H   0  0  0  0  0  0  0  0  0  0  0  0
    2.6320    5.1560   -0.9920 H   0  0  0  0  0  0  0  0  0  0  0  0
    2.6600    2.7080   -1.3580 H   0  0  0  0  0  0  0  0  0  0  0  0
    1.5670    6.8500    0.1870 H   0  0  0  0  0  0  0  0  0  0  0  0
   -3.0240    0.0420   -2.7390 H   0  0  0  0  0  0  0  0  0  0  0  0
   -5.5690   -1.3730   -1.2260 H   0  0  0  0  0  0  0  0  0  0  0  0
   -3.8530   -2.9440    1.0220 H   0  0  0  0  0  0  0  0  0  0  0  0
  1  6  1  0
  1  2  1  0
  1 31  1  0
  1 32  1  0
  2  3  1  0
  2 30  1  0
  2 33  1  1
  3  4  1  0
  3 29  1  0
  3 34  1  1
  4 28  1  0
  4 35  1  6
  4  5  1  0
  5  7  1  0
  5 36  1  1
  5  6  1  0
  7  8  1  0
  8 17  1  0
  8  9  2  0
  9 21  1  0
  9 10  1  0
 10 11  1  0
 11 16  2  0
 11 12  1  0
 12 13  2  0
 12 37  1  0
 13 14  1  0
 13 20  1  0
 14 15  2  0
 14 38  1  0
 15 19  1  0
 15 16  1  0
 16 17  1  0
 17 18  2  0
 19 39  1  0
 20 40  1  0
 21 26  2  0
 21 22  1  0
 22 23  2  0
 22 41  1  0
 23 24  1  0
 23 42  1  0
 24 25  2  0
 24 27  1  0
 25 43  1  0
 25 26  1  0
 26 44  1  0
 27 45  1  0
 28 46  1  0
 29 47  1  0
 30 48  1  0
M  END
>  <id>  (978) 
1099

>  <scaffolds>  (978) 
['c1ccccc1', 'O=c1cc(-c2ccccc2)oc2ccccc12', 'O=c1c(OC2CCCCO2)c(-c2ccccc2)oc2ccccc12', 'C1CCOCC1', 'O=c1ccoc2ccccc12']

>  <name>  (978) 
Kaempferol 3-o-arabinoside

>  <formula>  (978) 
C20H18O10

>  <SMILES>  (978) 
C1[C@@H]([C@@H]([C@H]([C@@H](O1)OC2=C(OC3=CC(=CC(=C3C2=O)O)O)C4=CC=C(C=C4)O)O)O)O

>  <ChEMBL_id>  (978) 
SCHEMBL1279116

>  <ZINC_id>  (978) 
ZINC31155769

>  <PubChem_id>  (978) 
5481882

>  <DrugBank_id>  (978) 


>  <CAS_no>  (978) 
99882-10-7

>  <references>  (978) 
[{'journal': {'name': 'Pharmaceutical Biology', 'id': 72}, 'title': 'Antibacterial activity of South African medicinal plants against methicillin resistant Staphylococcus aureus', 'year': 2009, 'start_page': None, 'volume': None, 'issue': None, 'doi': '10.1080/13880200802434096', 'isbn': '', 'despositor': {'code': 'TMM', 'first_name': 'Thommas', 'last_name': 'Musyoka', 'id': 22}, 'refauthors_set': [{'author': {'first_name': '', 'initials': 'HM', 'last_name': 'Heyman', 'id': 1080}, 'first_author': True, 'id': 1662}], 'id': 569}]

>  <classifications>  (978) 
[{'classification': 'Flavanoid', 'id': 774}, {'classification': 'Flavonoids (Classyfire)', 'id': 941}]

>  <molecular_mass>  (978) 
418.3

$$$$
SANC01100_minRM1.pdb
     RDKit          3D

 24 24  0  0  0  0  0  0  0  0999 V2000
    4.5250   -0.5840    0.2620 C   0  0  0  0  0  0  0  0  0  0  0  0
    3.6430    0.4890    0.0550 O   0  0  0  0  0  0  0  0  0  0  0  0
    2.3140    0.1970   -0.0510 C   0  0  0  0  0  0  0  0  0  0  0  0
    1.7570   -1.0750    0.0410 C   0  0  0  0  0  0  0  0  0  0  0  0
    0.3800   -1.2140   -0.0890 C   0  0  0  0  0  0  0  0  0  0  0  0
   -0.4290   -0.1020   -0.2970 C   0  0  0  0  0  0  0  0  0  0  0  0
    0.1450    1.1670   -0.3920 C   0  0  0  0  0  0  0  0  0  0  0  0
    1.5140    1.3270   -0.2720 C   0  0  0  0  0  0  0  0  0  0  0  0
   -1.8720   -0.2770   -0.4260 C   0  0  0  0  0  0  0  0  0  0  0  0
   -2.7320    0.5330    0.1890 C   0  0  0  0  0  0  0  0  0  0  0  0
   -4.2200    0.4090    0.0750 C   0  0  0  0  0  0  0  0  0  0  0  0
   -4.5310   -0.9280   -0.2010 O   0  0  0  0  0  0  0  0  0  0  0  0
    4.3500   -1.1150    1.2130 H   0  0  0  0  0  0  0  0  0  0  0  0
    4.5260   -1.3140   -0.5640 H   0  0  0  0  0  0  0  0  0  0  0  0
    5.5130   -0.1010    0.3060 H   0  0  0  0  0  0  0  0  0  0  0  0
    2.3610   -1.9690    0.2110 H   0  0  0  0  0  0  0  0  0  0  0  0
   -0.0690   -2.2100   -0.0200 H   0  0  0  0  0  0  0  0  0  0  0  0
   -0.4860    2.0430   -0.5750 H   0  0  0  0  0  0  0  0  0  0  0  0
    1.9690    2.3190   -0.3480 H   0  0  0  0  0  0  0  0  0  0  0  0
   -2.1960   -1.1200   -1.0480 H   0  0  0  0  0  0  0  0  0  0  0  0
   -2.3970    1.3630    0.8200 H   0  0  0  0  0  0  0  0  0  0  0  0
   -4.5870    1.0980   -0.7250 H   0  0  0  0  0  0  0  0  0  0  0  0
   -4.7120    0.7510    1.0180 H   0  0  0  0  0  0  0  0  0  0  0  0
   -5.4850   -0.9800   -0.3040 H   0  0  0  0  0  0  0  0  0  0  0  0
  1 14  1  0
  1  2  1  0
  1 15  1  0
  1 13  1  0
  2  3  1  0
  3  8  2  0
  3  4  1  0
  4  5  2  0
  4 16  1  0
  5  6  1  0
  5 17  1  0
  6  9  1  0
  6  7  2  0
  7 18  1  0
  7  8  1  0
  8 19  1  0
  9 20  1  0
  9 10  2  0
 10 11  1  0
 10 21  1  0
 11 22  1  0
 11 12  1  0
 11 23  1  0
 12 24  1  0
M  END
>  <id>  (979) 
1100

>  <scaffolds>  (979) 
['c1ccccc1']

>  <name>  (979) 
4-methoxycinnamyl alcohol

>  <formula>  (979) 
C10H12O2

>  <SMILES>  (979) 
COC1=CC=C(C=C1)/C=C/CO

>  <ChEMBL_id>  (979) 
SCHEMBL1278753

>  <ZINC_id>  (979) 
ZINC1633876

>  <PubChem_id>  (979) 
5314180

>  <DrugBank_id>  (979) 


>  <CAS_no>  (979) 
17581-85-0

>  <references>  (979) 
[{'journal': {'name': 'Natural Product Research', 'id': 18}, 'title': 'Cytotoxicity of syringin and 4-methoxycinnamyl alcohol isolated from Foeniculum vulgare on selected human cell lines', 'year': 2015, 'start_page': None, 'volume': None, 'issue': None, 'doi': '10.1080/14786419.2014.999058', 'isbn': '', 'despositor': {'code': 'TMM', 'first_name': 'Thommas', 'last_name': 'Musyoka', 'id': 22}, 'refauthors_set': [{'author': {'first_name': 'Lall', 'initials': 'LN', 'last_name': 'Namrita', 'id': 1013}, 'first_author': True, 'id': 1663}], 'id': 570}]

>  <classifications>  (979) 
[{'classification': 'Cinnamic acids and derivatives', 'id': 934}, {'classification': 'Cinnamyl alcohols (Classyfire)', 'id': 1016}]

>  <molecular_mass>  (979) 
164.2

$$$$
SANC01101_minRM1.pdb
     RDKit          3D

 43 47  0  0  1  0  0  0  0  0999 V2000
   -4.4230   -2.4890   -0.6190 C   0  0  0  0  0  0  0  0  0  0  0  0
   -3.5360   -2.2690    0.4550 O   0  0  0  0  0  0  0  0  0  0  0  0
   -2.7930   -1.1290    0.2810 C   0  0  0  0  0  0  0  0  0  0  0  0
   -1.4530   -1.2210   -0.1110 C   0  0  0  0  0  0  0  0  0  0  0  0
   -0.6730   -0.0540   -0.2000 C   0  0  0  0  0  0  0  0  0  0  0  0
   -1.3450    1.1610   -0.1210 C   0  0  0  0  0  0  0  0  0  0  0  0
   -0.7420    2.4630   -0.5420 C   0  0  2  0  0  0  0  0  0  0  0  0
    0.6280    2.3060   -1.2080 C   0  0  0  0  0  0  0  0  0  0  0  0
    1.4170    1.1420   -0.7210 C   0  0  0  0  0  0  0  0  0  0  0  0
    2.8180    1.2600   -0.7700 C   0  0  0  0  0  0  0  0  0  0  0  0
    3.5300    0.1790   -0.3210 C   0  0  0  0  0  0  0  0  0  0  0  0
    2.8970   -0.9720    0.1800 C   0  0  0  0  0  0  0  0  0  0  0  0
    1.5340   -1.0990    0.2350 C   0  0  0  0  0  0  0  0  0  0  0  0
    0.7820   -0.0190   -0.2730 C   0  0  0  0  0  0  0  0  0  0  0  0
    3.8480   -1.8710    0.5910 O   0  0  0  0  0  0  0  0  0  0  0  0
    5.1110   -1.2680    0.3190 C   0  0  0  0  0  0  0  0  0  0  0  0
    4.8880    0.0220   -0.2480 O   0  0  0  0  0  0  0  0  0  0  0  0
   -0.7210    3.4020    0.6020 N   0  0  0  0  0  0  0  0  0  0  0  0
   -2.0380    3.5040    1.2790 C   0  0  0  0  0  0  0  0  0  0  0  0
   -3.1560    2.6120    0.6980 C   0  0  0  0  0  0  0  0  0  0  0  0
   -2.6380    1.2490    0.3940 C   0  0  0  0  0  0  0  0  0  0  0  0
   -3.3750    0.0960    0.6090 C   0  0  0  0  0  0  0  0  0  0  0  0
   -0.8930   -2.3840   -0.5470 O   0  0  0  0  0  0  0  0  0  0  0  0
   -1.0850   -3.5170    0.2750 C   0  0  0  0  0  0  0  0  0  0  0  0
   -3.9030   -2.6390   -1.5800 H   0  0  0  0  0  0  0  0  0  0  0  0
   -4.9530   -3.4140   -0.3480 H   0  0  0  0  0  0  0  0  0  0  0  0
   -5.1590   -1.6770   -0.7440 H   0  0  0  0  0  0  0  0  0  0  0  0
   -1.4220    2.9280   -1.3160 H   0  0  0  0  0  0  0  0  0  0  0  0
    0.4850    2.1760   -2.3050 H   0  0  0  0  0  0  0  0  0  0  0  0
    1.2010    3.2550   -1.1180 H   0  0  0  0  0  0  0  0  0  0  0  0
    3.3160    2.1580   -1.1400 H   0  0  0  0  0  0  0  0  0  0  0  0
    1.0870   -1.9890    0.6790 H   0  0  0  0  0  0  0  0  0  0  0  0
    5.6760   -1.8980   -0.4020 H   0  0  0  0  0  0  0  0  0  0  0  0
    5.6830   -1.1620    1.2670 H   0  0  0  0  0  0  0  0  0  0  0  0
    0.0050    3.1160    1.2730 H   0  0  0  0  0  0  0  0  0  0  0  0
   -2.3440    4.5740    1.2050 H   0  0  0  0  0  0  0  0  0  0  0  0
   -1.9490    3.3080    2.3730 H   0  0  0  0  0  0  0  0  0  0  0  0
   -4.0110    2.5770    1.4050 H   0  0  0  0  0  0  0  0  0  0  0  0
   -3.5820    3.0620   -0.2250 H   0  0  0  0  0  0  0  0  0  0  0  0
   -4.3940    0.1340    1.0040 H   0  0  0  0  0  0  0  0  0  0  0  0
   -1.2130   -3.2990    1.3460 H   0  0  0  0  0  0  0  0  0  0  0  0
   -0.1730   -4.1200    0.1370 H   0  0  0  0  0  0  0  0  0  0  0  0
   -1.9470   -4.1080   -0.0740 H   0  0  0  0  0  0  0  0  0  0  0  0
  1 25  1  0
  1 27  1  0
  1 26  1  0
  1  2  1  0
  2  3  1  0
  3  4  2  0
  3 22  1  0
  4 23  1  0
  4  5  1  0
  5 14  1  0
  5  6  2  0
  6  7  1  0
  6 21  1  0
  7 28  1  6
  7  8  1  0
  7 18  1  0
  8 29  1  0
  8 30  1  0
  8  9  1  0
  9 10  2  0
  9 14  1  0
 10 31  1  0
 10 11  1  0
 11 17  1  0
 11 12  2  0
 12 13  1  0
 12 15  1  0
 13 14  2  0
 13 32  1  0
 15 16  1  0
 16 33  1  0
 16 17  1  0
 16 34  1  0
 18 35  1  0
 18 19  1  0
 19 20  1  0
 19 36  1  0
 19 37  1  0
 20 39  1  0
 20 21  1  0
 20 38  1  0
 21 22  2  0
 22 40  1  0
 23 24  1  0
 24 43  1  0
 24 42  1  0
 24 41  1  0
M  END
>  <id>  (980) 
1101

>  <scaffolds>  (980) 
['c1ccccc1', 'c1ccc(CCc2ccccc2)cc1', 'c1ccc2c(c1)CC1NCCc3cccc-2c31', 'c1cc2c3c(c1)-c1cc4c(cc1CC3NCC2)OCO4', 'c1ccc2c(c1)OCO2', 'c1ccc(CC2NCCc3ccccc32)cc1']

>  <name>  (980) 
Nornantenine

>  <formula>  (980) 
C19H19NO4

>  <SMILES>  (980) 
COC1=C(C2=C3C(CC4=CC5=C(C=C42)OCO5)NCCC3=C1)OC

>  <ChEMBL_id>  (980) 
CHEMBL1254951

>  <ZINC_id>  (980) 


>  <PubChem_id>  (980) 
3084228

>  <DrugBank_id>  (980) 


>  <CAS_no>  (980) 
15401-66-8

>  <references>  (980) 
[{'journal': {'name': 'Natural Product Research', 'id': 18}, 'title': 'Alkaloids from aerial parts of Annona senegalensis against Streptococcus mutans', 'year': 2017, 'start_page': None, 'volume': None, 'issue': None, 'doi': '10.1080/14786419.2016.1263847', 'isbn': '', 'despositor': {'code': 'TMM', 'first_name': 'Thommas', 'last_name': 'Musyoka', 'id': 22}, 'refauthors_set': [{'author': {'first_name': 'Namrita', 'initials': 'N', 'last_name': 'Lall', 'id': 441}, 'first_author': True, 'id': 1664}], 'id': 571}]

>  <classifications>  (980) 
[{'classification': 'Alkaloid', 'id': 738}, {'classification': 'Aporphines (Classyfire)', 'id': 976}]

>  <molecular_mass>  (980) 
325.4

$$$$
SANC01102_minRM1.pdb
     RDKit          3D

 35 39  0  0  1  0  0  0  0  0999 V2000
   -2.8080   -2.1710   -0.1430 C   0  0  0  0  0  0  0  0  0  0  0  0
   -1.9180   -3.3540   -0.5430 C   0  0  0  0  0  0  0  0  0  0  0  0
   -0.6240   -3.3470    0.1580 N   0  0  0  0  0  0  0  0  0  0  0  0
    0.1420   -2.1280   -0.1770 C   0  0  2  0  0  0  0  0  0  0  0  0
    1.3590   -2.0030    0.7560 C   0  0  0  0  0  0  0  0  0  0  0  0
    2.1730   -0.8300    0.3280 C   0  0  0  0  0  0  0  0  0  0  0  0
    3.5600   -0.8790    0.3560 C   0  0  0  0  0  0  0  0  0  0  0  0
    4.3010    0.2170   -0.0730 C   0  0  0  0  0  0  0  0  0  0  0  0
    3.6550    1.3510   -0.5450 C   0  0  0  0  0  0  0  0  0  0  0  0
    2.2650    1.4090   -0.5670 C   0  0  0  0  0  0  0  0  0  0  0  0
    1.5190    0.3290   -0.1050 C   0  0  0  0  0  0  0  0  0  0  0  0
    0.0660    0.3540   -0.0680 C   0  0  0  0  0  0  0  0  0  0  0  0
   -0.6630   -0.8580   -0.1060 C   0  0  0  0  0  0  0  0  0  0  0  0
   -2.0480   -0.8880   -0.0950 C   0  0  0  0  0  0  0  0  0  0  0  0
   -2.8080    0.2970   -0.0070 C   0  0  0  0  0  0  0  0  0  0  0  0
   -2.0950    1.4610    0.0630 C   0  0  0  0  0  0  0  0  0  0  0  0
   -0.6860    1.4990    0.0330 C   0  0  0  0  0  0  0  0  0  0  0  0
   -0.2710    2.8010    0.1420 O   0  0  0  0  0  0  0  0  0  0  0  0
   -1.4500    3.5970    0.2360 C   0  0  0  0  0  0  0  0  0  0  0  0
   -2.5830    2.7360    0.1770 O   0  0  0  0  0  0  0  0  0  0  0  0
   -3.6670   -2.0910   -0.8420 H   0  0  0  0  0  0  0  0  0  0  0  0
   -3.2740   -2.3490    0.8520 H   0  0  0  0  0  0  0  0  0  0  0  0
   -1.7360   -3.3530   -1.6430 H   0  0  0  0  0  0  0  0  0  0  0  0
   -2.4310   -4.3210   -0.3390 H   0  0  0  0  0  0  0  0  0  0  0  0
   -0.7740   -3.4160    1.1760 H   0  0  0  0  0  0  0  0  0  0  0  0
    0.5010   -2.2520   -1.2390 H   0  0  0  0  0  0  0  0  0  0  0  0
    1.9500   -2.9440    0.7460 H   0  0  0  0  0  0  0  0  0  0  0  0
    1.0510   -1.8680    1.8160 H   0  0  0  0  0  0  0  0  0  0  0  0
    4.0760   -1.7760    0.7100 H   0  0  0  0  0  0  0  0  0  0  0  0
    5.3940    0.1800   -0.0470 H   0  0  0  0  0  0  0  0  0  0  0  0
    4.2390    2.2040   -0.9010 H   0  0  0  0  0  0  0  0  0  0  0  0
    1.7820    2.3040   -0.9680 H   0  0  0  0  0  0  0  0  0  0  0  0
   -3.8990    0.2850    0.0110 H   0  0  0  0  0  0  0  0  0  0  0  0
   -1.4490    4.1470    1.2030 H   0  0  0  0  0  0  0  0  0  0  0  0
   -1.4830    4.3140   -0.6130 H   0  0  0  0  0  0  0  0  0  0  0  0
  1 21  1  0
  1  2  1  0
  1 14  1  0
  1 22  1  0
  2 23  1  0
  2 24  1  0
  2  3  1  0
  3  4  1  0
  3 25  1  0
  4 26  1  6
  4 13  1  0
  4  5  1  0
  5  6  1  0
  5 27  1  0
  5 28  1  0
  6 11  2  0
  6  7  1  0
  7  8  2  0
  7 29  1  0
  8  9  1  0
  8 30  1  0
  9 31  1  0
  9 10  2  0
 10 32  1  0
 10 11  1  0
 11 12  1  0
 12 13  2  0
 12 17  1  0
 13 14  1  0
 14 15  2  0
 15 33  1  0
 15 16  1  0
 16 17  2  0
 16 20  1  0
 17 18  1  0
 18 19  1  0
 19 35  1  0
 19 20  1  0
 19 34  1  0
M  END
>  <id>  (981) 
1102

>  <scaffolds>  (981) 
['c1ccccc1', 'c1ccc(CCc2ccccc2)cc1', 'c1ccc2c(c1)CC1NCCc3cccc-2c31', 'c1ccc2c(c1)CC1NCCc3cc4c(c-2c31)OCO4', 'c1ccc2c(c1)OCO2', 'c1ccc(CC2NCCc3ccccc32)cc1']

>  <name>  (981) 
Anonaine

>  <formula>  (981) 
C17H15NO2

>  <SMILES>  (981) 
C1CN[C@@H]2CC3=CC=CC=C3C4=C2C1=CC5=C4OCO5

>  <ChEMBL_id>  (981) 
SCHEMBL15800856

>  <ZINC_id>  (981) 


>  <PubChem_id>  (981) 
160597

>  <DrugBank_id>  (981) 


>  <CAS_no>  (981) 
1862-41-5

>  <references>  (981) 
[{'journal': {'name': 'Natural Product Research', 'id': 18}, 'title': 'Alkaloids from aerial parts of Annona senegalensis against Streptococcus mutans', 'year': 2017, 'start_page': None, 'volume': None, 'issue': None, 'doi': '10.1080/14786419.2016.1263847', 'isbn': '', 'despositor': {'code': 'TMM', 'first_name': 'Thommas', 'last_name': 'Musyoka', 'id': 22}, 'refauthors_set': [{'author': {'first_name': 'Namrita', 'initials': 'N', 'last_name': 'Lall', 'id': 441}, 'first_author': True, 'id': 1664}], 'id': 571}]

>  <classifications>  (981) 
[{'classification': 'Alkaloid', 'id': 738}, {'classification': 'Aporphines (Classyfire)', 'id': 976}]

>  <molecular_mass>  (981) 
265.31

$$$$
SANC01103_minRM1.pdb
     RDKit          3D

 37 40  0  0  1  0  0  0  0  0999 V2000
   -0.1730    3.8060    0.0950 C   0  0  0  0  0  0  0  0  0  0  0  0
   -0.3070    2.6270   -0.6690 O   0  0  0  0  0  0  0  0  0  0  0  0
    0.5260    1.6070   -0.3100 C   0  0  0  0  0  0  0  0  0  0  0  0
    1.9240    1.7640   -0.3430 C   0  0  0  0  0  0  0  0  0  0  0  0
    2.7690    0.6780   -0.1490 C   0  0  0  0  0  0  0  0  0  0  0  0
    2.2180   -0.5890    0.0350 C   0  0  0  0  0  0  0  0  0  0  0  0
    3.1410   -1.7550    0.1360 C   0  0  0  0  0  0  0  0  0  0  0  0
    2.4350   -3.0010    0.6780 C   0  0  0  0  0  0  0  0  0  0  0  0
    1.1860   -3.1820   -0.0790 N   0  0  0  0  0  0  0  0  0  0  0  0
    0.2140   -2.1080    0.2210 C   0  0  1  0  0  0  0  0  0  0  0  0
    0.8410   -0.7510    0.0690 C   0  0  0  0  0  0  0  0  0  0  0  0
   -0.0220    0.3490   -0.0580 C   0  0  0  0  0  0  0  0  0  0  0  0
   -1.4600    0.1040    0.0150 C   0  0  0  0  0  0  0  0  0  0  0  0
   -2.3570    1.0400    0.5170 C   0  0  0  0  0  0  0  0  0  0  0  0
   -3.7240    0.7790    0.4980 C   0  0  0  0  0  0  0  0  0  0  0  0
   -4.1990   -0.4230   -0.0060 C   0  0  0  0  0  0  0  0  0  0  0  0
   -3.3050   -1.3920   -0.4470 C   0  0  0  0  0  0  0  0  0  0  0  0
   -1.9400   -1.1420   -0.4100 C   0  0  0  0  0  0  0  0  0  0  0  0
   -0.9570   -2.2010   -0.7770 C   0  0  0  0  0  0  0  0  0  0  0  0
    2.3850    3.0210   -0.5630 O   0  0  0  0  0  0  0  0  0  0  0  0
    0.4640    4.5380   -0.4280 H   0  0  0  0  0  0  0  0  0  0  0  0
   -1.1900    4.2230    0.1600 H   0  0  0  0  0  0  0  0  0  0  0  0
    0.2190    3.6630    1.1140 H   0  0  0  0  0  0  0  0  0  0  0  0
    3.8550    0.8030   -0.1690 H   0  0  0  0  0  0  0  0  0  0  0  0
    4.0200   -1.5160    0.7730 H   0  0  0  0  0  0  0  0  0  0  0  0
    3.5640   -1.9580   -0.8730 H   0  0  0  0  0  0  0  0  0  0  0  0
    3.0790   -3.9000    0.5450 H   0  0  0  0  0  0  0  0  0  0  0  0
    2.2970   -2.9110    1.7850 H   0  0  0  0  0  0  0  0  0  0  0  0
    0.7680   -4.1020    0.1060 H   0  0  0  0  0  0  0  0  0  0  0  0
   -0.1930   -2.1750    1.2750 H   0  0  0  0  0  0  0  0  0  0  0  0
   -2.0070    1.9820    0.9480 H   0  0  0  0  0  0  0  0  0  0  0  0
   -4.4240    1.5270    0.8800 H   0  0  0  0  0  0  0  0  0  0  0  0
   -5.2750   -0.6150   -0.0440 H   0  0  0  0  0  0  0  0  0  0  0  0
   -3.6820   -2.3510   -0.8140 H   0  0  0  0  0  0  0  0  0  0  0  0
   -1.4150   -3.2120   -0.7640 H   0  0  0  0  0  0  0  0  0  0  0  0
   -0.6060   -2.0620   -1.8220 H   0  0  0  0  0  0  0  0  0  0  0  0
    3.3440    2.9840   -0.6550 H   0  0  0  0  0  0  0  0  0  0  0  0
  1  2  1  0
  1 21  1  0
  1 22  1  0
  1 23  1  0
  2  3  1  0
  3  4  2  0
  3 12  1  0
  4 20  1  0
  4  5  1  0
  5 24  1  0
  5  6  2  0
  6 11  1  0
  6  7  1  0
  7 26  1  0
  7  8  1  0
  7 25  1  0
  8  9  1  0
  8 27  1  0
  8 28  1  0
  9 29  1  0
  9 10  1  0
 10 19  1  0
 10 11  1  0
 10 30  1  1
 11 12  2  0
 12 13  1  0
 13 18  2  0
 13 14  1  0
 14 15  2  0
 14 31  1  0
 15 16  1  0
 15 32  1  0
 16 17  2  0
 16 33  1  0
 17 34  1  0
 17 18  1  0
 18 19  1  0
 19 36  1  0
 19 35  1  0
 20 37  1  0
M  END
>  <id>  (982) 
1103

>  <scaffolds>  (982) 
['c1ccccc1', 'c1ccc(CCc2ccccc2)cc1', 'c1ccc2c(c1)CC1NCCc3cccc-2c31', 'c1ccc(CC2NCCc3ccccc32)cc1']

>  <name>  (982) 
Asimilobine

>  <formula>  (982) 
C17H17NO2

>  <SMILES>  (982) 
COC1=C(C=C2CCN[C@H]3C2=C1C4=CC=CC=C4C3)O

>  <ChEMBL_id>  (982) 
CHEMBL469423

>  <ZINC_id>  (982) 
ZINC31166315

>  <PubChem_id>  (982) 
160875

>  <DrugBank_id>  (982) 


>  <CAS_no>  (982) 
6871-21-2

>  <references>  (982) 
[{'journal': {'name': 'Natural Product Research', 'id': 18}, 'title': 'Alkaloids from aerial parts of Annona senegalensis against Streptococcus mutans', 'year': 2017, 'start_page': None, 'volume': None, 'issue': None, 'doi': '10.1080/14786419.2016.1263847', 'isbn': '', 'despositor': {'code': 'TMM', 'first_name': 'Thommas', 'last_name': 'Musyoka', 'id': 22}, 'refauthors_set': [{'author': {'first_name': 'Namrita', 'initials': 'N', 'last_name': 'Lall', 'id': 441}, 'first_author': True, 'id': 1664}], 'id': 571}]

>  <classifications>  (982) 
[{'classification': 'Alkaloid', 'id': 738}, {'classification': 'Aporphines (Classyfire)', 'id': 976}]

>  <molecular_mass>  (982) 
267.32

$$$$
SANC01104_minRM1.pdb
     RDKit          3D

 25 25  0  0  0  0  0  0  0  0999 V2000
    3.5480    0.1400    0.4360 C   0  0  0  0  0  0  0  0  0  0  0  0
    2.0990    0.0980    0.1080 C   0  0  0  0  0  0  0  0  0  0  0  0
    1.4580   -1.0470   -0.1350 C   0  0  0  0  0  0  0  0  0  0  0  0
    0.0180   -1.0760   -0.4490 C   0  0  0  0  0  0  0  0  0  0  0  0
   -0.5300   -2.1160   -0.7790 O   0  0  0  0  0  0  0  0  0  0  0  0
   -0.6990    0.2110   -0.3570 C   0  0  0  0  0  0  0  0  0  0  0  0
   -1.9670    0.3040    0.0660 C   0  0  0  0  0  0  0  0  0  0  0  0
   -2.7450   -0.8910    0.4900 C   0  0  0  0  0  0  0  0  0  0  0  0
   -2.6770    1.6100    0.1330 C   0  0  0  0  0  0  0  0  0  0  0  0
    0.1440    1.3620   -0.7850 C   0  0  0  0  0  0  0  0  0  0  0  0
    1.4010    1.4150    0.0830 C   0  0  0  0  0  0  0  0  0  0  0  0
    3.7460    0.7500    1.3300 H   0  0  0  0  0  0  0  0  0  0  0  0
    4.1270    0.5830   -0.3900 H   0  0  0  0  0  0  0  0  0  0  0  0
    3.9840   -0.8520    0.6290 H   0  0  0  0  0  0  0  0  0  0  0  0
    1.9640   -2.0180   -0.1160 H   0  0  0  0  0  0  0  0  0  0  0  0
   -3.6550   -0.6470    1.0570 H   0  0  0  0  0  0  0  0  0  0  0  0
   -3.0650   -1.4810   -0.3840 H   0  0  0  0  0  0  0  0  0  0  0  0
   -2.1630   -1.5710    1.1320 H   0  0  0  0  0  0  0  0  0  0  0  0
   -2.7270    2.0990   -0.8530 H   0  0  0  0  0  0  0  0  0  0  0  0
   -3.7190    1.5290    0.4770 H   0  0  0  0  0  0  0  0  0  0  0  0
   -2.1830    2.3100    0.8240 H   0  0  0  0  0  0  0  0  0  0  0  0
    0.4140    1.2410   -1.8570 H   0  0  0  0  0  0  0  0  0  0  0  0
   -0.3790    2.3390   -0.7470 H   0  0  0  0  0  0  0  0  0  0  0  0
    1.1470    1.7050    1.1250 H   0  0  0  0  0  0  0  0  0  0  0  0
    2.0810    2.2180   -0.2760 H   0  0  0  0  0  0  0  0  0  0  0  0
  1 13  1  0
  1  2  1  0
  1 14  1  0
  1 12  1  0
  2  3  2  0
  2 11  1  0
  3  4  1  0
  3 15  1  0
  4  5  2  0
  4  6  1  0
  6 10  1  0
  6  7  2  0
  7  9  1  0
  7  8  1  0
  8 17  1  0
  8 16  1  0
  8 18  1  0
  9 19  1  0
  9 20  1  0
  9 21  1  0
 10 22  1  0
 10 23  1  0
 10 11  1  0
 11 25  1  0
 11 24  1  0
M  END
>  <id>  (983) 
1104

>  <scaffolds>  (983) 
['C1=CCCCC1', 'O=C1C=CCCC1', 'C=C1CCC=CC1=O']

>  <name>  (983) 
Piperitenone

>  <formula>  (983) 
C10H14O

>  <SMILES>  (983) 
CC1=CC(=O)C(=C(C)C)CC1

>  <ChEMBL_id>  (983) 
SCHEMBL220677

>  <ZINC_id>  (983) 
ZINC18157343

>  <PubChem_id>  (983) 
381152

>  <DrugBank_id>  (983) 


>  <CAS_no>  (983) 
491-09-8

>  <references>  (983) 
[{'journal': {'name': 'Annals of Tropical Medicine and Parasitology', 'id': 73}, 'title': 'Crude extracts of, and purified compounds from, Pterocarpus angolensis, and the essential oil of Lippia javanica: Their in-vitro cytotoxicities and activities against selected bacteria and Entamoeba histolytica', 'year': 2009, 'start_page': None, 'volume': None, 'issue': None, 'doi': '10.1179/136485909X435111', 'isbn': '', 'despositor': {'code': 'TMM', 'first_name': 'Thommas', 'last_name': 'Musyoka', 'id': 22}, 'refauthors_set': [{'author': {'first_name': '', 'initials': 'A', 'last_name': 'Samie', 'id': 1081}, 'first_author': True, 'id': 1665}], 'id': 572}]

>  <classifications>  (983) 
[{'classification': 'Essential oil', 'id': 938}, {'classification': 'Phenol lipids (Classyfire)', 'id': 951}]

>  <molecular_mass>  (983) 
150.22

$$$$
SANC01105_minRM1.pdb
     RDKit          3D

 80 79  0  0  0  0  0  0  0  0999 V2000
    7.3410    3.6050   -0.3600 C   0  0  0  0  0  0  0  0  0  0  0  0
    8.0090    2.2810   -0.2490 C   0  0  0  0  0  0  0  0  0  0  0  0
    7.3200    1.1380   -0.3080 C   0  0  0  0  0  0  0  0  0  0  0  0
    7.9720   -0.1950   -0.1990 C   0  0  0  0  0  0  0  0  0  0  0  0
    6.9580   -1.3370   -0.2990 C   0  0  0  0  0  0  0  0  0  0  0  0
    5.9920   -1.2870    0.8410 C   0  0  0  0  0  0  0  0  0  0  0  0
    4.7230   -0.9190    0.6500 C   0  0  0  0  0  0  0  0  0  0  0  0
    3.6990   -0.8010    1.7240 C   0  0  0  0  0  0  0  0  0  0  0  0
    2.3960   -1.4910    1.3120 C   0  0  0  0  0  0  0  0  0  0  0  0
    1.7860   -0.8280    0.1180 C   0  0  0  0  0  0  0  0  0  0  0  0
    1.2410    0.3860    0.2370 C   0  0  0  0  0  0  0  0  0  0  0  0
    0.6130    1.1520   -0.8750 C   0  0  0  0  0  0  0  0  0  0  0  0
   -0.8990    1.2560   -0.6540 C   0  0  0  0  0  0  0  0  0  0  0  0
   -1.4930   -0.1050   -0.5480 C   0  0  0  0  0  0  0  0  0  0  0  0
   -2.0250   -0.7820   -1.5690 C   0  0  0  0  0  0  0  0  0  0  0  0
   -2.6090   -2.1430   -1.3680 C   0  0  0  0  0  0  0  0  0  0  0  0
   -4.1060   -2.1530   -1.6880 C   0  0  0  0  0  0  0  0  0  0  0  0
   -4.8090   -1.0870   -0.9230 C   0  0  0  0  0  0  0  0  0  0  0  0
   -5.2150   -1.2030    0.3430 C   0  0  0  0  0  0  0  0  0  0  0  0
   -5.9220   -0.0700    1.0180 C   0  0  0  0  0  0  0  0  0  0  0  0
   -7.4350   -0.2490    0.8630 C   0  0  0  0  0  0  0  0  0  0  0  0
   -8.1380    0.9240    1.4530 C   0  0  0  0  0  0  0  0  0  0  0  0
   -8.5560    1.9770    0.7480 C   0  0  0  0  0  0  0  0  0  0  0  0
   -8.3690    2.0930   -0.7220 C   0  0  0  0  0  0  0  0  0  0  0  0
   -9.2580    3.1180    1.3960 C   0  0  0  0  0  0  0  0  0  0  0  0
   -5.0090   -2.4220    1.1670 C   0  0  0  0  0  0  0  0  0  0  0  0
   -2.0830   -0.2440   -2.9540 C   0  0  0  0  0  0  0  0  0  0  0  0
    1.8020   -1.5780   -1.1660 C   0  0  0  0  0  0  0  0  0  0  0  0
    6.5340   -1.6690    2.1710 C   0  0  0  0  0  0  0  0  0  0  0  0
    9.4840    2.3130   -0.0690 C   0  0  0  0  0  0  0  0  0  0  0  0
    6.2510    3.5420   -0.4950 H   0  0  0  0  0  0  0  0  0  0  0  0
    7.7300    4.1800   -1.2150 H   0  0  0  0  0  0  0  0  0  0  0  0
    7.5110    4.2160    0.5400 H   0  0  0  0  0  0  0  0  0  0  0  0
    6.2320    1.1430   -0.4370 H   0  0  0  0  0  0  0  0  0  0  0  0
    8.7400   -0.3090   -0.9960 H   0  0  0  0  0  0  0  0  0  0  0  0
    8.5440   -0.2650    0.7520 H   0  0  0  0  0  0  0  0  0  0  0  0
    6.4430   -1.3030   -1.2830 H   0  0  0  0  0  0  0  0  0  0  0  0
    7.4830   -2.3180   -0.3080 H   0  0  0  0  0  0  0  0  0  0  0  0
    4.3630   -0.6520   -0.3520 H   0  0  0  0  0  0  0  0  0  0  0  0
    3.5260    0.2780    1.9350 H   0  0  0  0  0  0  0  0  0  0  0  0
    4.0380   -1.2160    2.6960 H   0  0  0  0  0  0  0  0  0  0  0  0
    1.6750   -1.4780    2.1590 H   0  0  0  0  0  0  0  0  0  0  0  0
    2.5820   -2.5720    1.1370 H   0  0  0  0  0  0  0  0  0  0  0  0
    1.2220    0.8960    1.2080 H   0  0  0  0  0  0  0  0  0  0  0  0
    1.0640    2.1680   -0.9200 H   0  0  0  0  0  0  0  0  0  0  0  0
    0.8250    0.7240   -1.8760 H   0  0  0  0  0  0  0  0  0  0  0  0
   -1.1150    1.8350    0.2700 H   0  0  0  0  0  0  0  0  0  0  0  0
   -1.3680    1.8610   -1.4590 H   0  0  0  0  0  0  0  0  0  0  0  0
   -1.4560   -0.5400    0.4570 H   0  0  0  0  0  0  0  0  0  0  0  0
   -2.4460   -2.5130   -0.3330 H   0  0  0  0  0  0  0  0  0  0  0  0
   -2.0720   -2.8780   -2.0060 H   0  0  0  0  0  0  0  0  0  0  0  0
   -4.2750   -2.0160   -2.7780 H   0  0  0  0  0  0  0  0  0  0  0  0
   -4.5340   -3.1580   -1.4840 H   0  0  0  0  0  0  0  0  0  0  0  0
   -4.9680   -0.1540   -1.4750 H   0  0  0  0  0  0  0  0  0  0  0  0
   -5.6060    0.9120    0.6020 H   0  0  0  0  0  0  0  0  0  0  0  0
   -5.6410   -0.0070    2.0910 H   0  0  0  0  0  0  0  0  0  0  0  0
   -7.7680   -1.1840    1.3640 H   0  0  0  0  0  0  0  0  0  0  0  0
   -7.6990   -0.4130   -0.2030 H   0  0  0  0  0  0  0  0  0  0  0  0
   -8.2830    0.8770    2.5380 H   0  0  0  0  0  0  0  0  0  0  0  0
   -8.6280    3.0890   -1.1130 H   0  0  0  0  0  0  0  0  0  0  0  0
   -7.3270    1.9070   -1.0250 H   0  0  0  0  0  0  0  0  0  0  0  0
   -8.9990    1.3730   -1.2670 H   0  0  0  0  0  0  0  0  0  0  0  0
   -9.4210    2.9850    2.4750 H   0  0  0  0  0  0  0  0  0  0  0  0
  -10.2490    3.2850    0.9470 H   0  0  0  0  0  0  0  0  0  0  0  0
   -8.6910    4.0550    1.2780 H   0  0  0  0  0  0  0  0  0  0  0  0
   -5.7280   -2.5050    1.9960 H   0  0  0  0  0  0  0  0  0  0  0  0
   -5.1010   -3.3560    0.5940 H   0  0  0  0  0  0  0  0  0  0  0  0
   -4.0070   -2.4220    1.6220 H   0  0  0  0  0  0  0  0  0  0  0  0
   -2.2890   -1.0160   -3.7110 H   0  0  0  0  0  0  0  0  0  0  0  0
   -1.1390    0.2300   -3.2630 H   0  0  0  0  0  0  0  0  0  0  0  0
   -2.8750    0.5150   -3.0530 H   0  0  0  0  0  0  0  0  0  0  0  0
    0.7830   -1.7130   -1.5650 H   0  0  0  0  0  0  0  0  0  0  0  0
    2.2360   -2.5850   -1.0850 H   0  0  0  0  0  0  0  0  0  0  0  0
    2.3890   -1.0580   -1.9400 H   0  0  0  0  0  0  0  0  0  0  0  0
    5.9860   -2.5180    2.6090 H   0  0  0  0  0  0  0  0  0  0  0  0
    6.4770   -0.8370    2.8900 H   0  0  0  0  0  0  0  0  0  0  0  0
    7.5900   -1.9790    2.1440 H   0  0  0  0  0  0  0  0  0  0  0  0
   10.0070    1.7840   -0.8800 H   0  0  0  0  0  0  0  0  0  0  0  0
    9.8970    3.3320   -0.0480 H   0  0  0  0  0  0  0  0  0  0  0  0
    9.7910    1.8350    0.8750 H   0  0  0  0  0  0  0  0  0  0  0  0
  1 32  1  0
  1 31  1  0
  1  2  1  0
  1 33  1  0
  2  3  2  0
  2 30  1  0
  3 34  1  0
  3  4  1  0
  4 35  1  0
  4  5  1  0
  4 36  1  0
  5 37  1  0
  5 38  1  0
  5  6  1  0
  6  7  2  0
  6 29  1  0
  7 39  1  0
  7  8  1  0
  8  9  1  0
  8 40  1  0
  8 41  1  0
  9 10  1  0
  9 43  1  0
  9 42  1  0
 10 28  1  0
 10 11  2  0
 11 12  1  0
 11 44  1  0
 12 46  1  0
 12 45  1  0
 12 13  1  0
 13 48  1  0
 13 14  1  0
 13 47  1  0
 14 15  2  0
 14 49  1  0
 15 27  1  0
 15 16  1  0
 16 51  1  0
 16 17  1  0
 16 50  1  0
 17 52  1  0
 17 53  1  0
 17 18  1  0
 18 54  1  0
 18 19  2  0
 19 20  1  0
 19 26  1  0
 20 55  1  0
 20 21  1  0
 20 56  1  0
 21 58  1  0
 21 57  1  0
 21 22  1  0
 22 23  2  0
 22 59  1  0
 23 24  1  0
 23 25  1  0
 24 62  1  0
 24 60  1  0
 24 61  1  0
 25 64  1  0
 25 65  1  0
 25 63  1  0
 26 67  1  0
 26 68  1  0
 26 66  1  0
 27 69  1  0
 27 70  1  0
 27 71  1  0
 28 74  1  0
 28 72  1  0
 28 73  1  0
 29 77  1  0
 29 75  1  0
 29 76  1  0
 30 78  1  0
 30 79  1  0
 30 80  1  0
M  END
>  <id>  (984) 
1105

>  <scaffolds>  (984) 
[]

>  <name>  (984) 
Squalene

>  <formula>  (984) 
C30H50

>  <SMILES>  (984) 
CC(=CCC/C(=C/CC/C(=C/CC/C=C(/CC/C=C(/CCC=C(C)C)\C)\C)/C)/C)C

>  <ChEMBL_id>  (984) 
CHEMBL458402

>  <ZINC_id>  (984) 
ZINC6845904

>  <PubChem_id>  (984) 
638072

>  <DrugBank_id>  (984) 


>  <CAS_no>  (984) 
111-02-4

>  <references>  (984) 
[{'journal': {'name': 'BMC Complementary and Alternative Medicine', 'id': 74}, 'title': 'Antibacterial and anti-inflammatory effects of Syzygium jambos L. (Alston) and isolated compounds on acne vulgaris', 'year': 2013, 'start_page': None, 'volume': None, 'issue': None, 'doi': '10.1186/1472-6882-13-292', 'isbn': '', 'despositor': {'code': 'TMM', 'first_name': 'Thommas', 'last_name': 'Musyoka', 'id': 22}, 'refauthors_set': [{'author': {'first_name': '', 'initials': 'R', 'last_name': 'Sharma', 'id': 1082}, 'first_author': True, 'id': 1666}], 'id': 573}]

>  <classifications>  (984) 
[{'classification': 'Phenolic', 'id': 806}, {'classification': 'Phenol lipids (Classyfire)', 'id': 951}]

>  <molecular_mass>  (984) 
410.7

$$$$
SANC01106_minRM1.pdb
     RDKit          3D

 79 83  0  0  1  0  0  0  0  0999 V2000
   -3.8430   -3.7610    0.8130 C   0  0  0  0  0  0  0  0  0  0  0  0
   -4.0490   -2.6570   -0.1670 C   0  0  0  0  0  0  0  0  0  0  0  0
   -4.2950   -2.9390   -1.4440 C   0  0  0  0  0  0  0  0  0  0  0  0
   -4.0310   -1.2500    0.3490 C   0  0  2  0  0  0  0  0  0  0  0  0
   -5.4070   -0.5780    0.1110 C   0  0  0  0  0  0  0  0  0  0  0  0
   -5.1500    0.7040   -0.6930 C   0  0  0  0  0  0  0  0  0  0  0  0
   -3.6950    1.0390   -0.3500 C   0  0  1  0  0  0  0  0  0  0  0  0
   -3.0300   -0.3480   -0.3910 C   0  0  1  0  0  0  0  0  0  0  0  0
   -1.5980   -0.2640    0.1240 C   0  0  1  0  0  0  0  0  0  0  0  0
   -0.9400   -1.6370    0.1590 C   0  0  0  0  0  0  0  0  0  0  0  0
    0.4870   -1.5320    0.6870 C   0  0  0  0  0  0  0  0  0  0  0  0
    1.3150   -0.5450   -0.1350 C   0  0  2  0  0  0  0  0  0  0  0  0
    2.8050   -0.5580    0.3010 C   0  0  1  0  0  0  0  0  0  0  0  0
    3.3700   -1.9640   -0.0280 C   0  0  0  0  0  0  0  0  0  0  0  0
    4.8600   -1.9790   -0.3520 C   0  0  0  0  0  0  0  0  0  0  0  0
    5.5630   -0.8110    0.2790 C   0  0  0  0  0  0  0  0  0  0  0  0
    6.4870   -0.9660    1.0540 O   0  0  0  0  0  0  0  0  0  0  0  0
    5.0850    0.5580   -0.1710 C   0  0  1  0  0  0  0  0  0  0  0  0
    3.5830    0.4820   -0.5300 C   0  0  2  0  0  0  0  0  0  0  0  0
    2.9200    1.8540   -0.4730 C   0  0  0  0  0  0  0  0  0  0  0  0
    1.4990    1.7780   -1.0170 C   0  0  0  0  0  0  0  0  0  0  0  0
    0.6400    0.8420   -0.1590 C   0  0  1  0  0  0  0  0  0  0  0  0
   -0.7870    0.6930   -0.7810 C   0  0  2  0  0  0  0  0  0  0  0  0
   -1.4930    2.0610   -0.8410 C   0  0  0  0  0  0  0  0  0  0  0  0
   -2.9460    1.9570   -1.3030 C   0  0  0  0  0  0  0  0  0  0  0  0
   -0.7090    0.1530   -2.2130 C   0  0  0  0  0  0  0  0  0  0  0  0
    0.5040    1.4610    1.2320 C   0  0  0  0  0  0  0  0  0  0  0  0
    5.4410    1.6080    0.8800 C   0  0  0  0  0  0  0  0  0  0  0  0
    5.9020    0.8850   -1.4300 C   0  0  0  0  0  0  0  0  0  0  0  0
    2.9660   -0.3450    1.8010 C   0  0  0  0  0  0  0  0  0  0  0  0
   -3.7480    1.6580    1.0350 C   0  0  0  0  0  0  0  0  0  0  0  0
   -3.5940    1.0980    2.1040 O   0  0  0  0  0  0  0  0  0  0  0  0
   -4.0740    2.9730    1.1450 O   0  0  0  0  0  0  0  0  0  0  0  0
   -3.0980   -4.4900    0.4610 H   0  0  0  0  0  0  0  0  0  0  0  0
   -4.7790   -4.3170    0.9800 H   0  0  0  0  0  0  0  0  0  0  0  0
   -3.5040   -3.4260    1.8050 H   0  0  0  0  0  0  0  0  0  0  0  0
   -4.4980   -2.1960   -2.2080 H   0  0  0  0  0  0  0  0  0  0  0  0
   -4.3240   -3.9510   -1.8350 H   0  0  0  0  0  0  0  0  0  0  0  0
   -3.7960   -1.2530    1.4430 H   0  0  0  0  0  0  0  0  0  0  0  0
   -5.8980   -0.3470    1.0770 H   0  0  0  0  0  0  0  0  0  0  0  0
   -6.1260   -1.2410   -0.4080 H   0  0  0  0  0  0  0  0  0  0  0  0
   -5.2750    0.5390   -1.7820 H   0  0  0  0  0  0  0  0  0  0  0  0
   -5.8640    1.5140   -0.4510 H   0  0  0  0  0  0  0  0  0  0  0  0
   -2.9820   -0.6790   -1.4670 H   0  0  0  0  0  0  0  0  0  0  0  0
   -1.5920    0.1320    1.1750 H   0  0  0  0  0  0  0  0  0  0  0  0
   -1.5240   -2.3240    0.8090 H   0  0  0  0  0  0  0  0  0  0  0  0
   -0.9610   -2.1310   -0.8340 H   0  0  0  0  0  0  0  0  0  0  0  0
    0.4910   -1.2590    1.7650 H   0  0  0  0  0  0  0  0  0  0  0  0
    0.9380   -2.5470    0.6750 H   0  0  0  0  0  0  0  0  0  0  0  0
    1.3050   -0.9130   -1.2030 H   0  0  0  0  0  0  0  0  0  0  0  0
    3.1760   -2.6600    0.8160 H   0  0  0  0  0  0  0  0  0  0  0  0
    2.8300   -2.4260   -0.8830 H   0  0  0  0  0  0  0  0  0  0  0  0
    5.0340   -1.9490   -1.4490 H   0  0  0  0  0  0  0  0  0  0  0  0
    5.3170   -2.9420   -0.0370 H   0  0  0  0  0  0  0  0  0  0  0  0
    3.5180    0.1320   -1.5980 H   0  0  0  0  0  0  0  0  0  0  0  0
    3.5020    2.5910   -1.0670 H   0  0  0  0  0  0  0  0  0  0  0  0
    2.9100    2.2750    0.5550 H   0  0  0  0  0  0  0  0  0  0  0  0
    1.5240    1.4610   -2.0800 H   0  0  0  0  0  0  0  0  0  0  0  0
    1.0610    2.7990   -1.0510 H   0  0  0  0  0  0  0  0  0  0  0  0
   -1.4480    2.5670    0.1510 H   0  0  0  0  0  0  0  0  0  0  0  0
   -0.9470    2.7560   -1.5140 H   0  0  0  0  0  0  0  0  0  0  0  0
   -3.0220    1.5980   -2.3490 H   0  0  0  0  0  0  0  0  0  0  0  0
   -3.4180    2.9660   -1.3440 H   0  0  0  0  0  0  0  0  0  0  0  0
   -0.5300    0.9370   -2.9630 H   0  0  0  0  0  0  0  0  0  0  0  0
   -1.6370   -0.3530   -2.5270 H   0  0  0  0  0  0  0  0  0  0  0  0
    0.0930   -0.5890   -2.3570 H   0  0  0  0  0  0  0  0  0  0  0  0
   -0.0770    0.8380    1.9290 H   0  0  0  0  0  0  0  0  0  0  0  0
    1.4740    1.6580    1.7150 H   0  0  0  0  0  0  0  0  0  0  0  0
   -0.0140    2.4350    1.2030 H   0  0  0  0  0  0  0  0  0  0  0  0
    4.8760    1.5060    1.8140 H   0  0  0  0  0  0  0  0  0  0  0  0
    6.5040    1.5540    1.1670 H   0  0  0  0  0  0  0  0  0  0  0  0
    5.2890    2.6370    0.5230 H   0  0  0  0  0  0  0  0  0  0  0  0
    6.9800    0.9420   -1.2170 H   0  0  0  0  0  0  0  0  0  0  0  0
    5.7850    0.1430   -2.2320 H   0  0  0  0  0  0  0  0  0  0  0  0
    5.6180    1.8550   -1.8640 H   0  0  0  0  0  0  0  0  0  0  0  0
    3.9620   -0.6260    2.1730 H   0  0  0  0  0  0  0  0  0  0  0  0
    2.2530   -0.9470    2.3880 H   0  0  0  0  0  0  0  0  0  0  0  0
    2.7960    0.6960    2.1160 H   0  0  0  0  0  0  0  0  0  0  0  0
   -4.1770    3.3720    0.2720 H   0  0  0  0  0  0  0  0  0  0  0  0
  1  2  1  0
  1 34  1  0
  1 35  1  0
  1 36  1  0
  2  3  2  0
  2  4  1  0
  3 37  1  0
  3 38  1  0
  4  8  1  0
  4  5  1  0
  4 39  1  1
  5  6  1  0
  5 41  1  0
  5 40  1  0
  6 42  1  0
  6 43  1  0
  6  7  1  0
  7 25  1  0
  7  8  1  0
  7 31  1  1
  8 44  1  6
  8  9  1  0
  9 23  1  0
  9 10  1  0
  9 45  1  1
 10 47  1  0
 10 11  1  0
 10 46  1  0
 11 12  1  0
 11 49  1  0
 11 48  1  0
 12 50  1  6
 12 22  1  0
 12 13  1  0
 13 19  1  0
 13 14  1  0
 13 30  1  1
 14 52  1  0
 14 15  1  0
 14 51  1  0
 15 53  1  0
 15 54  1  0
 15 16  1  0
 16 18  1  0
 16 17  2  0
 18 29  1  6
 18 19  1  0
 18 28  1  0
 19 55  1  6
 19 20  1  0
 20 56  1  0
 20 21  1  0
 20 57  1  0
 21 58  1  0
 21 59  1  0
 21 22  1  0
 22 23  1  0
 22 27  1  1
 23 26  1  6
 23 24  1  0
 24 61  1  0
 24 25  1  0
 24 60  1  0
 25 62  1  0
 25 63  1  0
 26 64  1  0
 26 65  1  0
 26 66  1  0
 27 69  1  0
 27 68  1  0
 27 67  1  0
 28 72  1  0
 28 71  1  0
 28 70  1  0
 29 74  1  0
 29 75  1  0
 29 73  1  0
 30 78  1  0
 30 76  1  0
 30 77  1  0
 31 33  1  0
 31 32  2  0
 33 79  1  0
M  END
>  <id>  (985) 
1106

>  <scaffolds>  (985) 
['C1CCC2C(C1)CCC1C2CCC2C3CCCC3CCC21', 'O=C1CCC2C(CCC3C2CCC2C4CCCC4CCC23)C1', 'C1CCC(C2CCCC2)CC1', 'C1CCCCC1', 'C1CCC2C(C1)CCC1C3CCCC3CCC21', 'C1CCC2CCCCC2C1']

>  <name>  (985) 
Betulonic acid

>  <formula>  (985) 
C30H46O3

>  <SMILES>  (985) 
CC(=C)[C@@H]1CC[C@]2([C@H]1[C@H]3CC[C@@H]4[C@]5(CCC(=O)C([C@@H]5CC[C@]4([C@@]3(CC2)C)C)(C)C)C)C(=O)O

>  <ChEMBL_id>  (985) 
SCHEMBL210119

>  <ZINC_id>  (985) 
ZINC8762246

>  <PubChem_id>  (985) 
122844

>  <DrugBank_id>  (985) 


>  <CAS_no>  (985) 
4481-62-3

>  <references>  (985) 
[{'journal': {'name': 'Journal of Enzyme Inhibition and Medicinal Chemistry', 'id': 75}, 'title': 'Alpha-glucosidase inhibitory and antiplasmodial properties of terpenoids from the leaves of Buddleja saligna Willd', 'year': 2016, 'start_page': None, 'volume': None, 'issue': None, 'doi': '10.3109/14756366.2014.1003927', 'isbn': '', 'despositor': {'code': 'TMM', 'first_name': 'Thommas', 'last_name': 'Musyoka', 'id': 22}, 'refauthors_set': [{'author': {'first_name': 'Jude', 'initials': 'J', 'last_name': 'Chukwujekwu', 'id': 487}, 'first_author': True, 'id': 1667}], 'id': 574}]

>  <classifications>  (985) 
[{'classification': 'Terpenoid', 'id': 839}, {'classification': 'Phenol lipids (Classyfire)', 'id': 951}]

>  <molecular_mass>  (985) 
454.7

$$$$
SANC01107_minRM1.pdb
     RDKit          3D

 78 81  0  0  1  0  0  0  0  0999 V2000
    7.1800    0.5600    1.4490 C   0  0  0  0  0  0  0  0  0  0  0  0
    7.1980    0.8930   -0.0320 C   0  0  0  0  0  0  0  0  0  0  0  0
    6.2150    0.1000   -0.9010 C   0  0  2  0  0  0  0  0  0  0  0  0
    4.8310    0.6670   -0.7970 C   0  0  0  0  0  0  0  0  0  0  0  0
    4.1540    0.7690    0.3420 C   0  0  0  0  0  0  0  0  0  0  0  0
    2.7730    1.3480    0.4430 C   0  0  1  0  0  0  0  0  0  0  0  0
    2.6280    2.5750   -0.4510 C   0  0  0  0  0  0  0  0  0  0  0  0
    1.7680    0.2570    0.0650 C   0  0  1  0  0  0  0  0  0  0  0  0
    1.9330   -1.0060    0.9390 C   0  0  0  0  0  0  0  0  0  0  0  0
    0.5270   -1.5990    1.1450 C   0  0  0  0  0  0  0  0  0  0  0  0
   -0.3560   -0.7970    0.1910 C   0  0  2  0  0  0  0  0  0  0  0  0
    0.2750    0.6070    0.2400 C   0  0  2  0  0  0  0  0  0  0  0  0
   -0.3460    1.4230   -0.8860 C   0  0  0  0  0  0  0  0  0  0  0  0
   -1.8550    1.5310   -0.6770 C   0  0  0  0  0  0  0  0  0  0  0  0
   -2.5440    0.1670   -0.5360 C   0  0  1  0  0  0  0  0  0  0  0  0
   -1.8270   -0.7540    0.4070 C   0  0  0  0  0  0  0  0  0  0  0  0
   -2.4550   -1.5950    1.2270 C   0  0  0  0  0  0  0  0  0  0  0  0
   -3.9350   -1.6930    1.3180 C   0  0  0  0  0  0  0  0  0  0  0  0
   -4.6130   -1.0740    0.0970 C   0  0  2  0  0  0  0  0  0  0  0  0
   -4.0400    0.3290   -0.1690 C   0  0  2  0  0  0  0  0  0  0  0  0
   -4.7790    0.9480   -1.3660 C   0  0  0  0  0  0  0  0  0  0  0  0
   -6.2850    0.9890   -1.1540 C   0  0  0  0  0  0  0  0  0  0  0  0
   -6.8100   -0.4320   -0.9180 C   0  0  1  0  0  0  0  0  0  0  0  0
   -6.1240   -1.0300    0.3150 C   0  0  0  0  0  0  0  0  0  0  0  0
   -8.1980   -0.4490   -0.7880 O   0  0  0  0  0  0  0  0  0  0  0  0
   -4.2200    1.2070    1.0650 C   0  0  0  0  0  0  0  0  0  0  0  0
    0.0230    1.2750    1.5870 C   0  0  0  0  0  0  0  0  0  0  0  0
    6.1950   -1.4060   -0.6020 C   0  0  1  0  0  0  0  0  0  0  0  0
    5.2050   -2.1040   -1.5340 C   0  0  0  0  0  0  0  0  0  0  0  0
    7.5760   -2.0210   -0.8130 C   0  0  0  0  0  0  0  0  0  0  0  0
    6.1680    0.5950    1.8830 H   0  0  0  0  0  0  0  0  0  0  0  0
    7.7890    1.2730    2.0260 H   0  0  0  0  0  0  0  0  0  0  0  0
    7.5840   -0.4360    1.6760 H   0  0  0  0  0  0  0  0  0  0  0  0
    8.2310    0.7610   -0.4230 H   0  0  0  0  0  0  0  0  0  0  0  0
    6.9960    1.9790   -0.1700 H   0  0  0  0  0  0  0  0  0  0  0  0
    6.5540    0.2300   -1.9660 H   0  0  0  0  0  0  0  0  0  0  0  0
    4.3990    0.9960   -1.7490 H   0  0  0  0  0  0  0  0  0  0  0  0
    4.5840    0.4210    1.2910 H   0  0  0  0  0  0  0  0  0  0  0  0
    2.6160    1.6770    1.5030 H   0  0  0  0  0  0  0  0  0  0  0  0
    2.6800    2.3410   -1.5240 H   0  0  0  0  0  0  0  0  0  0  0  0
    1.6610    3.0820   -0.3000 H   0  0  0  0  0  0  0  0  0  0  0  0
    3.4150    3.3160   -0.2500 H   0  0  0  0  0  0  0  0  0  0  0  0
    1.9550   -0.0130   -1.0070 H   0  0  0  0  0  0  0  0  0  0  0  0
    2.4140   -0.7830    1.9110 H   0  0  0  0  0  0  0  0  0  0  0  0
    2.6180   -1.7340    0.4610 H   0  0  0  0  0  0  0  0  0  0  0  0
    0.2020   -1.5050    2.2000 H   0  0  0  0  0  0  0  0  0  0  0  0
    0.4920   -2.6860    0.9390 H   0  0  0  0  0  0  0  0  0  0  0  0
   -0.2260   -1.2370   -0.8370 H   0  0  0  0  0  0  0  0  0  0  0  0
    0.1070    2.4390   -0.9360 H   0  0  0  0  0  0  0  0  0  0  0  0
   -0.1200    0.9750   -1.8770 H   0  0  0  0  0  0  0  0  0  0  0  0
   -2.0540    2.1910    0.1910 H   0  0  0  0  0  0  0  0  0  0  0  0
   -2.2980    2.0840   -1.5350 H   0  0  0  0  0  0  0  0  0  0  0  0
   -2.4810   -0.3410   -1.5390 H   0  0  0  0  0  0  0  0  0  0  0  0
   -1.9110   -2.2850    1.8790 H   0  0  0  0  0  0  0  0  0  0  0  0
   -4.2810   -1.2310    2.2690 H   0  0  0  0  0  0  0  0  0  0  0  0
   -4.2350   -2.7600    1.4160 H   0  0  0  0  0  0  0  0  0  0  0  0
   -4.4020   -1.7230   -0.7930 H   0  0  0  0  0  0  0  0  0  0  0  0
   -4.4080    1.9740   -1.5720 H   0  0  0  0  0  0  0  0  0  0  0  0
   -4.5540    0.3840   -2.2980 H   0  0  0  0  0  0  0  0  0  0  0  0
   -6.7890    1.4410   -2.0350 H   0  0  0  0  0  0  0  0  0  0  0  0
   -6.5560    1.6640   -0.3150 H   0  0  0  0  0  0  0  0  0  0  0  0
   -6.6420   -1.0750   -1.8220 H   0  0  0  0  0  0  0  0  0  0  0  0
   -6.5190   -2.0470    0.5180 H   0  0  0  0  0  0  0  0  0  0  0  0
   -6.3770   -0.4440    1.2260 H   0  0  0  0  0  0  0  0  0  0  0  0
   -8.4430    0.0850   -0.0260 H   0  0  0  0  0  0  0  0  0  0  0  0
   -3.4510    1.0200    1.8300 H   0  0  0  0  0  0  0  0  0  0  0  0
   -4.1830    2.2830    0.8380 H   0  0  0  0  0  0  0  0  0  0  0  0
   -5.1880    1.0450    1.5650 H   0  0  0  0  0  0  0  0  0  0  0  0
    0.6430    0.8700    2.4000 H   0  0  0  0  0  0  0  0  0  0  0  0
   -1.0130    1.1530    1.9340 H   0  0  0  0  0  0  0  0  0  0  0  0
    0.2180    2.3570    1.5600 H   0  0  0  0  0  0  0  0  0  0  0  0
    5.8680   -1.5780    0.4540 H   0  0  0  0  0  0  0  0  0  0  0  0
    4.1800   -1.7220   -1.4210 H   0  0  0  0  0  0  0  0  0  0  0  0
    5.1560   -3.1860   -1.3440 H   0  0  0  0  0  0  0  0  0  0  0  0
    5.4700   -1.9830   -2.5950 H   0  0  0  0  0  0  0  0  0  0  0  0
    7.9560   -1.8570   -1.8320 H   0  0  0  0  0  0  0  0  0  0  0  0
    7.5660   -3.1090   -0.6540 H   0  0  0  0  0  0  0  0  0  0  0  0
    8.3360   -1.6220   -0.1280 H   0  0  0  0  0  0  0  0  0  0  0  0
  1  2  1  0
  1 33  1  0
  1 31  1  0
  1 32  1  0
  2  3  1  0
  2 34  1  0
  2 35  1  0
  3 36  1  6
  3  4  1  0
  3 28  1  0
  4 37  1  0
  4  5  2  0
  5  6  1  0
  5 38  1  0
  6  7  1  0
  6  8  1  0
  6 39  1  1
  7 40  1  0
  7 41  1  0
  7 42  1  0
  8 43  1  6
  8 12  1  0
  8  9  1  0
  9 45  1  0
  9 10  1  0
  9 44  1  0
 10 11  1  0
 10 47  1  0
 10 46  1  0
 11 48  1  6
 11 12  1  0
 11 16  1  0
 12 13  1  0
 12 27  1  1
 13 50  1  0
 13 49  1  0
 13 14  1  0
 14 52  1  0
 14 15  1  0
 14 51  1  0
 15 53  1  6
 15 20  1  0
 15 16  1  0
 16 17  2  0
 17 18  1  0
 17 54  1  0
 18 19  1  0
 18 56  1  0
 18 55  1  0
 19 57  1  6
 19 20  1  0
 19 24  1  0
 20 21  1  0
 20 26  1  1
 21 59  1  0
 21 58  1  0
 21 22  1  0
 22 60  1  0
 22 23  1  0
 22 61  1  0
 23 62  1  6
 23 25  1  0
 23 24  1  0
 24 63  1  0
 24 64  1  0
 25 65  1  0
 26 67  1  0
 26 68  1  0
 26 66  1  0
 27 71  1  0
 27 70  1  0
 27 69  1  0
 28 29  1  0
 28 30  1  0
 28 72  1  1
 29 75  1  0
 29 73  1  0
 29 74  1  0
 30 76  1  0
 30 77  1  0
 30 78  1  0
M  END
>  <id>  (986) 
1107

>  <scaffolds>  (986) 
['C1=CCCCC1', 'C1=CCC2CCCCC2C1', 'C1CCCCC1', 'C1=C2CCCCC2CCC1', 'C1=C2C3CCCC3CCC2C2CCCCC2C1']

>  <name>  (986) 
Spinasterol

>  <formula>  (986) 
C29H48O

>  <SMILES>  (986) 
CC[C@H](/C=C/[C@@H](C)[C@H]1CC[C@@H]2[C@@]1(CC[C@H]3C2=CC[C@@H]4[C@@]3(CC[C@@H](C4)O)C)C)C(C)C

>  <ChEMBL_id>  (986) 
SCHEMBL232490

>  <ZINC_id>  (986) 
ZINC4097824

>  <PubChem_id>  (986) 
5281331

>  <DrugBank_id>  (986) 


>  <CAS_no>  (986) 
481-18-5

>  <references>  (986) 
[{'journal': {'name': 'Journal of Enzyme Inhibition and Medicinal Chemistry', 'id': 75}, 'title': 'Alpha-glucosidase inhibitory and antiplasmodial properties of terpenoids from the leaves of Buddleja saligna Willd', 'year': 2016, 'start_page': None, 'volume': None, 'issue': None, 'doi': '10.3109/14756366.2014.1003927', 'isbn': '', 'despositor': {'code': 'TMM', 'first_name': 'Thommas', 'last_name': 'Musyoka', 'id': 22}, 'refauthors_set': [{'author': {'first_name': 'Jude', 'initials': 'J', 'last_name': 'Chukwujekwu', 'id': 487}, 'first_author': True, 'id': 1667}], 'id': 574}]

>  <classifications>  (986) 
[{'classification': 'Terpenoid', 'id': 839}, {'classification': 'Steroids and steroid derivatives (Classyfire)', 'id': 942}]

>  <molecular_mass>  (986) 
412.7

$$$$
SANC01108_minRM1.pdb
     RDKit          3D

 80 84  0  0  1  0  0  0  0  0999 V2000
   -4.1160   -2.6520   -1.7010 C   0  0  0  0  0  0  0  0  0  0  0  0
   -4.1500   -2.4270   -0.2290 C   0  0  0  0  0  0  0  0  0  0  0  0
   -4.1460   -3.4640    0.6070 C   0  0  0  0  0  0  0  0  0  0  0  0
   -4.2100   -1.0200    0.2820 C   0  0  2  0  0  0  0  0  0  0  0  0
   -5.5640   -0.3640   -0.0840 C   0  0  0  0  0  0  0  0  0  0  0  0
   -5.2570    1.0630   -0.5690 C   0  0  0  0  0  0  0  0  0  0  0  0
   -3.8070    1.3170   -0.1400 C   0  0  1  0  0  0  0  0  0  0  0  0
   -3.1730   -0.0740   -0.3290 C   0  0  1  0  0  0  0  0  0  0  0  0
   -1.7530   -0.0690    0.2210 C   0  0  1  0  0  0  0  0  0  0  0  0
   -1.1390   -1.4630    0.2380 C   0  0  0  0  0  0  0  0  0  0  0  0
    0.2750   -1.4080    0.8090 C   0  0  0  0  0  0  0  0  0  0  0  0
    1.1330   -0.4430   -0.0050 C   0  0  2  0  0  0  0  0  0  0  0  0
    2.6350   -0.5740    0.3570 C   0  0  1  0  0  0  0  0  0  0  0  0
    3.1020   -1.9710   -0.0920 C   0  0  0  0  0  0  0  0  0  0  0  0
    4.5630   -2.1990    0.2410 C   0  0  0  0  0  0  0  0  0  0  0  0
    5.4660   -1.0730   -0.1840 C   0  0  0  0  0  0  0  0  0  0  0  0
    6.6520   -1.3080   -0.3480 O   0  0  0  0  0  0  0  0  0  0  0  0
    4.9540    0.3500   -0.3630 C   0  0  1  0  0  0  0  0  0  0  0  0
    3.4230    0.4340   -0.4950 C   0  0  2  0  0  0  0  0  0  0  0  0
    2.8920    1.8420   -0.2460 C   0  0  0  0  0  0  0  0  0  0  0  0
    1.4450    1.9370   -0.7250 C   0  0  0  0  0  0  0  0  0  0  0  0
    0.5280    0.9760    0.0420 C   0  0  1  0  0  0  0  0  0  0  0  0
   -0.8930    0.9120   -0.6160 C   0  0  2  0  0  0  0  0  0  0  0  0
   -1.5510    2.3070   -0.6290 C   0  0  0  0  0  0  0  0  0  0  0  0
   -3.0270    2.2850   -1.0270 C   0  0  0  0  0  0  0  0  0  0  0  0
   -0.8090    0.4460   -2.0740 C   0  0  0  0  0  0  0  0  0  0  0  0
    0.3730    1.5220    1.4630 C   0  0  0  0  0  0  0  0  0  0  0  0
    5.5250    1.1640    0.8000 C   0  0  0  0  0  0  0  0  0  0  0  0
    5.5800    0.8890   -1.6610 C   0  0  0  0  0  0  0  0  0  0  0  0
    2.8810   -0.4500    1.8530 C   0  0  0  0  0  0  0  0  0  0  0  0
   -3.7590    1.8550    1.3080 C   0  0  0  0  0  0  0  0  0  0  0  0
   -4.7670    1.2490    2.0660 O   0  0  0  0  0  0  0  0  0  0  0  0
   -4.5940   -3.6000   -1.9940 H   0  0  0  0  0  0  0  0  0  0  0  0
   -4.6240   -1.8680   -2.2810 H   0  0  0  0  0  0  0  0  0  0  0  0
   -3.0800   -2.7000   -2.0710 H   0  0  0  0  0  0  0  0  0  0  0  0
   -4.1650   -3.3750    1.6880 H   0  0  0  0  0  0  0  0  0  0  0  0
   -4.1250   -4.4990    0.2820 H   0  0  0  0  0  0  0  0  0  0  0  0
   -4.0810   -1.0290    1.3940 H   0  0  0  0  0  0  0  0  0  0  0  0
   -6.1240   -0.9340   -0.8500 H   0  0  0  0  0  0  0  0  0  0  0  0
   -6.2460   -0.3620    0.7890 H   0  0  0  0  0  0  0  0  0  0  0  0
   -5.3720    1.1460   -1.6690 H   0  0  0  0  0  0  0  0  0  0  0  0
   -5.9630    1.8110   -0.1630 H   0  0  0  0  0  0  0  0  0  0  0  0
   -3.1140   -0.2920   -1.4320 H   0  0  0  0  0  0  0  0  0  0  0  0
   -1.7840    0.2950    1.2870 H   0  0  0  0  0  0  0  0  0  0  0  0
   -1.1440   -1.9250   -0.7710 H   0  0  0  0  0  0  0  0  0  0  0  0
   -1.7630   -2.1500    0.8500 H   0  0  0  0  0  0  0  0  0  0  0  0
    0.2460   -1.1360    1.8840 H   0  0  0  0  0  0  0  0  0  0  0  0
    0.7260   -2.4280    0.8040 H   0  0  0  0  0  0  0  0  0  0  0  0
    1.0650   -0.7750   -1.0820 H   0  0  0  0  0  0  0  0  0  0  0  0
    2.9410   -2.1220   -1.1810 H   0  0  0  0  0  0  0  0  0  0  0  0
    2.4760   -2.7640    0.3790 H   0  0  0  0  0  0  0  0  0  0  0  0
    4.9110   -3.1530   -0.2180 H   0  0  0  0  0  0  0  0  0  0  0  0
    4.7130   -2.3710    1.3300 H   0  0  0  0  0  0  0  0  0  0  0  0
    3.1990    0.1840   -1.5710 H   0  0  0  0  0  0  0  0  0  0  0  0
    3.5010    2.5990   -0.7860 H   0  0  0  0  0  0  0  0  0  0  0  0
    2.9810    2.1370    0.8190 H   0  0  0  0  0  0  0  0  0  0  0  0
    1.0970    2.9870   -0.6170 H   0  0  0  0  0  0  0  0  0  0  0  0
    1.4060    1.7530   -1.8180 H   0  0  0  0  0  0  0  0  0  0  0  0
   -1.0100    2.9850   -1.3250 H   0  0  0  0  0  0  0  0  0  0  0  0
   -1.4290    2.8130    0.3550 H   0  0  0  0  0  0  0  0  0  0  0  0
   -3.1370    2.0180   -2.1000 H   0  0  0  0  0  0  0  0  0  0  0  0
   -3.4550    3.3090   -0.9760 H   0  0  0  0  0  0  0  0  0  0  0  0
   -0.5540    1.2530   -2.7760 H   0  0  0  0  0  0  0  0  0  0  0  0
   -0.0600   -0.3440   -2.2440 H   0  0  0  0  0  0  0  0  0  0  0  0
   -1.7630    0.0290   -2.4390 H   0  0  0  0  0  0  0  0  0  0  0  0
   -0.2690    0.8940    2.1010 H   0  0  0  0  0  0  0  0  0  0  0  0
    1.3290    1.6300    1.9960 H   0  0  0  0  0  0  0  0  0  0  0  0
   -0.0900    2.5240    1.4740 H   0  0  0  0  0  0  0  0  0  0  0  0
    6.6080    1.0010    0.9250 H   0  0  0  0  0  0  0  0  0  0  0  0
    5.4050    2.2470    0.6590 H   0  0  0  0  0  0  0  0  0  0  0  0
    5.0580    0.9100    1.7640 H   0  0  0  0  0  0  0  0  0  0  0  0
    5.3580    0.2510   -2.5290 H   0  0  0  0  0  0  0  0  0  0  0  0
    5.2270    1.8990   -1.9080 H   0  0  0  0  0  0  0  0  0  0  0  0
    6.6770    0.9520   -1.5990 H   0  0  0  0  0  0  0  0  0  0  0  0
    2.3680    0.4040    2.3180 H   0  0  0  0  0  0  0  0  0  0  0  0
    3.9440   -0.3150    2.1090 H   0  0  0  0  0  0  0  0  0  0  0  0
    2.5500   -1.3410    2.4080 H   0  0  0  0  0  0  0  0  0  0  0  0
   -2.7600    1.6620    1.7740 H   0  0  0  0  0  0  0  0  0  0  0  0
   -3.8850    2.9650    1.3070 H   0  0  0  0  0  0  0  0  0  0  0  0
   -4.7290    1.6420    2.9420 H   0  0  0  0  0  0  0  0  0  0  0  0
  1 34  1  0
  1 35  1  0
  1 33  1  0
  1  2  1  0
  2  4  1  0
  2  3  2  0
  3 37  1  0
  3 36  1  0
  4  8  1  0
  4  5  1  0
  4 38  1  1
  5 39  1  0
  5  6  1  0
  5 40  1  0
  6 41  1  0
  6 42  1  0
  6  7  1  0
  7 25  1  0
  7  8  1  0
  7 31  1  1
  8 43  1  6
  8  9  1  0
  9 23  1  0
  9 10  1  0
  9 44  1  1
 10 45  1  0
 10 11  1  0
 10 46  1  0
 11 12  1  0
 11 48  1  0
 11 47  1  0
 12 49  1  6
 12 22  1  0
 12 13  1  0
 13 19  1  0
 13 14  1  0
 13 30  1  1
 14 50  1  0
 14 15  1  0
 14 51  1  0
 15 52  1  0
 15 16  1  0
 15 53  1  0
 16 18  1  0
 16 17  2  0
 18 29  1  6
 18 19  1  0
 18 28  1  0
 19 54  1  6
 19 20  1  0
 20 55  1  0
 20 21  1  0
 20 56  1  0
 21 58  1  0
 21 57  1  0
 21 22  1  0
 22 23  1  0
 22 27  1  1
 23 26  1  6
 23 24  1  0
 24 59  1  0
 24 25  1  0
 24 60  1  0
 25 61  1  0
 25 62  1  0
 26 63  1  0
 26 65  1  0
 26 64  1  0
 27 68  1  0
 27 67  1  0
 27 66  1  0
 28 70  1  0
 28 69  1  0
 28 71  1  0
 29 72  1  0
 29 73  1  0
 29 74  1  0
 30 76  1  0
 30 75  1  0
 30 77  1  0
 31 79  1  0
 31 78  1  0
 31 32  1  0
 32 80  1  0
M  END
>  <id>  (987) 
1108

>  <scaffolds>  (987) 
['C1CCC2C(C1)CCC1C2CCC2C3CCCC3CCC21', 'O=C1CCC2C(CCC3C2CCC2C4CCCC4CCC23)C1', 'C1CCC(C2CCCC2)CC1', 'C1CCCCC1', 'C1CCC2C(C1)CCC1C3CCCC3CCC21', 'C1CCC2CCCCC2C1']

>  <name>  (987) 
Betulone

>  <formula>  (987) 
C30H48O2

>  <SMILES>  (987) 
CC(=C)[C@@H]1CC[C@]2([C@H]1[C@H]3CC[C@@H]4[C@]5(CCC(=O)C([C@@H]5CC[C@]4([C@@]3(CC2)C)C)(C)C)C)CO

>  <ChEMBL_id>  (987) 
SCHEMBL13910773

>  <ZINC_id>  (987) 


>  <PubChem_id>  (987) 
10411004

>  <DrugBank_id>  (987) 


>  <CAS_no>  (987) 
7020-34-0

>  <references>  (987) 
[{'journal': {'name': 'Journal of Enzyme Inhibition and Medicinal Chemistry', 'id': 75}, 'title': 'Alpha-glucosidase inhibitory and antiplasmodial properties of terpenoids from the leaves of Buddleja saligna Willd', 'year': 2016, 'start_page': None, 'volume': None, 'issue': None, 'doi': '10.3109/14756366.2014.1003927', 'isbn': '', 'despositor': {'code': 'TMM', 'first_name': 'Thommas', 'last_name': 'Musyoka', 'id': 22}, 'refauthors_set': [{'author': {'first_name': 'Jude', 'initials': 'J', 'last_name': 'Chukwujekwu', 'id': 487}, 'first_author': True, 'id': 1667}], 'id': 574}]

>  <classifications>  (987) 
[{'classification': 'Terpenoid', 'id': 839}, {'classification': 'Phenol lipids (Classyfire)', 'id': 951}]

>  <molecular_mass>  (987) 
440.7

$$$$
SANC01109_minRM1.pdb
     RDKit          3D

 51 54  0  0  1  0  0  0  0  0999 V2000
    5.0730    0.8030   -0.9050 C   0  0  0  0  0  0  0  0  0  0  0  0
    4.4840    0.1960    0.3650 C   0  0  1  0  0  0  0  0  0  0  0  0
    4.7160    1.1180    1.5590 C   0  0  0  0  0  0  0  0  0  0  0  0
    3.0190   -0.0410    0.1580 C   0  0  0  0  0  0  0  0  0  0  0  0
    2.4990   -1.3190   -0.0120 C   0  0  0  0  0  0  0  0  0  0  0  0
    1.1150   -1.5350   -0.1680 C   0  0  0  0  0  0  0  0  0  0  0  0
    0.2290   -0.4560   -0.1880 C   0  0  0  0  0  0  0  0  0  0  0  0
    0.7720    0.8320   -0.0740 C   0  0  0  0  0  0  0  0  0  0  0  0
    2.1350    1.0330    0.1000 C   0  0  0  0  0  0  0  0  0  0  0  0
   -0.0790    2.0800   -0.1400 C   0  0  1  0  0  0  0  0  0  0  0  0
   -1.5860    1.7470   -0.3050 C   0  0  2  0  0  0  0  0  0  0  0  0
   -1.8970    0.5060    0.5520 C   0  0  2  0  0  0  0  0  0  0  0  0
   -1.2580   -0.5680   -0.3610 C   0  0  2  0  0  0  0  0  0  0  0  0
   -1.9290   -1.9200   -0.1970 C   0  0  0  0  0  0  0  0  0  0  0  0
   -2.3800   -2.0910    1.2460 C   0  0  0  0  0  0  0  0  0  0  0  0
   -3.4830   -1.0940    1.6030 C   0  0  0  0  0  0  0  0  0  0  0  0
   -3.3750    0.2460    0.8450 C   0  0  1  0  0  0  0  0  0  0  0  0
   -3.9210    1.3660    1.7360 C   0  0  0  0  0  0  0  0  0  0  0  0
   -4.2230    0.2000   -0.4240 C   0  0  0  0  0  0  0  0  0  0  0  0
   -1.5160    0.0120   -1.7470 C   0  0  0  0  0  0  0  0  0  0  0  0
   -1.5410   -0.4980   -2.8410 O   0  0  0  0  0  0  0  0  0  0  0  0
   -1.7550    1.3600   -1.6570 O   0  0  0  0  0  0  0  0  0  0  0  0
    0.1180    2.8950    0.9710 O   0  0  0  0  0  0  0  0  0  0  0  0
    0.6100   -2.7810   -0.3030 O   0  0  0  0  0  0  0  0  0  0  0  0
    3.2750   -2.4410    0.0430 O   0  0  0  0  0  0  0  0  0  0  0  0
    6.1510    0.9910   -0.8040 H   0  0  0  0  0  0  0  0  0  0  0  0
    4.6090    1.7650   -1.1690 H   0  0  0  0  0  0  0  0  0  0  0  0
    4.9450    0.1420   -1.7740 H   0  0  0  0  0  0  0  0  0  0  0  0
    5.0150   -0.7660    0.5860 H   0  0  0  0  0  0  0  0  0  0  0  0
    4.1800    0.7700    2.4530 H   0  0  0  0  0  0  0  0  0  0  0  0
    5.7820    1.1680    1.8250 H   0  0  0  0  0  0  0  0  0  0  0  0
    4.3980    2.1540    1.3790 H   0  0  0  0  0  0  0  0  0  0  0  0
    2.5130    2.0580    0.1870 H   0  0  0  0  0  0  0  0  0  0  0  0
    0.2610    2.7270   -0.9950 H   0  0  0  0  0  0  0  0  0  0  0  0
   -2.2360    2.6340   -0.1410 H   0  0  0  0  0  0  0  0  0  0  0  0
   -1.3730    0.5520    1.5380 H   0  0  0  0  0  0  0  0  0  0  0  0
   -1.2700   -2.7550   -0.5200 H   0  0  0  0  0  0  0  0  0  0  0  0
   -2.8060   -1.9990   -0.8810 H   0  0  0  0  0  0  0  0  0  0  0  0
   -1.5110   -1.9860    1.9300 H   0  0  0  0  0  0  0  0  0  0  0  0
   -2.7340   -3.1290    1.4180 H   0  0  0  0  0  0  0  0  0  0  0  0
   -3.4680   -0.9230    2.7010 H   0  0  0  0  0  0  0  0  0  0  0  0
   -4.4800   -1.5470    1.4230 H   0  0  0  0  0  0  0  0  0  0  0  0
   -3.3060    1.5410    2.6300 H   0  0  0  0  0  0  0  0  0  0  0  0
   -3.9940    2.3300    1.2130 H   0  0  0  0  0  0  0  0  0  0  0  0
   -4.9350    1.1380    2.0960 H   0  0  0  0  0  0  0  0  0  0  0  0
   -4.1640    1.1230   -1.0170 H   0  0  0  0  0  0  0  0  0  0  0  0
   -5.2910    0.0660   -0.1930 H   0  0  0  0  0  0  0  0  0  0  0  0
   -3.9550   -0.6360   -1.0900 H   0  0  0  0  0  0  0  0  0  0  0  0
   -0.0240    2.3730    1.7680 H   0  0  0  0  0  0  0  0  0  0  0  0
    1.3190   -3.4360   -0.2560 H   0  0  0  0  0  0  0  0  0  0  0  0
    3.8780   -2.3850   -0.7090 H   0  0  0  0  0  0  0  0  0  0  0  0
  1 28  1  0
  1 27  1  0
  1 26  1  0
  1  2  1  0
  2  4  1  0
  2 29  1  1
  2  3  1  0
  3 32  1  0
  3 31  1  0
  3 30  1  0
  4  5  2  0
  4  9  1  0
  5  6  1  0
  5 25  1  0
  6 24  1  0
  6  7  2  0
  7  8  1  0
  8 10  1  0
  8  9  2  0
  9 33  1  0
 10 34  1  6
 10 11  1  0
 10 23  1  0
 11 22  1  0
 11 35  1  1
 11 12  1  0
 12 13  1  0
 12 17  1  0
 12 36  1  1
 13  7  1  0
 13 20  1  6
 13 14  1  0
 14 38  1  0
 14 37  1  0
 14 15  1  0
 15 40  1  0
 15 16  1  0
 15 39  1  0
 16 17  1  0
 16 42  1  0
 16 41  1  0
 17 19  1  6
 17 18  1  0
 18 44  1  0
 18 45  1  0
 18 43  1  0
 19 48  1  0
 19 46  1  0
 19 47  1  0
 20 21  2  0
 20 22  1  0
 23 49  1  0
 24 50  1  0
 25 51  1  0
M  END
>  <id>  (988) 
1109

>  <scaffolds>  (988) 
['c1ccccc1', 'O=C1OC2Cc3ccccc3C13CCCCC23', 'C1CCCCC1', 'c1ccc2c(c1)CCC1CCCCC21', 'O=C1CCCO1', 'c1ccc2c(c1)CCCC2']

>  <name>  (988) 
Rosmanol

>  <formula>  (988) 
C20H26O5

>  <SMILES>  (988) 
CC(C)C1=C(C(=C2C(=C1)[C@@H]([C@@H]3[C@@H]4[C@@]2(CCCC4(C)C)C(=O)O3)O)O)O

>  <ChEMBL_id>  (988) 
CHEMBL507166

>  <ZINC_id>  (988) 
ZINC31157853

>  <PubChem_id>  (988) 
13966122

>  <DrugBank_id>  (988) 


>  <CAS_no>  (988) 
80225-53-2

>  <references>  (988) 
[{'journal': {'name': 'Antioxidants', 'id': 53}, 'title': 'Investigation of In-Vitro Antioxidant and Electrochemical Activities of Isolated Compounds from Salvia chamelaeagnea P.J.Bergius Extract', 'year': 2019, 'start_page': None, 'volume': None, 'issue': None, 'doi': 'https://doi.org/10.3390/antiox8040098', 'isbn': '', 'despositor': {'code': 'BND', 'first_name': "Bakary N'tji", 'last_name': 'Diallo', 'id': 26}, 'refauthors_set': [{'author': {'first_name': 'Ninon ', 'initials': 'N.G.E.R.E', 'last_name': 'Etsassala', 'id': 1097}, 'first_author': True, 'id': 1680}], 'id': 466}]

>  <classifications>  (988) 
[{'classification': 'Diterpene', 'id': 771}, {'classification': 'Phenol lipids (Classyfire)', 'id': 951}]

>  <molecular_mass>  (988) 
346.4

$$$$
SANC01110_minRM1.pdb
     RDKit          3D

 81 85  0  0  1  0  0  0  0  0999 V2000
   -3.4920   -1.8760   -1.4640 C   0  0  0  0  0  0  0  0  0  0  0  0
   -3.6420   -1.2520   -0.0690 C   0  0  2  0  0  0  0  0  0  0  0  0
   -5.1370   -1.2580    0.2810 C   0  0  0  0  0  0  0  0  0  0  0  0
   -5.8500   -0.1600   -0.4960 C   0  0  0  0  0  0  0  0  0  0  0  0
   -5.3970    1.2290   -0.0240 C   0  0  1  0  0  0  0  0  0  0  0  0
   -4.0150    1.1500    0.6450 C   0  0  0  0  0  0  0  0  0  0  0  0
   -3.0700    0.1830   -0.0760 C   0  0  1  0  0  0  0  0  0  0  0  0
   -1.6170    0.3190    0.4870 C   0  0  2  0  0  0  0  0  0  0  0  0
   -1.0130    1.5990   -0.1380 C   0  0  0  0  0  0  0  0  0  0  0  0
    0.2970    1.3980   -0.8900 C   0  0  0  0  0  0  0  0  0  0  0  0
    1.1770    0.4460   -0.0890 C   0  0  2  0  0  0  0  0  0  0  0  0
    2.6910    0.6020   -0.3810 C   0  0  1  0  0  0  0  0  0  0  0  0
    3.1300    2.0170    0.0790 C   0  0  0  0  0  0  0  0  0  0  0  0
    4.3430    2.0220    1.0010 C   0  0  0  0  0  0  0  0  0  0  0  0
    5.4470    1.1090    0.4580 C   0  0  1  0  0  0  0  0  0  0  0  0
    4.9690   -0.3710    0.4180 C   0  0  1  0  0  0  0  0  0  0  0  0
    3.4260   -0.4500    0.4680 C   0  0  2  0  0  0  0  0  0  0  0  0
    2.9100   -1.8510    0.1520 C   0  0  0  0  0  0  0  0  0  0  0  0
    1.4330   -1.9600    0.5170 C   0  0  0  0  0  0  0  0  0  0  0  0
    0.5780   -0.9580   -0.2710 C   0  0  1  0  0  0  0  0  0  0  0  0
   -0.8420   -0.9510    0.2460 C   0  0  0  0  0  0  0  0  0  0  0  0
   -1.4450   -2.1100    0.5310 C   0  0  0  0  0  0  0  0  0  0  0  0
   -2.8780   -2.1280    0.9290 C   0  0  0  0  0  0  0  0  0  0  0  0
    0.4610   -1.4290   -1.7240 C   0  0  0  0  0  0  0  0  0  0  0  0
    5.5810   -1.1080   -0.7710 C   0  0  0  0  0  0  0  0  0  0  0  0
    5.5080   -1.0520    1.6890 C   0  0  0  0  0  0  0  0  0  0  0  0
    5.8240    1.4920   -0.8330 O   0  0  0  0  0  0  0  0  0  0  0  0
    2.9800    0.4710   -1.8700 C   0  0  0  0  0  0  0  0  0  0  0  0
   -1.5980    0.4760    2.0200 C   0  0  0  0  0  0  0  0  0  0  0  0
   -5.3580    2.1920   -1.2110 C   0  0  0  0  0  0  0  0  0  0  0  0
   -6.3990    1.7760    0.9980 C   0  0  0  0  0  0  0  0  0  0  0  0
   -4.1340   -1.3870   -2.2130 H   0  0  0  0  0  0  0  0  0  0  0  0
   -2.4630   -1.8130   -1.8480 H   0  0  0  0  0  0  0  0  0  0  0  0
   -3.7610   -2.9420   -1.4750 H   0  0  0  0  0  0  0  0  0  0  0  0
   -5.3070   -1.1420    1.3720 H   0  0  0  0  0  0  0  0  0  0  0  0
   -5.5840   -2.2490    0.0540 H   0  0  0  0  0  0  0  0  0  0  0  0
   -6.9510   -0.2710   -0.4040 H   0  0  0  0  0  0  0  0  0  0  0  0
   -5.6670   -0.2940   -1.5850 H   0  0  0  0  0  0  0  0  0  0  0  0
   -3.5730    2.1670    0.7010 H   0  0  0  0  0  0  0  0  0  0  0  0
   -4.1390    0.8500    1.7070 H   0  0  0  0  0  0  0  0  0  0  0  0
   -3.0170    0.5070   -1.1500 H   0  0  0  0  0  0  0  0  0  0  0  0
   -0.8560    2.3750    0.6440 H   0  0  0  0  0  0  0  0  0  0  0  0
   -1.7340    2.0910   -0.8280 H   0  0  0  0  0  0  0  0  0  0  0  0
    0.1050    1.0120   -1.9160 H   0  0  0  0  0  0  0  0  0  0  0  0
    0.7790    2.3810   -1.0720 H   0  0  0  0  0  0  0  0  0  0  0  0
    1.0620    0.6950    1.0030 H   0  0  0  0  0  0  0  0  0  0  0  0
    2.3110    2.5590    0.6010 H   0  0  0  0  0  0  0  0  0  0  0  0
    3.3440    2.6660   -0.7980 H   0  0  0  0  0  0  0  0  0  0  0  0
    4.7190    3.0610    1.1310 H   0  0  0  0  0  0  0  0  0  0  0  0
    4.0730    1.7180    2.0340 H   0  0  0  0  0  0  0  0  0  0  0  0
    6.3540    1.1970    1.1240 H   0  0  0  0  0  0  0  0  0  0  0  0
    3.1370   -0.2480    1.5390 H   0  0  0  0  0  0  0  0  0  0  0  0
    3.4820   -2.6140    0.7260 H   0  0  0  0  0  0  0  0  0  0  0  0
    3.0790   -2.1340   -0.9050 H   0  0  0  0  0  0  0  0  0  0  0  0
    1.0870   -3.0020    0.3400 H   0  0  0  0  0  0  0  0  0  0  0  0
    1.2860   -1.8100    1.6080 H   0  0  0  0  0  0  0  0  0  0  0  0
   -0.9480   -3.0800    0.4490 H   0  0  0  0  0  0  0  0  0  0  0  0
   -2.9960   -1.7520    1.9710 H   0  0  0  0  0  0  0  0  0  0  0  0
   -3.2870   -3.1590    0.9580 H   0  0  0  0  0  0  0  0  0  0  0  0
    1.4310   -1.5730   -2.2210 H   0  0  0  0  0  0  0  0  0  0  0  0
   -0.0590   -2.3960   -1.8060 H   0  0  0  0  0  0  0  0  0  0  0  0
   -0.1020   -0.7130   -2.3450 H   0  0  0  0  0  0  0  0  0  0  0  0
    6.6660   -0.9380   -0.8410 H   0  0  0  0  0  0  0  0  0  0  0  0
    5.4530   -2.1980   -0.7100 H   0  0  0  0  0  0  0  0  0  0  0  0
    5.1560   -0.7870   -1.7350 H   0  0  0  0  0  0  0  0  0  0  0  0
    5.2430   -0.5130    2.6100 H   0  0  0  0  0  0  0  0  0  0  0  0
    6.6050   -1.1370    1.6840 H   0  0  0  0  0  0  0  0  0  0  0  0
    5.1250   -2.0760    1.8070 H   0  0  0  0  0  0  0  0  0  0  0  0
    5.9840    2.4400   -0.8230 H   0  0  0  0  0  0  0  0  0  0  0  0
    4.0530    0.5470   -2.1070 H   0  0  0  0  0  0  0  0  0  0  0  0
    2.4790    1.2440   -2.4720 H   0  0  0  0  0  0  0  0  0  0  0  0
    2.6640   -0.4920   -2.2990 H   0  0  0  0  0  0  0  0  0  0  0  0
   -2.1880   -0.3000    2.5320 H   0  0  0  0  0  0  0  0  0  0  0  0
   -1.9820    1.4430    2.3750 H   0  0  0  0  0  0  0  0  0  0  0  0
   -0.5780    0.3990    2.4250 H   0  0  0  0  0  0  0  0  0  0  0  0
   -5.1360    3.2240   -0.9040 H   0  0  0  0  0  0  0  0  0  0  0  0
   -6.3180    2.2250   -1.7460 H   0  0  0  0  0  0  0  0  0  0  0  0
   -4.5960    1.9200   -1.9560 H   0  0  0  0  0  0  0  0  0  0  0  0
   -7.3830    1.9770    0.5500 H   0  0  0  0  0  0  0  0  0  0  0  0
   -6.5730    1.0760    1.8280 H   0  0  0  0  0  0  0  0  0  0  0  0
   -6.0610    2.7210    1.4450 H   0  0  0  0  0  0  0  0  0  0  0  0
  1 32  1  0
  1 33  1  0
  1 34  1  0
  2  1  1  6
  2  7  1  0
  2  3  1  0
  2 23  1  0
  3  4  1  0
  3 36  1  0
  3 35  1  0
  4 38  1  0
  4 37  1  0
  4  5  1  0
  5 30  1  6
  5  6  1  0
  5 31  1  0
  6  7  1  0
  6 39  1  0
  6 40  1  0
  7 41  1  6
  7  8  1  0
  8  9  1  0
  8 21  1  0
  8 29  1  1
  9 10  1  0
  9 43  1  0
  9 42  1  0
 10 44  1  0
 10 45  1  0
 10 11  1  0
 11 12  1  0
 11 20  1  0
 11 46  1  1
 12 28  1  6
 12 13  1  0
 12 17  1  0
 13 48  1  0
 13 47  1  0
 13 14  1  0
 14 15  1  0
 14 49  1  0
 14 50  1  0
 15 27  1  0
 15 16  1  0
 15 51  1  1
 16 25  1  6
 16 17  1  0
 16 26  1  0
 17 18  1  0
 17 52  1  1
 18 54  1  0
 18 19  1  0
 18 53  1  0
 19 20  1  0
 19 55  1  0
 19 56  1  0
 20 24  1  6
 20 21  1  0
 21 22  2  0
 22 57  1  0
 22 23  1  0
 23 59  1  0
 23 58  1  0
 24 62  1  0
 24 60  1  0
 24 61  1  0
 25 65  1  0
 25 63  1  0
 25 64  1  0
 26 67  1  0
 26 68  1  0
 26 66  1  0
 27 69  1  0
 28 71  1  0
 28 72  1  0
 28 70  1  0
 29 74  1  0
 29 75  1  0
 29 73  1  0
 30 78  1  0
 30 77  1  0
 30 76  1  0
 31 79  1  0
 31 81  1  0
 31 80  1  0
M  END
>  <id>  (989) 
1110

>  <scaffolds>  (989) 
['C1=CCCCC1', 'C1=CCC2CCCCC2C1', 'C1=C2C(CCC3C2CCC2CCCCC23)C2CCCCC2C1', 'C1CCCCC1', 'C=C1CCCC2CCCCC12', 'C1=C2CCCCC2CCC1', 'C1=C2C3CCCCC3CCC2C2CCCCC2C1', 'C1CCC2CCCCC2C1']

>  <name>  (989) 
Taraxerol

>  <formula>  (989) 
C30H50O

>  <SMILES>  (989) 
C[C@]12CCC(C[C@H]1[C@@]3(CC[C@@H]4[C@]5(CC[C@@H](C([C@@H]5CC[C@]4(C3=CC2)C)(C)C)O)C)C)(C)C

>  <ChEMBL_id>  (989) 
SCHEMBL569463

>  <ZINC_id>  (989) 
ZINC4082498

>  <PubChem_id>  (989) 
92097

>  <DrugBank_id>  (989) 


>  <CAS_no>  (989) 
127-22-0

>  <references>  (989) 
[{'journal': {'name': 'Molecules', 'id': 25}, 'title': 'Anti-plasmodial activity of some zulu medicinal plants and of some triterpenes isolated from them', 'year': 2013, 'start_page': None, 'volume': None, 'issue': None, 'doi': '10.3390/molecules181012313', 'isbn': '', 'despositor': {'code': 'TMM', 'first_name': 'Thommas', 'last_name': 'Musyoka', 'id': 22}, 'refauthors_set': [], 'id': 576}]

>  <classifications>  (989) 
[{'classification': 'Triterpene', 'id': 842}, {'classification': 'Phenol lipids (Classyfire)', 'id': 951}]

>  <molecular_mass>  (989) 
426.7

$$$$
SANC01111_minRM1.pdb
     RDKit          3D

 84 88  0  0  1  0  0  0  0  0999 V2000
   -3.9440   -2.1170   -1.0440 C   0  0  0  0  0  0  0  0  0  0  0  0
   -3.9650   -1.2300    0.2100 C   0  0  2  0  0  0  0  0  0  0  0  0
   -5.4150   -1.1670    0.7120 C   0  0  0  0  0  0  0  0  0  0  0  0
   -6.2260   -0.2270   -0.1680 C   0  0  0  0  0  0  0  0  0  0  0  0
   -5.7480    1.2230   -0.0070 C   0  0  1  0  0  0  0  0  0  0  0  0
   -4.2960    1.2650    0.4960 C   0  0  0  0  0  0  0  0  0  0  0  0
   -3.4240    0.1750   -0.1350 C   0  0  1  0  0  0  0  0  0  0  0  0
   -1.9170    0.3840    0.2200 C   0  0  2  0  0  0  0  0  0  0  0  0
   -1.3400    1.3770   -0.7950 C   0  0  0  0  0  0  0  0  0  0  0  0
    0.1470    1.6350   -0.5910 C   0  0  0  0  0  0  0  0  0  0  0  0
    0.9100    0.4270   -0.0440 C   0  0  2  0  0  0  0  0  0  0  0  0
    2.4240    0.5260   -0.3760 C   0  0  1  0  0  0  0  0  0  0  0  0
    2.9820    1.8250    0.2310 C   0  0  0  0  0  0  0  0  0  0  0  0
    4.4990    1.8920    0.1090 C   0  0  0  0  0  0  0  0  0  0  0  0
    5.1330    0.7150    0.8440 C   0  0  1  0  0  0  0  0  0  0  0  0
    4.6640   -0.6470    0.2720 C   0  0  1  0  0  0  0  0  0  0  0  0
    3.1220   -0.6620    0.3060 C   0  0  2  0  0  0  0  0  0  0  0  0
    2.5470   -1.9560   -0.2600 C   0  0  0  0  0  0  0  0  0  0  0  0
    1.0750   -2.0660    0.1120 C   0  0  0  0  0  0  0  0  0  0  0  0
    0.2370   -0.9010   -0.4430 C   0  0  1  0  0  0  0  0  0  0  0  0
   -1.1460   -0.9090    0.1710 C   0  0  0  0  0  0  0  0  0  0  0  0
   -1.7050   -1.9880    0.7230 C   0  0  0  0  0  0  0  0  0  0  0  0
   -3.0840   -1.8890    1.2750 C   0  0  0  0  0  0  0  0  0  0  0  0
    0.0480   -1.1030   -1.9450 C   0  0  0  0  0  0  0  0  0  0  0  0
    5.2550   -0.9270   -1.1020 C   0  0  0  0  0  0  0  0  0  0  0  0
    5.1690   -1.7530    1.2120 C   0  0  0  0  0  0  0  0  0  0  0  0
    6.5340    0.7540    0.9380 O   0  0  0  0  0  0  0  0  0  0  0  0
    7.2590    1.4300   -0.0480 C   0  0  0  0  0  0  0  0  0  0  0  0
    2.6500    0.5650   -1.8810 C   0  0  0  0  0  0  0  0  0  0  0  0
   -1.7140    0.9250    1.6400 C   0  0  0  0  0  0  0  0  0  0  0  0
   -5.8700    1.9570   -1.3430 C   0  0  0  0  0  0  0  0  0  0  0  0
   -6.6360    1.9440    1.0120 C   0  0  0  0  0  0  0  0  0  0  0  0
   -4.1910   -3.1640   -0.8160 H   0  0  0  0  0  0  0  0  0  0  0  0
   -2.9610   -2.1320   -1.5350 H   0  0  0  0  0  0  0  0  0  0  0  0
   -4.6670   -1.7880   -1.8050 H   0  0  0  0  0  0  0  0  0  0  0  0
   -5.8670   -2.1820    0.7190 H   0  0  0  0  0  0  0  0  0  0  0  0
   -5.4680   -0.8520    1.7750 H   0  0  0  0  0  0  0  0  0  0  0  0
   -6.1610   -0.5550   -1.2290 H   0  0  0  0  0  0  0  0  0  0  0  0
   -7.3090   -0.3160    0.0630 H   0  0  0  0  0  0  0  0  0  0  0  0
   -3.8710    2.2720    0.3010 H   0  0  0  0  0  0  0  0  0  0  0  0
   -4.2880    1.1760    1.6030 H   0  0  0  0  0  0  0  0  0  0  0  0
   -3.5180    0.2940   -1.2480 H   0  0  0  0  0  0  0  0  0  0  0  0
   -1.8940    2.3390   -0.7670 H   0  0  0  0  0  0  0  0  0  0  0  0
   -1.5080    0.9980   -1.8300 H   0  0  0  0  0  0  0  0  0  0  0  0
    0.2780    2.4990    0.0970 H   0  0  0  0  0  0  0  0  0  0  0  0
    0.5840    1.9840   -1.5550 H   0  0  0  0  0  0  0  0  0  0  0  0
    0.8190    0.4730    1.0810 H   0  0  0  0  0  0  0  0  0  0  0  0
    2.6800    1.9270    1.2960 H   0  0  0  0  0  0  0  0  0  0  0  0
    2.5480    2.7180   -0.2650 H   0  0  0  0  0  0  0  0  0  0  0  0
    4.7950    1.9330   -0.9600 H   0  0  0  0  0  0  0  0  0  0  0  0
    4.8660    2.8510    0.5350 H   0  0  0  0  0  0  0  0  0  0  0  0
    4.8470    0.7690    1.9320 H   0  0  0  0  0  0  0  0  0  0  0  0
    2.8490   -0.6160    1.3990 H   0  0  0  0  0  0  0  0  0  0  0  0
    2.6830   -2.0180   -1.3610 H   0  0  0  0  0  0  0  0  0  0  0  0
    3.1020   -2.8390    0.1310 H   0  0  0  0  0  0  0  0  0  0  0  0
    0.6800   -3.0380   -0.2550 H   0  0  0  0  0  0  0  0  0  0  0  0
    0.9740   -2.1210    1.2170 H   0  0  0  0  0  0  0  0  0  0  0  0
   -1.2360   -2.9720    0.7760 H   0  0  0  0  0  0  0  0  0  0  0  0
   -3.0790   -1.2940    2.2170 H   0  0  0  0  0  0  0  0  0  0  0  0
   -3.4830   -2.8810    1.5730 H   0  0  0  0  0  0  0  0  0  0  0  0
    0.9950   -1.2400   -2.4900 H   0  0  0  0  0  0  0  0  0  0  0  0
   -0.5540   -2.0000   -2.1560 H   0  0  0  0  0  0  0  0  0  0  0  0
   -0.4690   -0.2650   -2.4370 H   0  0  0  0  0  0  0  0  0  0  0  0
    6.3510   -1.0300   -1.0650 H   0  0  0  0  0  0  0  0  0  0  0  0
    5.0390   -0.1460   -1.8450 H   0  0  0  0  0  0  0  0  0  0  0  0
    4.8940   -1.8720   -1.5330 H   0  0  0  0  0  0  0  0  0  0  0  0
    4.8290   -1.6260    2.2500 H   0  0  0  0  0  0  0  0  0  0  0  0
    6.2670   -1.7950    1.2560 H   0  0  0  0  0  0  0  0  0  0  0  0
    4.8250   -2.7500    0.8930 H   0  0  0  0  0  0  0  0  0  0  0  0
    7.0200    1.1600   -1.0890 H   0  0  0  0  0  0  0  0  0  0  0  0
    7.1810    2.5270    0.0440 H   0  0  0  0  0  0  0  0  0  0  0  0
    8.3050    1.1440    0.1490 H   0  0  0  0  0  0  0  0  0  0  0  0
    3.6750    0.8720   -2.1520 H   0  0  0  0  0  0  0  0  0  0  0  0
    1.9730    1.2770   -2.3820 H   0  0  0  0  0  0  0  0  0  0  0  0
    2.4900   -0.4150   -2.3620 H   0  0  0  0  0  0  0  0  0  0  0  0
   -0.6560    0.8810    1.9510 H   0  0  0  0  0  0  0  0  0  0  0  0
   -2.2710    0.3400    2.3890 H   0  0  0  0  0  0  0  0  0  0  0  0
   -2.0090    1.9770    1.7530 H   0  0  0  0  0  0  0  0  0  0  0  0
   -5.1950    1.5570   -2.1130 H   0  0  0  0  0  0  0  0  0  0  0  0
   -5.6370    3.0280   -1.2530 H   0  0  0  0  0  0  0  0  0  0  0  0
   -6.8870    1.8930   -1.7570 H   0  0  0  0  0  0  0  0  0  0  0  0
   -6.2670    2.9540    1.2410 H   0  0  0  0  0  0  0  0  0  0  0  0
   -7.6690    2.0640    0.6560 H   0  0  0  0  0  0  0  0  0  0  0  0
   -6.6970    1.4050    1.9690 H   0  0  0  0  0  0  0  0  0  0  0  0
  1 35  1  0
  1 34  1  0
  1 33  1  0
  2  1  1  6
  2  7  1  0
  2  3  1  0
  2 23  1  0
  3  4  1  0
  3 36  1  0
  3 37  1  0
  4 38  1  0
  4  5  1  0
  4 39  1  0
  5 31  1  6
  5  6  1  0
  5 32  1  0
  6  7  1  0
  6 40  1  0
  6 41  1  0
  7 42  1  6
  7  8  1  0
  8  9  1  0
  8 21  1  0
  8 30  1  1
  9 44  1  0
  9 43  1  0
  9 10  1  0
 10 46  1  0
 10 11  1  0
 10 45  1  0
 11 20  1  0
 11 12  1  0
 11 47  1  1
 12 29  1  6
 12 13  1  0
 12 17  1  0
 13 49  1  0
 13 14  1  0
 13 48  1  0
 14 50  1  0
 14 51  1  0
 14 15  1  0
 15 16  1  0
 15 27  1  0
 15 52  1  1
 16 25  1  6
 16 17  1  0
 16 26  1  0
 17 18  1  0
 17 53  1  1
 18 54  1  0
 18 19  1  0
 18 55  1  0
 19 20  1  0
 19 56  1  0
 19 57  1  0
 20 24  1  6
 20 21  1  0
 21 22  2  0
 22 58  1  0
 22 23  1  0
 23 60  1  0
 23 59  1  0
 24 61  1  0
 24 63  1  0
 24 62  1  0
 25 65  1  0
 25 66  1  0
 25 64  1  0
 26 69  1  0
 26 68  1  0
 26 67  1  0
 27 28  1  0
 28 70  1  0
 28 71  1  0
 28 72  1  0
 29 74  1  0
 29 75  1  0
 29 73  1  0
 30 78  1  0
 30 76  1  0
 30 77  1  0
 31 79  1  0
 31 81  1  0
 31 80  1  0
 32 83  1  0
 32 82  1  0
 32 84  1  0
M  END
>  <id>  (990) 
1111

>  <scaffolds>  (990) 
['C1=CCCCC1', 'C1=CCC2CCCCC2C1', 'C1=C2C(CCC3C2CCC2CCCCC23)C2CCCCC2C1', 'C1CCCCC1', 'C=C1CCCC2CCCCC12', 'C1=C2CCCCC2CCC1', 'C1=C2C3CCCCC3CCC2C2CCCCC2C1', 'C1CCC2CCCCC2C1']

>  <name>  (990) 
Sawamilletin

>  <formula>  (990) 
C31H52O

>  <SMILES>  (990) 
C[C@]12CCC(C[C@H]1[C@@]3(CC[C@@H]4[C@]5(CC[C@@H](C([C@@H]5CC[C@]4(C3=CC2)C)(C)C)OC)C)C)(C)C

>  <ChEMBL_id>  (990) 


>  <ZINC_id>  (990) 


>  <PubChem_id>  (990) 
12305297

>  <DrugBank_id>  (990) 


>  <CAS_no>  (990) 
14021-23-9

>  <references>  (990) 
[{'journal': {'name': 'Molecules', 'id': 25}, 'title': 'Anti-plasmodial activity of some zulu medicinal plants and of some triterpenes isolated from them', 'year': 2013, 'start_page': None, 'volume': None, 'issue': None, 'doi': '10.3390/molecules181012313', 'isbn': '', 'despositor': {'code': 'TMM', 'first_name': 'Thommas', 'last_name': 'Musyoka', 'id': 22}, 'refauthors_set': [], 'id': 576}]

>  <classifications>  (990) 
[{'classification': 'Triterpene', 'id': 842}, {'classification': 'Phenol lipids (Classyfire)', 'id': 951}]

>  <molecular_mass>  (990) 
440.7

$$$$
SANC01112_minRM1.pdb
     RDKit          3D

 42 44  0  0  0  0  0  0  0  0999 V2000
    5.5100   -0.7240    0.0620 C   0  0  0  0  0  0  0  0  0  0  0  0
    6.8370   -0.3990   -0.1650 C   0  0  0  0  0  0  0  0  0  0  0  0
    7.1780    0.9440   -0.3530 C   0  0  0  0  0  0  0  0  0  0  0  0
    6.2120    1.9520   -0.3170 C   0  0  0  0  0  0  0  0  0  0  0  0
    4.8900    1.6010   -0.0890 C   0  0  0  0  0  0  0  0  0  0  0  0
    4.5270    0.2670    0.1020 C   0  0  0  0  0  0  0  0  0  0  0  0
    3.1280   -0.0580    0.3400 C   0  0  0  0  0  0  0  0  0  0  0  0
    2.7000   -1.2760    0.6760 C   0  0  0  0  0  0  0  0  0  0  0  0
    1.2670   -1.5410    0.9450 C   0  0  0  0  0  0  0  0  0  0  0  0
    0.8690   -2.0280    2.0000 O   0  0  0  0  0  0  0  0  0  0  0  0
    0.3940   -1.2050   -0.0770 N   0  0  0  0  0  0  0  0  0  0  0  0
   -1.0500   -1.4150    0.0700 C   0  0  0  0  0  0  0  0  0  0  0  0
   -1.8180   -0.6800   -1.0410 C   0  0  0  0  0  0  0  0  0  0  0  0
   -3.2640   -0.8590   -0.8200 C   0  0  0  0  0  0  0  0  0  0  0  0
   -3.9710   -2.0340   -1.0130 C   0  0  0  0  0  0  0  0  0  0  0  0
   -5.3150   -1.8200   -0.7020 N   0  0  0  0  0  0  0  0  0  0  0  0
   -5.4650   -0.4910   -0.3000 C   0  0  0  0  0  0  0  0  0  0  0  0
   -4.1910    0.1320   -0.3650 C   0  0  0  0  0  0  0  0  0  0  0  0
   -4.0570    1.4760   -0.0090 C   0  0  0  0  0  0  0  0  0  0  0  0
   -5.2010    2.1390    0.3940 C   0  0  0  0  0  0  0  0  0  0  0  0
   -6.4750    1.5190    0.4570 C   0  0  0  0  0  0  0  0  0  0  0  0
   -6.6150    0.1970    0.1110 C   0  0  0  0  0  0  0  0  0  0  0  0
   -5.2110    3.4480    0.7630 O   0  0  0  0  0  0  0  0  0  0  0  0
    8.4940    1.1830   -0.5710 O   0  0  0  0  0  0  0  0  0  0  0  0
    5.2400   -1.7760    0.2110 H   0  0  0  0  0  0  0  0  0  0  0  0
    7.6090   -1.1730   -0.1950 H   0  0  0  0  0  0  0  0  0  0  0  0
    6.4810    3.0010   -0.4630 H   0  0  0  0  0  0  0  0  0  0  0  0
    4.1320    2.3910   -0.0580 H   0  0  0  0  0  0  0  0  0  0  0  0
    2.4180    0.7740    0.2420 H   0  0  0  0  0  0  0  0  0  0  0  0
    3.3580   -2.1390    0.8210 H   0  0  0  0  0  0  0  0  0  0  0  0
    0.7490   -0.8540   -0.9580 H   0  0  0  0  0  0  0  0  0  0  0  0
   -1.2880   -2.5060    0.0530 H   0  0  0  0  0  0  0  0  0  0  0  0
   -1.3880   -1.0650    1.0750 H   0  0  0  0  0  0  0  0  0  0  0  0
   -1.5350   -1.0630   -2.0460 H   0  0  0  0  0  0  0  0  0  0  0  0
   -1.5550    0.3980   -1.0640 H   0  0  0  0  0  0  0  0  0  0  0  0
   -3.6070   -3.0010   -1.3520 H   0  0  0  0  0  0  0  0  0  0  0  0
   -6.0510   -2.5040   -0.7420 H   0  0  0  0  0  0  0  0  0  0  0  0
   -3.0800    1.9610   -0.0500 H   0  0  0  0  0  0  0  0  0  0  0  0
   -7.3390    2.1050    0.7850 H   0  0  0  0  0  0  0  0  0  0  0  0
   -7.5840   -0.3040    0.1520 H   0  0  0  0  0  0  0  0  0  0  0  0
   -4.3100    3.7850    0.7290 H   0  0  0  0  0  0  0  0  0  0  0  0
    8.6260    2.1330   -0.6740 H   0  0  0  0  0  0  0  0  0  0  0  0
  1  2  2  0
  1  6  1  0
  1 25  1  0
  2  3  1  0
  2 26  1  0
  3 24  1  0
  3  4  2  0
  4 27  1  0
  4  5  1  0
  5 28  1  0
  5  6  2  0
  6  7  1  0
  7 29  1  0
  7  8  2  0
  8 30  1  0
  8  9  1  0
  9 11  1  0
  9 10  2  0
 11 31  1  0
 11 12  1  0
 12 13  1  0
 12 32  1  0
 12 33  1  0
 13 34  1  0
 13 35  1  0
 13 14  1  0
 14 15  2  0
 14 18  1  0
 15 36  1  0
 15 16  1  0
 16 37  1  0
 16 17  1  0
 17 18  2  0
 17 22  1  0
 18 19  1  0
 19 38  1  0
 19 20  2  0
 20 21  1  0
 20 23  1  0
 21 22  2  0
 21 39  1  0
 22 40  1  0
 23 41  1  0
 24 42  1  0
M  END
>  <id>  (991) 
1112

>  <scaffolds>  (991) 
['c1ccccc1', 'c1ccc2[nH]ccc2c1', 'O=C(C=Cc1ccccc1)NCCc1c[nH]c2ccccc12']

>  <name>  (991) 
N-coumaroyl serotonin

>  <formula>  (991) 
C19H18N2O3

>  <SMILES>  (991) 
C1=CC(=CC=C1/C=C/C(=O)NCCC2=CNC3=C2C=C(C=C3)O)O

>  <ChEMBL_id>  (991) 
SCHEMBL471921

>  <ZINC_id>  (991) 
ZINC1587152

>  <PubChem_id>  (991) 
5458879

>  <DrugBank_id>  (991) 


>  <CAS_no>  (991) 
201301-83-9

>  <references>  (991) 
[{'journal': {'name': 'Molecules', 'id': 25}, 'title': 'Antimicrobial and selected in vitro enzyme inhibitory effects of leaf extracts, flavonols and indole alkaloids isolated from Croton menyharthii', 'year': 2013, 'start_page': None, 'volume': None, 'issue': None, 'doi': '10.3390/molecules181012633', 'isbn': '', 'despositor': {'code': 'TMM', 'first_name': 'Thommas', 'last_name': 'Musyoka', 'id': 22}, 'refauthors_set': [{'author': {'first_name': '', 'initials': 'MA', 'last_name': 'Aderogba', 'id': 442}, 'first_author': True, 'id': 1668}], 'id': 577}]

>  <classifications>  (991) 
[{'classification': 'Alkaloid', 'id': 738}, {'classification': 'Indoles and derivatives (Classyfire)', 'id': 947}]

>  <molecular_mass>  (991) 
322.4

$$$$
SANC01113_minRM1.pdb
     RDKit          3D

 39 43  0  0  1  0  0  0  0  0999 V2000
   -3.3710    0.9580   -1.6900 C   0  0  0  0  0  0  0  0  0  0  0  0
   -2.7570    1.0080   -0.3310 C   0  0  0  0  0  0  0  0  0  0  0  0
   -2.8800    2.1050    0.4120 C   0  0  0  0  0  0  0  0  0  0  0  0
   -2.2200   -0.2700    0.1940 C   0  0  2  0  0  0  0  0  0  0  0  0
   -1.4250   -0.2400    1.5130 C   0  0  2  0  0  0  0  0  0  0  0  0
   -0.1620    0.6590    1.4590 C   0  0  2  0  0  0  0  0  0  0  0  0
    0.5640    0.7680    0.0780 C   0  0  1  0  0  0  0  0  0  0  0  0
    2.0680    0.4770    0.2170 C   0  0  2  0  0  0  0  0  0  0  0  0
    2.9680    1.0230    1.2870 C   0  0  0  0  0  0  0  0  0  0  0  0
    2.9910    1.5230   -0.0370 O   0  0  0  0  0  0  0  0  0  0  0  0
    2.4020   -0.7980   -0.5020 C   0  0  1  0  0  0  0  0  0  0  0  0
    1.2050   -1.2210   -1.2950 C   0  0  1  0  0  0  0  0  0  0  0  0
    0.0480   -0.2410   -1.0220 C   0  0  1  0  0  0  0  0  0  0  0  0
   -1.1970   -1.0650   -0.6320 C   0  0  1  0  0  0  0  0  0  0  0  0
   -0.7820   -2.0930    0.4090 C   0  0  0  0  0  0  0  0  0  0  0  0
   -0.3620   -3.2200    0.3090 O   0  0  0  0  0  0  0  0  0  0  0  0
   -0.9740   -1.5800    1.6660 O   0  0  0  0  0  0  0  0  0  0  0  0
   -0.1740    0.3470   -2.2600 O   0  0  0  0  0  0  0  0  0  0  0  0
    2.3260   -0.6120   -1.9070 O   0  0  0  0  0  0  0  0  0  0  0  0
    0.4290    2.2210   -0.3920 C   0  0  0  0  0  0  0  0  0  0  0  0
    0.6650    0.2640    2.5030 O   0  0  0  0  0  0  0  0  0  0  0  0
   -3.1650    1.8650   -2.2790 H   0  0  0  0  0  0  0  0  0  0  0  0
   -3.0560    0.1020   -2.3030 H   0  0  0  0  0  0  0  0  0  0  0  0
   -4.4680    0.8840   -1.6110 H   0  0  0  0  0  0  0  0  0  0  0  0
   -2.5470    2.2100    1.4380 H   0  0  0  0  0  0  0  0  0  0  0  0
   -3.3500    3.0140    0.0450 H   0  0  0  0  0  0  0  0  0  0  0  0
   -3.1380   -0.9070    0.3410 H   0  0  0  0  0  0  0  0  0  0  0  0
   -2.0390   -0.0230    2.4190 H   0  0  0  0  0  0  0  0  0  0  0  0
   -0.4600    1.6870    1.8030 H   0  0  0  0  0  0  0  0  0  0  0  0
    3.8500    0.4620    1.6280 H   0  0  0  0  0  0  0  0  0  0  0  0
    2.6120    1.7100    2.0680 H   0  0  0  0  0  0  0  0  0  0  0  0
    3.1910   -1.4510   -0.1020 H   0  0  0  0  0  0  0  0  0  0  0  0
    0.9610   -2.2410   -1.6310 H   0  0  0  0  0  0  0  0  0  0  0  0
   -1.6340   -1.5600   -1.5300 H   0  0  0  0  0  0  0  0  0  0  0  0
   -0.8570    1.0180   -2.1710 H   0  0  0  0  0  0  0  0  0  0  0  0
    0.9650    2.4110   -1.3360 H   0  0  0  0  0  0  0  0  0  0  0  0
    0.8640    2.9270    0.3340 H   0  0  0  0  0  0  0  0  0  0  0  0
   -0.6120    2.5370   -0.5400 H   0  0  0  0  0  0  0  0  0  0  0  0
    1.0320   -0.6110    2.3250 H   0  0  0  0  0  0  0  0  0  0  0  0
  1 23  1  0
  1 22  1  0
  1 24  1  0
  1  2  1  0
  2  4  1  0
  2  3  2  0
  3 26  1  0
  3 25  1  0
  4 14  1  0
  4 27  1  1
  4  5  1  0
  5  6  1  0
  5 17  1  0
  5 28  1  1
  6  7  1  0
  6 29  1  1
  6 21  1  0
  7 13  1  0
  7 20  1  6
  7  8  1  0
  8 11  1  0
  8 10  1  6
  8  9  1  0
  9 10  1  0
  9 30  1  0
  9 31  1  0
 11 19  1  0
 11 12  1  0
 11 32  1  6
 12 19  1  0
 12 33  1  6
 12 13  1  0
 13 18  1  6
 13 14  1  0
 14 34  1  6
 14 15  1  0
 15 16  2  0
 15 17  1  0
 18 35  1  0
 20 36  1  0
 20 38  1  0
 20 37  1  0
 21 39  1  0
M  END
>  <id>  (992) 
1113

>  <scaffolds>  (992) 
['C1CCOCC1', 'C1CCCCC1', 'O=C1OC2CC1C1C3OC3C3(CO3)C1C2', 'O=C1CCCO1']

>  <name>  (992) 
Tutin

>  <formula>  (992) 
C15H18O6

>  <SMILES>  (992) 
CC(=C)[C@@H]1[C@@H]2[C@H]([C@]3([C@@]4(CO4)[C@H]5[C@@H]([C@]3([C@H]1C(=O)O2)O)O5)C)O

>  <ChEMBL_id>  (992) 
CHEMBL297057

>  <ZINC_id>  (992) 
ZINC4098201

>  <PubChem_id>  (992) 
75729

>  <DrugBank_id>  (992) 


>  <CAS_no>  (992) 
2571-22-4

>  <references>  (992) 
[{'journal': {'name': 'Pharmacognosy Magazine', 'id': 77}, 'title': 'Investigation of the possible biological activities of a poisonous South African plant; Hyaenanche globosa (Euphorbiaceae)', 'year': 2010, 'start_page': None, 'volume': None, 'issue': None, 'doi': '10.4103/0973-1296.59964', 'isbn': '', 'despositor': {'code': 'TMM', 'first_name': 'Thommas', 'last_name': 'Musyoka', 'id': 22}, 'refauthors_set': [], 'id': 578}]

>  <classifications>  (992) 
[{'classification': 'Lactone', 'id': 919}, {'classification': 'Lactones (Classyfire)', 'id': 952}]

>  <molecular_mass>  (992) 
294.3

$$$$
SANC01114_minRM1.pdb
     RDKit          3D

 40 44  0  0  1  0  0  0  0  0999 V2000
    3.6690    1.2450    0.8960 C   0  0  0  0  0  0  0  0  0  0  0  0
    3.3140    0.0430    0.1010 C   0  0  0  0  0  0  0  0  0  0  0  0
    4.2000   -0.9230   -0.1350 C   0  0  0  0  0  0  0  0  0  0  0  0
    1.9260   -0.0950   -0.4730 C   0  0  1  0  0  0  0  0  0  0  0  0
    1.1620   -1.2640    0.2290 C   0  0  2  0  0  0  0  0  0  0  0  0
   -0.0990   -1.6000   -0.6030 C   0  0  2  0  0  0  0  0  0  0  0  0
   -1.1030   -0.4270   -0.7020 C   0  0  1  0  0  0  0  0  0  0  0  0
   -1.9990   -0.1810    0.5130 C   0  0  2  0  0  0  0  0  0  0  0  0
   -2.1110   -0.9830    1.7760 C   0  0  0  0  0  0  0  0  0  0  0  0
   -3.0920   -1.0400    0.7510 O   0  0  0  0  0  0  0  0  0  0  0  0
   -2.2890    1.2990    0.5980 C   0  0  1  0  0  0  0  0  0  0  0  0
   -1.2920    2.0110   -0.2640 C   0  0  1  0  0  0  0  0  0  0  0  0
   -0.3660    0.9530   -0.8860 C   0  0  1  0  0  0  0  0  0  0  0  0
    0.9500    1.0380   -0.0860 C   0  0  1  0  0  0  0  0  0  0  0  0
    0.6090    0.6250    1.3330 C   0  0  0  0  0  0  0  0  0  0  0  0
    0.2380    1.2710    2.2840 O   0  0  0  0  0  0  0  0  0  0  0  0
    0.7810   -0.7260    1.4820 O   0  0  0  0  0  0  0  0  0  0  0  0
   -0.0310    1.2500   -2.1960 O   0  0  0  0  0  0  0  0  0  0  0  0
   -2.6490    1.8820   -0.6460 O   0  0  0  0  0  0  0  0  0  0  0  0
   -2.0160   -0.7570   -1.8860 C   0  0  0  0  0  0  0  0  0  0  0  0
   -0.7780   -2.6750   -0.0330 O   0  0  0  0  0  0  0  0  0  0  0  0
    2.0110   -0.3520   -1.8310 O   0  0  0  0  0  0  0  0  0  0  0  0
    3.0080    1.3910    1.7640 H   0  0  0  0  0  0  0  0  0  0  0  0
    4.6900    1.1960    1.3070 H   0  0  0  0  0  0  0  0  0  0  0  0
    3.6330    2.1620    0.2890 H   0  0  0  0  0  0  0  0  0  0  0  0
    3.9850   -1.8070   -0.7280 H   0  0  0  0  0  0  0  0  0  0  0  0
    5.2210   -0.9090    0.2350 H   0  0  0  0  0  0  0  0  0  0  0  0
    1.7840   -2.1600    0.4510 H   0  0  0  0  0  0  0  0  0  0  0  0
    0.2460   -1.8670   -1.6440 H   0  0  0  0  0  0  0  0  0  0  0  0
   -1.5250   -1.8850    1.9910 H   0  0  0  0  0  0  0  0  0  0  0  0
   -2.4070   -0.4980    2.7200 H   0  0  0  0  0  0  0  0  0  0  0  0
   -2.7740    1.6940    1.5040 H   0  0  0  0  0  0  0  0  0  0  0  0
   -0.9020    3.0300   -0.1210 H   0  0  0  0  0  0  0  0  0  0  0  0
    1.3870    2.0570   -0.1610 H   0  0  0  0  0  0  0  0  0  0  0  0
   -0.8460    1.4180   -2.6820 H   0  0  0  0  0  0  0  0  0  0  0  0
   -2.8070   -0.0160   -2.0620 H   0  0  0  0  0  0  0  0  0  0  0  0
   -1.4690   -0.8660   -2.8340 H   0  0  0  0  0  0  0  0  0  0  0  0
   -2.5420   -1.7120   -1.7200 H   0  0  0  0  0  0  0  0  0  0  0  0
   -0.2830   -3.4720   -0.2470 H   0  0  0  0  0  0  0  0  0  0  0  0
    2.2930    0.4620   -2.2620 H   0  0  0  0  0  0  0  0  0  0  0  0
  1  2  1  0
  1 25  1  0
  1 24  1  0
  1 23  1  0
  2  3  2  0
  3 26  1  0
  3 27  1  0
  4  2  1  0
  4 22  1  6
  4 14  1  0
  4  5  1  0
  5  6  1  0
  5 28  1  1
  5 17  1  0
  6 29  1  6
  6  7  1  0
  6 21  1  0
  7 20  1  6
  7 13  1  0
  7  8  1  0
  8 11  1  0
  8 10  1  6
  8  9  1  0
  9 10  1  0
  9 30  1  0
  9 31  1  0
 11 19  1  0
 11 12  1  0
 11 32  1  1
 12 13  1  0
 12 19  1  0
 12 33  1  1
 13 18  1  6
 13 14  1  0
 14 34  1  1
 14 15  1  0
 15 17  1  0
 15 16  2  0
 18 35  1  0
 20 37  1  0
 20 36  1  0
 20 38  1  0
 21 39  1  0
 22 40  1  0
M  END
>  <id>  (993) 
1114

>  <scaffolds>  (993) 
['C1CCOCC1', 'C1CCCCC1', 'O=C1OC2CC1C1C3OC3C3(CO3)C1C2', 'O=C1CCCO1']

>  <name>  (993) 
Hyenanchin

>  <formula>  (993) 
C15H18O7

>  <SMILES>  (993) 
CC(=C)C1([C@@H]2[C@H]([C@]3([C@@]4(CO4)[C@H]5[C@@H]([C@]3([C@H]1C(=O)O2)O)O5)C)O)O

>  <ChEMBL_id>  (993) 


>  <ZINC_id>  (993) 


>  <PubChem_id>  (993) 
442276

>  <DrugBank_id>  (993) 


>  <CAS_no>  (993) 
3484-46-6

>  <references>  (993) 
[{'journal': {'name': 'Pharmacognosy Magazine', 'id': 77}, 'title': 'Investigation of the possible biological activities of a poisonous South African plant; Hyaenanche globosa (Euphorbiaceae)', 'year': 2010, 'start_page': None, 'volume': None, 'issue': None, 'doi': '10.4103/0973-1296.59964', 'isbn': '', 'despositor': {'code': 'TMM', 'first_name': 'Thommas', 'last_name': 'Musyoka', 'id': 22}, 'refauthors_set': [], 'id': 578}]

>  <classifications>  (993) 
[{'classification': 'Lactone', 'id': 919}, {'classification': 'Lactones (Classyfire)', 'id': 952}]

>  <molecular_mass>  (993) 
310.3

$$$$
SANC01115_minRM1.pdb
     RDKit          3D

 86 90  0  0  1  0  0  0  0  0999 V2000
    4.8660    2.7710   -1.4940 C   0  0  0  0  0  0  0  0  0  0  0  0
    4.8040    2.5950   -0.0170 C   0  0  0  0  0  0  0  0  0  0  0  0
    4.6690    3.6530    0.7810 C   0  0  0  0  0  0  0  0  0  0  0  0
    4.9120    1.2100    0.5420 C   0  0  2  0  0  0  0  0  0  0  0  0
    6.3320    0.6360    0.3090 C   0  0  0  0  0  0  0  0  0  0  0  0
    6.1560   -0.7920   -0.2310 C   0  0  0  0  0  0  0  0  0  0  0  0
    4.7130   -1.1510    0.1450 C   0  0  1  0  0  0  0  0  0  0  0  0
    3.9850    0.1810   -0.1160 C   0  0  1  0  0  0  0  0  0  0  0  0
    2.5460    0.0760    0.3750 C   0  0  1  0  0  0  0  0  0  0  0  0
    1.8200    1.4140    0.3060 C   0  0  0  0  0  0  0  0  0  0  0  0
    0.3900    1.2560    0.8130 C   0  0  0  0  0  0  0  0  0  0  0  0
   -0.3560    0.2220   -0.0320 C   0  0  2  0  0  0  0  0  0  0  0  0
   -1.8870    0.2400    0.2340 C   0  0  1  0  0  0  0  0  0  0  0  0
   -2.4420    1.6140   -0.2240 C   0  0  0  0  0  0  0  0  0  0  0  0
   -3.6330    1.5260   -1.1710 C   0  0  0  0  0  0  0  0  0  0  0  0
   -4.6710    0.5060   -0.6950 C   0  0  1  0  0  0  0  0  0  0  0  0
   -4.0660   -0.9230   -0.6050 C   0  0  1  0  0  0  0  0  0  0  0  0
   -2.5210   -0.8690   -0.6240 C   0  0  2  0  0  0  0  0  0  0  0  0
   -1.8970   -2.2180   -0.2840 C   0  0  0  0  0  0  0  0  0  0  0  0
   -0.4210   -2.2120   -0.6670 C   0  0  0  0  0  0  0  0  0  0  0  0
    0.3530   -1.1440    0.1130 C   0  0  1  0  0  0  0  0  0  0  0  0
    1.8060   -0.9990   -0.4560 C   0  0  2  0  0  0  0  0  0  0  0  0
    2.5680   -2.3360   -0.3580 C   0  0  0  0  0  0  0  0  0  0  0  0
    4.0510   -2.2200   -0.7140 C   0  0  0  0  0  0  0  0  0  0  0  0
    1.7720   -0.6070   -1.9380 C   0  0  0  0  0  0  0  0  0  0  0  0
    0.4220   -1.6020    1.5710 C   0  0  0  0  0  0  0  0  0  0  0  0
   -4.6380   -1.6860    0.5870 C   0  0  0  0  0  0  0  0  0  0  0  0
   -4.5130   -1.6800   -1.8690 C   0  0  0  0  0  0  0  0  0  0  0  0
   -5.0720    0.9810    0.5780 O   0  0  0  0  0  0  0  0  0  0  0  0
   -6.3680    0.8920    0.9630 C   0  0  0  0  0  0  0  0  0  0  0  0
   -7.2330    0.4530    0.2280 O   0  0  0  0  0  0  0  0  0  0  0  0
   -6.5480    1.4110    2.3550 C   0  0  0  0  0  0  0  0  0  0  0  0
   -2.1970    0.0710    1.7170 C   0  0  0  0  0  0  0  0  0  0  0  0
    4.6960   -1.5760    1.6130 C   0  0  0  0  0  0  0  0  0  0  0  0
    3.8580    2.7420   -1.9370 H   0  0  0  0  0  0  0  0  0  0  0  0
    5.4620    2.0020   -2.0070 H   0  0  0  0  0  0  0  0  0  0  0  0
    5.3050    3.7380   -1.7860 H   0  0  0  0  0  0  0  0  0  0  0  0
    4.6040    4.6740    0.4190 H   0  0  0  0  0  0  0  0  0  0  0  0
    4.6090    3.5980    1.8630 H   0  0  0  0  0  0  0  0  0  0  0  0
    4.6960    1.2400    1.6410 H   0  0  0  0  0  0  0  0  0  0  0  0
    6.9180    0.6460    1.2490 H   0  0  0  0  0  0  0  0  0  0  0  0
    6.9380    1.2560   -0.3790 H   0  0  0  0  0  0  0  0  0  0  0  0
    6.8990   -1.5000    0.1810 H   0  0  0  0  0  0  0  0  0  0  0  0
    6.3150   -0.8330   -1.3270 H   0  0  0  0  0  0  0  0  0  0  0  0
    3.9650    0.3730   -1.2230 H   0  0  0  0  0  0  0  0  0  0  0  0
    2.5750   -0.2450    1.4520 H   0  0  0  0  0  0  0  0  0  0  0  0
    1.8390    1.8380   -0.7190 H   0  0  0  0  0  0  0  0  0  0  0  0
    2.3540    2.1740    0.9170 H   0  0  0  0  0  0  0  0  0  0  0  0
   -0.1190    2.2410    0.8100 H   0  0  0  0  0  0  0  0  0  0  0  0
    0.4050    0.9620    1.8870 H   0  0  0  0  0  0  0  0  0  0  0  0
   -0.2470    0.5260   -1.1130 H   0  0  0  0  0  0  0  0  0  0  0  0
   -1.6660    2.2310   -0.7280 H   0  0  0  0  0  0  0  0  0  0  0  0
   -2.7270    2.2330    0.6530 H   0  0  0  0  0  0  0  0  0  0  0  0
   -3.3160    1.2690   -2.2040 H   0  0  0  0  0  0  0  0  0  0  0  0
   -4.1040    2.5280   -1.2780 H   0  0  0  0  0  0  0  0  0  0  0  0
   -5.5340    0.5130   -1.4180 H   0  0  0  0  0  0  0  0  0  0  0  0
   -2.2320   -0.6450   -1.6900 H   0  0  0  0  0  0  0  0  0  0  0  0
   -2.4150   -3.0400   -0.8270 H   0  0  0  0  0  0  0  0  0  0  0  0
   -2.0190   -2.4780    0.7890 H   0  0  0  0  0  0  0  0  0  0  0  0
    0.0070   -3.2210   -0.4810 H   0  0  0  0  0  0  0  0  0  0  0  0
   -0.3240   -2.0750   -1.7640 H   0  0  0  0  0  0  0  0  0  0  0  0
    2.4570   -2.7770    0.6570 H   0  0  0  0  0  0  0  0  0  0  0  0
    2.1060   -3.1000   -1.0210 H   0  0  0  0  0  0  0  0  0  0  0  0
    4.1820   -2.0020   -1.7950 H   0  0  0  0  0  0  0  0  0  0  0  0
    4.5550   -3.2010   -0.5840 H   0  0  0  0  0  0  0  0  0  0  0  0
    2.7080   -0.1290   -2.2740 H   0  0  0  0  0  0  0  0  0  0  0  0
    1.6260   -1.4650   -2.6110 H   0  0  0  0  0  0  0  0  0  0  0  0
    0.9720    0.1080   -2.1880 H   0  0  0  0  0  0  0  0  0  0  0  0
   -0.5480   -1.9760    1.9420 H   0  0  0  0  0  0  0  0  0  0  0  0
    0.7170   -0.8000    2.2670 H   0  0  0  0  0  0  0  0  0  0  0  0
    1.1370   -2.4270    1.7240 H   0  0  0  0  0  0  0  0  0  0  0  0
   -4.3130   -1.2740    1.5550 H   0  0  0  0  0  0  0  0  0  0  0  0
   -5.7380   -1.6770    0.5920 H   0  0  0  0  0  0  0  0  0  0  0  0
   -4.3600   -2.7500    0.5880 H   0  0  0  0  0  0  0  0  0  0  0  0
   -4.0450   -2.6730   -1.9430 H   0  0  0  0  0  0  0  0  0  0  0  0
   -4.2600   -1.1470   -2.7980 H   0  0  0  0  0  0  0  0  0  0  0  0
   -5.5990   -1.8510   -1.8950 H   0  0  0  0  0  0  0  0  0  0  0  0
   -7.6000    1.3550    2.6680 H   0  0  0  0  0  0  0  0  0  0  0  0
   -5.9510    0.8340    3.0760 H   0  0  0  0  0  0  0  0  0  0  0  0
   -6.2300    2.4610    2.4370 H   0  0  0  0  0  0  0  0  0  0  0  0
   -1.8300   -0.8760    2.1390 H   0  0  0  0  0  0  0  0  0  0  0  0
   -3.2780    0.0770    1.9280 H   0  0  0  0  0  0  0  0  0  0  0  0
   -1.7700    0.8700    2.3390 H   0  0  0  0  0  0  0  0  0  0  0  0
    4.9860   -2.6300    1.7370 H   0  0  0  0  0  0  0  0  0  0  0  0
    3.7050   -1.4600    2.0820 H   0  0  0  0  0  0  0  0  0  0  0  0
    5.3880   -0.9990    2.2430 H   0  0  0  0  0  0  0  0  0  0  0  0
  1 36  1  0
  1 35  1  0
  1 37  1  0
  1  2  1  0
  2  4  1  0
  2  3  2  0
  3 38  1  0
  3 39  1  0
  4  8  1  0
  4  5  1  0
  4 40  1  1
  5 42  1  0
  5  6  1  0
  5 41  1  0
  6 44  1  0
  6  7  1  0
  6 43  1  0
  7 24  1  0
  7  8  1  0
  7 34  1  1
  8 45  1  6
  8  9  1  0
  9 22  1  0
  9 10  1  0
  9 46  1  1
 10 47  1  0
 10 11  1  0
 10 48  1  0
 11 12  1  0
 11 49  1  0
 11 50  1  0
 12 51  1  6
 12 21  1  0
 12 13  1  0
 13 18  1  0
 13 14  1  0
 13 33  1  1
 14 15  1  0
 14 52  1  0
 14 53  1  0
 15 54  1  0
 15 55  1  0
 15 16  1  0
 16 56  1  6
 16 17  1  0
 16 29  1  0
 17 28  1  6
 17 18  1  0
 17 27  1  0
 18 57  1  6
 18 19  1  0
 19 58  1  0
 19 20  1  0
 19 59  1  0
 20 61  1  0
 20 60  1  0
 20 21  1  0
 21 22  1  0
 21 26  1  1
 22 25  1  6
 22 23  1  0
 23 63  1  0
 23 24  1  0
 23 62  1  0
 24 64  1  0
 24 65  1  0
 25 67  1  0
 25 66  1  0
 25 68  1  0
 26 71  1  0
 26 69  1  0
 26 70  1  0
 27 74  1  0
 27 73  1  0
 27 72  1  0
 28 76  1  0
 28 75  1  0
 28 77  1  0
 29 30  1  0
 30 31  2  0
 30 32  1  0
 32 80  1  0
 32 78  1  0
 32 79  1  0
 33 82  1  0
 33 81  1  0
 33 83  1  0
 34 84  1  0
 34 85  1  0
 34 86  1  0
M  END
>  <id>  (994) 
1115

>  <scaffolds>  (994) 
['C1CCC2C(C1)CCC1C2CCC2C3CCCC3CCC21', 'C1CCC(C2CCCC2)CC1', 'C1CCCCC1', 'C1CCC2C(C1)CCC1C3CCCC3CCC21', 'C1CCC2CCCCC2C1']

>  <name>  (994) 
Lupeol acetate

>  <formula>  (994) 
C32H52O2

>  <SMILES>  (994) 
CC(=C)[C@@H]1CC[C@]2([C@H]1[C@H]3CC[C@@H]4[C@]5(CC[C@@H](C([C@@H]5CC[C@]4([C@@]3(CC2)C)C)(C)C)OC(=O)C)C)C

>  <ChEMBL_id>  (994) 
CHEMBL453802

>  <ZINC_id>  (994) 
ZINC4097722

>  <PubChem_id>  (994) 
92157

>  <DrugBank_id>  (994) 


>  <CAS_no>  (994) 
1617-68-1

>  <references>  (994) 
[{'journal': {'name': 'African Journal of Traditional, Complementary and Alternative Medicines', 'id': 78}, 'title': 'Antibacterial and anti-biofilm activity of flavonoids and triterpenes isolated from the extracts of Ficus sansibarica Warb. subsp. sansibarica (Moraceae) extracts', 'year': 2014, 'start_page': None, 'volume': None, 'issue': None, 'doi': '10.4314/ajtcam.v11i3.19', 'isbn': '', 'despositor': {'code': 'TMM', 'first_name': 'Thommas', 'last_name': 'Musyoka', 'id': 22}, 'refauthors_set': [{'author': {'first_name': 'Gbonjubola', 'initials': 'GA', 'last_name': 'Awolola', 'id': 1087}, 'first_author': True, 'id': 1669}], 'id': 579}]

>  <classifications>  (994) 
[{'classification': 'Triterpene', 'id': 842}, {'classification': 'Phenol lipids (Classyfire)', 'id': 951}]

>  <molecular_mass>  (994) 
468.8

$$$$
SANC01116_minRM1.pdb
     RDKit          3D

 82 86  0  0  1  0  0  0  0  0999 V2000
   -3.6170    2.3820    1.6170 C   0  0  0  0  0  0  0  0  0  0  0  0
   -3.0370    1.8390    0.3100 C   0  0  2  0  0  0  0  0  0  0  0  0
   -4.1710    1.3450   -0.5940 C   0  0  0  0  0  0  0  0  0  0  0  0
   -5.1590    0.4440    0.0680 C   0  0  0  0  0  0  0  0  0  0  0  0
   -6.2040   -0.0340   -0.6050 C   0  0  0  0  0  0  0  0  0  0  0  0
   -7.2100   -0.9590    0.0260 C   0  0  1  0  0  0  0  0  0  0  0  0
   -6.5480   -2.3000    0.3630 C   0  0  0  0  0  0  0  0  0  0  0  0
   -7.8190   -0.3200    1.2800 C   0  0  0  0  0  0  0  0  0  0  0  0
   -8.2240   -1.2820   -0.8850 O   0  0  0  0  0  0  0  0  0  0  0  0
   -1.9180    0.8300    0.6020 C   0  0  1  0  0  0  0  0  0  0  0  0
   -2.2800   -0.6680    0.5460 C   0  0  0  0  0  0  0  0  0  0  0  0
   -1.0340   -1.4150    0.0290 C   0  0  0  0  0  0  0  0  0  0  0  0
    0.0840   -0.3670    0.0540 C   0  0  2  0  0  0  0  0  0  0  0  0
   -0.6950    0.9180   -0.3390 C   0  0  2  0  0  0  0  0  0  0  0  0
    0.2310    2.1100   -0.1410 C   0  0  0  0  0  0  0  0  0  0  0  0
    1.4780    1.9490   -1.0120 C   0  0  0  0  0  0  0  0  0  0  0  0
    2.1700    0.6090   -0.8890 C   0  0  2  0  0  0  0  0  0  0  0  0
    1.2310   -0.5730   -0.9370 C   0  0  1  0  0  0  0  0  0  0  0  0
    1.9750   -1.8940   -0.7870 C   0  0  0  0  0  0  0  0  0  0  0  0
    2.9290   -1.9810    0.3920 C   0  0  0  0  0  0  0  0  0  0  0  0
    3.8270   -0.7670    0.6390 C   0  0  2  0  0  0  0  0  0  0  0  0
    3.4900    0.4820   -0.1390 C   0  0  1  0  0  0  0  0  0  0  0  0
    3.4760    0.4670   -1.6510 C   0  0  0  0  0  0  0  0  0  0  0  0
    4.0860    1.6950    0.5440 C   0  0  0  0  0  0  0  0  0  0  0  0
    5.4460    1.3700    1.1620 C   0  0  0  0  0  0  0  0  0  0  0  0
    6.1470    0.2510    0.3740 C   0  0  1  0  0  0  0  0  0  0  0  0
    5.3330   -1.0740    0.4510 C   0  0  2  0  0  0  0  0  0  0  0  0
    5.5840   -1.9290   -0.7890 C   0  0  0  0  0  0  0  0  0  0  0  0
    5.8350   -1.8530    1.6730 C   0  0  0  0  0  0  0  0  0  0  0  0
    6.2750    0.5930   -0.9760 O   0  0  0  0  0  0  0  0  0  0  0  0
   -1.1830    0.8980   -1.7890 C   0  0  0  0  0  0  0  0  0  0  0  0
    0.6160   -0.2890    1.4850 C   0  0  0  0  0  0  0  0  0  0  0  0
   -2.8990    3.0190    2.1540 H   0  0  0  0  0  0  0  0  0  0  0  0
   -4.5110    3.0000    1.4470 H   0  0  0  0  0  0  0  0  0  0  0  0
   -3.9100    1.5910    2.3220 H   0  0  0  0  0  0  0  0  0  0  0  0
   -2.5700    2.7130   -0.2200 H   0  0  0  0  0  0  0  0  0  0  0  0
   -4.7160    2.2270   -1.0020 H   0  0  0  0  0  0  0  0  0  0  0  0
   -3.7480    0.8480   -1.4980 H   0  0  0  0  0  0  0  0  0  0  0  0
   -4.9880    0.1920    1.1190 H   0  0  0  0  0  0  0  0  0  0  0  0
   -6.3590    0.2070   -1.6620 H   0  0  0  0  0  0  0  0  0  0  0  0
   -7.2630   -3.0110    0.8000 H   0  0  0  0  0  0  0  0  0  0  0  0
   -5.7280   -2.1760    1.0830 H   0  0  0  0  0  0  0  0  0  0  0  0
   -6.1270   -2.7810   -0.5310 H   0  0  0  0  0  0  0  0  0  0  0  0
   -8.1990    0.6930    1.0870 H   0  0  0  0  0  0  0  0  0  0  0  0
   -7.0930   -0.2350    2.0990 H   0  0  0  0  0  0  0  0  0  0  0  0
   -8.6610   -0.9120    1.6680 H   0  0  0  0  0  0  0  0  0  0  0  0
   -8.6970   -0.4730   -1.1030 H   0  0  0  0  0  0  0  0  0  0  0  0
   -1.5460    1.0460    1.6430 H   0  0  0  0  0  0  0  0  0  0  0  0
   -2.5870   -1.0320    1.5470 H   0  0  0  0  0  0  0  0  0  0  0  0
   -3.1430   -0.9100   -0.0990 H   0  0  0  0  0  0  0  0  0  0  0  0
   -1.1940   -1.8170   -0.9910 H   0  0  0  0  0  0  0  0  0  0  0  0
   -0.8080   -2.3130    0.6360 H   0  0  0  0  0  0  0  0  0  0  0  0
   -0.2780    3.0660   -0.3890 H   0  0  0  0  0  0  0  0  0  0  0  0
    0.5090    2.2450    0.9250 H   0  0  0  0  0  0  0  0  0  0  0  0
    2.1740    2.7890   -0.8010 H   0  0  0  0  0  0  0  0  0  0  0  0
    1.2170    2.1020   -2.0830 H   0  0  0  0  0  0  0  0  0  0  0  0
    0.7910   -0.5880   -1.9770 H   0  0  0  0  0  0  0  0  0  0  0  0
    2.5350   -2.1060   -1.7260 H   0  0  0  0  0  0  0  0  0  0  0  0
    1.2440   -2.7300   -0.7290 H   0  0  0  0  0  0  0  0  0  0  0  0
    2.3370   -2.1780    1.3180 H   0  0  0  0  0  0  0  0  0  0  0  0
    3.5310   -2.9120    0.2840 H   0  0  0  0  0  0  0  0  0  0  0  0
    3.6670   -0.5150    1.7250 H   0  0  0  0  0  0  0  0  0  0  0  0
    3.8790    1.3150   -2.2150 H   0  0  0  0  0  0  0  0  0  0  0  0
    3.7360   -0.4500   -2.1930 H   0  0  0  0  0  0  0  0  0  0  0  0
    3.3870    2.0730    1.3220 H   0  0  0  0  0  0  0  0  0  0  0  0
    4.1960    2.5420   -0.1660 H   0  0  0  0  0  0  0  0  0  0  0  0
    6.0810    2.2800    1.2050 H   0  0  0  0  0  0  0  0  0  0  0  0
    5.3480    1.0750    2.2270 H   0  0  0  0  0  0  0  0  0  0  0  0
    7.1780    0.0870    0.7990 H   0  0  0  0  0  0  0  0  0  0  0  0
    5.0900   -1.5210   -1.6860 H   0  0  0  0  0  0  0  0  0  0  0  0
    5.2040   -2.9560   -0.6650 H   0  0  0  0  0  0  0  0  0  0  0  0
    6.6540   -2.0140   -1.0240 H   0  0  0  0  0  0  0  0  0  0  0  0
    5.2270   -2.7440    1.8830 H   0  0  0  0  0  0  0  0  0  0  0  0
    6.8670   -2.2130    1.5420 H   0  0  0  0  0  0  0  0  0  0  0  0
    5.8290   -1.2550    2.5950 H   0  0  0  0  0  0  0  0  0  0  0  0
    6.6010    1.4970   -1.0210 H   0  0  0  0  0  0  0  0  0  0  0  0
   -2.1130    0.3230   -1.9320 H   0  0  0  0  0  0  0  0  0  0  0  0
   -1.3980    1.9060   -2.1730 H   0  0  0  0  0  0  0  0  0  0  0  0
   -0.4570    0.4560   -2.4910 H   0  0  0  0  0  0  0  0  0  0  0  0
   -0.1510    0.0320    2.2080 H   0  0  0  0  0  0  0  0  0  0  0  0
    1.4550    0.4090    1.6020 H   0  0  0  0  0  0  0  0  0  0  0  0
    0.9780   -1.2670    1.8440 H   0  0  0  0  0  0  0  0  0  0  0  0
  1  2  1  0
  1 34  1  0
  1 33  1  0
  1 35  1  0
  2  3  1  0
  2 36  1  6
  2 10  1  0
  3 38  1  0
  3 37  1  0
  3  4  1  0
  4  5  2  0
  4 39  1  0
  5 40  1  0
  5  6  1  0
  6  9  1  6
  6  7  1  0
  6  8  1  0
  7 43  1  0
  7 41  1  0
  7 42  1  0
  8 44  1  0
  8 46  1  0
  8 45  1  0
  9 47  1  0
 10 14  1  0
 10 11  1  0
 10 48  1  1
 11 50  1  0
 11 12  1  0
 11 49  1  0
 12 51  1  0
 12 13  1  0
 12 52  1  0
 13 18  1  0
 13 14  1  0
 13 32  1  1
 14 31  1  6
 14 15  1  0
 15 16  1  0
 15 53  1  0
 15 54  1  0
 16 56  1  0
 16 55  1  0
 17 16  1  6
 17 23  1  0
 17 18  1  0
 17 22  1  0
 18 57  1  6
 18 19  1  0
 19 58  1  0
 19 59  1  0
 19 20  1  0
 20 61  1  0
 20 21  1  0
 20 60  1  0
 21 22  1  0
 21 27  1  0
 21 62  1  1
 22 23  1  6
 22 24  1  0
 23 63  1  0
 23 64  1  0
 24 66  1  0
 24 25  1  0
 24 65  1  0
 25 26  1  0
 25 67  1  0
 25 68  1  0
 26 30  1  0
 26 27  1  0
 26 69  1  1
 27 28  1  6
 27 29  1  0
 28 70  1  0
 28 72  1  0
 28 71  1  0
 29 74  1  0
 29 73  1  0
 29 75  1  0
 30 76  1  0
 31 79  1  0
 31 78  1  0
 31 77  1  0
 32 81  1  0
 32 82  1  0
 32 80  1  0
M  END
>  <id>  (995) 
1116

>  <scaffolds>  (995) 
['C1CCC(C2CCCC2)CC1', 'C1CCCCC1', 'C1CC2CCC34CC35CCCCC5CCC4C2C1', 'C1CCC2C(C1)CCC1C3CCCC3CCC21', 'C1CCC2CCCCC2C1']

>  <name>  (995) 
Cycloart-23-ene-3,25-diol 

>  <formula>  (995) 
C30H50O2

>  <SMILES>  (995) 
C[C@H](C/C=C/C(C)(C)O)[C@H]1CC[C@@]2([C@@]1(CC[C@]34[C@H]2CC[C@@H]5[C@]3(C4)CC[C@@H](C5(C)C)O)C)C

>  <ChEMBL_id>  (995) 
CHEMBL1641872

>  <ZINC_id>  (995) 
ZINC5922906

>  <PubChem_id>  (995) 
5470009

>  <DrugBank_id>  (995) 


>  <CAS_no>  (995) 
54482-57-4

>  <references>  (995) 
[{'journal': {'name': 'African Journal of Traditional, Complementary and Alternative Medicines', 'id': 78}, 'title': 'Antibacterial and anti-biofilm activity of flavonoids and triterpenes isolated from the extracts of Ficus sansibarica Warb. subsp. sansibarica (Moraceae) extracts', 'year': 2014, 'start_page': None, 'volume': None, 'issue': None, 'doi': '10.4314/ajtcam.v11i3.19', 'isbn': '', 'despositor': {'code': 'TMM', 'first_name': 'Thommas', 'last_name': 'Musyoka', 'id': 22}, 'refauthors_set': [{'author': {'first_name': 'Gbonjubola', 'initials': 'GA', 'last_name': 'Awolola', 'id': 1087}, 'first_author': True, 'id': 1669}], 'id': 579}]

>  <classifications>  (995) 
[{'classification': 'Triterpene', 'id': 842}, {'classification': 'Steroids and steroid derivatives (Classyfire)', 'id': 942}]

>  <molecular_mass>  (995) 
442.7

$$$$
SANC01117_minRM1.pdb
     RDKit          3D

 36 38  0  0  0  0  0  0  0  0999 V2000
   -6.9960   -0.5160    0.4940 C   0  0  0  0  0  0  0  0  0  0  0  0
   -6.1990    0.3150   -0.3110 O   0  0  0  0  0  0  0  0  0  0  0  0
   -4.8460    0.2220   -0.1600 C   0  0  0  0  0  0  0  0  0  0  0  0
   -4.1290    0.9580   -1.1140 C   0  0  0  0  0  0  0  0  0  0  0  0
   -2.7470    0.9540   -1.0610 C   0  0  0  0  0  0  0  0  0  0  0  0
   -2.0810    0.2300   -0.0700 C   0  0  0  0  0  0  0  0  0  0  0  0
   -2.8040   -0.4950    0.8700 C   0  0  0  0  0  0  0  0  0  0  0  0
   -4.1950   -0.5030    0.8340 C   0  0  0  0  0  0  0  0  0  0  0  0
   -0.6260    0.2390   -0.0370 C   0  0  0  0  0  0  0  0  0  0  0  0
    0.0400    1.4040   -0.1130 C   0  0  0  0  0  0  0  0  0  0  0  0
    1.3950    1.5230   -0.1260 O   0  0  0  0  0  0  0  0  0  0  0  0
    2.1240    0.3720   -0.1300 C   0  0  0  0  0  0  0  0  0  0  0  0
    1.5570   -0.8950   -0.0360 C   0  0  0  0  0  0  0  0  0  0  0  0
    0.1000   -1.0330    0.0570 C   0  0  0  0  0  0  0  0  0  0  0  0
   -0.4490   -2.1130    0.1980 O   0  0  0  0  0  0  0  0  0  0  0  0
    2.3930   -2.0180   -0.0450 C   0  0  0  0  0  0  0  0  0  0  0  0
    3.7630   -1.8830   -0.1520 C   0  0  0  0  0  0  0  0  0  0  0  0
    4.3250   -0.5980   -0.2480 C   0  0  0  0  0  0  0  0  0  0  0  0
    3.5110    0.5370   -0.2260 C   0  0  0  0  0  0  0  0  0  0  0  0
    4.0690    1.7710   -0.4150 O   0  0  0  0  0  0  0  0  0  0  0  0
    4.1720    2.5050    0.7870 C   0  0  0  0  0  0  0  0  0  0  0  0
    5.6670   -0.5550   -0.3540 O   0  0  0  0  0  0  0  0  0  0  0  0
   -8.0170   -0.3240    0.1310 H   0  0  0  0  0  0  0  0  0  0  0  0
   -6.9490   -0.2540    1.5640 H   0  0  0  0  0  0  0  0  0  0  0  0
   -6.7740   -1.5890    0.3740 H   0  0  0  0  0  0  0  0  0  0  0  0
   -4.6570    1.5200   -1.8890 H   0  0  0  0  0  0  0  0  0  0  0  0
   -2.1780    1.5120   -1.8110 H   0  0  0  0  0  0  0  0  0  0  0  0
   -2.2860   -1.0650    1.6490 H   0  0  0  0  0  0  0  0  0  0  0  0
   -4.7340   -1.0820    1.5860 H   0  0  0  0  0  0  0  0  0  0  0  0
   -0.3910    2.4090   -0.1680 H   0  0  0  0  0  0  0  0  0  0  0  0
    1.9460   -3.0180    0.0300 H   0  0  0  0  0  0  0  0  0  0  0  0
    4.4150   -2.7610   -0.1660 H   0  0  0  0  0  0  0  0  0  0  0  0
    4.8250    2.0170    1.5300 H   0  0  0  0  0  0  0  0  0  0  0  0
    4.6260    3.4580    0.4770 H   0  0  0  0  0  0  0  0  0  0  0  0
    3.2000    2.7110    1.2610 H   0  0  0  0  0  0  0  0  0  0  0  0
    5.9540    0.3540   -0.5140 H   0  0  0  0  0  0  0  0  0  0  0  0
  1  2  1  0
  1 23  1  0
  1 25  1  0
  1 24  1  0
  2  3  1  0
  3  4  2  0
  3  8  1  0
  4 26  1  0
  4  5  1  0
  5 27  1  0
  5  6  2  0
  6  9  1  0
  6  7  1  0
  7  8  2  0
  7 28  1  0
  8 29  1  0
  9 10  2  0
  9 14  1  0
 10 30  1  0
 10 11  1  0
 11 12  1  0
 12 19  2  0
 12 13  1  0
 13 16  2  0
 13 14  1  0
 14 15  2  0
 16 17  1  0
 16 31  1  0
 17 18  2  0
 17 32  1  0
 18 22  1  0
 18 19  1  0
 19 20  1  0
 20 21  1  0
 21 34  1  0
 21 35  1  0
 21 33  1  0
 22 36  1  0
M  END
>  <id>  (996) 
1117

>  <scaffolds>  (996) 
['c1ccccc1', 'O=c1c(-c2ccccc2)coc2ccccc12', 'O=c1ccoc2ccccc12']

>  <name>  (996) 
Isoafrormosin

>  <formula>  (996) 
C17H14O5

>  <SMILES>  (996) 
COC1=CC=C(C=C1)C2=COC3=C(C2=O)C=CC(=C3OC)O

>  <ChEMBL_id>  (996) 
SCHEMBL4293075

>  <ZINC_id>  (996) 


>  <PubChem_id>  (996) 
5319771

>  <DrugBank_id>  (996) 


>  <CAS_no>  (996) 
37816-20-9

>  <references>  (996) 
[{'journal': {'name': 'African Journal of Traditional, Complementary and Alternative Medicines', 'id': 78}, 'title': 'Isoflavones from Calpurnia aurea subsp. aurea and their anticancer activity', 'year': 2014, 'start_page': None, 'volume': None, 'issue': None, 'doi': '10.4314/ajtcam.v11i5.5', 'isbn': '', 'despositor': {'code': 'TMM', 'first_name': 'Thommas', 'last_name': 'Musyoka', 'id': 22}, 'refauthors_set': [{'author': {'first_name': 'Erick', 'initials': 'EK', 'last_name': 'Korir', 'id': 1088}, 'first_author': True, 'id': 1670}], 'id': 580}]

>  <classifications>  (996) 
[{'classification': 'Isoflavones', 'id': 892}, {'classification': 'Isoflavonoids (Classyfire)', 'id': 963}]

>  <molecular_mass>  (996) 
298.29

$$$$
SANC01118_minRM1.pdb
     RDKit          3D

 33 35  0  0  0  0  0  0  0  0999 V2000
    5.4910    2.0870   -0.6080 C   0  0  0  0  0  0  0  0  0  0  0  0
    4.0930    1.9640   -0.6870 O   0  0  0  0  0  0  0  0  0  0  0  0
    3.5420    0.7780   -0.3050 C   0  0  0  0  0  0  0  0  0  0  0  0
    2.1390    0.7710   -0.3850 C   0  0  0  0  0  0  0  0  0  0  0  0
    1.4610   -0.3840   -0.0350 C   0  0  0  0  0  0  0  0  0  0  0  0
    2.1430   -1.5260    0.3900 C   0  0  0  0  0  0  0  0  0  0  0  0
    3.5320   -1.4770    0.4610 C   0  0  0  0  0  0  0  0  0  0  0  0
    4.2610   -0.3340    0.1130 C   0  0  0  0  0  0  0  0  0  0  0  0
    4.2860   -2.5310    0.8600 O   0  0  0  0  0  0  0  0  0  0  0  0
    0.0060   -0.4250   -0.1280 C   0  0  0  0  0  0  0  0  0  0  0  0
   -0.5970   -1.4420   -0.7670 C   0  0  0  0  0  0  0  0  0  0  0  0
   -1.9400   -1.5780   -0.9110 O   0  0  0  0  0  0  0  0  0  0  0  0
   -2.7390   -0.6040   -0.3810 C   0  0  0  0  0  0  0  0  0  0  0  0
   -2.2300    0.5010    0.3000 C   0  0  0  0  0  0  0  0  0  0  0  0
   -0.7840    0.6500    0.4820 C   0  0  0  0  0  0  0  0  0  0  0  0
   -0.2900    1.5820    1.0950 O   0  0  0  0  0  0  0  0  0  0  0  0
   -3.1240    1.4510    0.8010 C   0  0  0  0  0  0  0  0  0  0  0  0
   -4.4870    1.2940    0.6270 C   0  0  0  0  0  0  0  0  0  0  0  0
   -4.9630    0.1650   -0.0580 C   0  0  0  0  0  0  0  0  0  0  0  0
   -4.1060   -0.8050   -0.5750 C   0  0  0  0  0  0  0  0  0  0  0  0
   -6.2790   -0.0640   -0.2650 O   0  0  0  0  0  0  0  0  0  0  0  0
    5.6750    3.1200   -0.9410 H   0  0  0  0  0  0  0  0  0  0  0  0
    6.0250    1.3980   -1.2830 H   0  0  0  0  0  0  0  0  0  0  0  0
    5.8830    1.9700    0.4150 H   0  0  0  0  0  0  0  0  0  0  0  0
    1.6020    1.6690   -0.7060 H   0  0  0  0  0  0  0  0  0  0  0  0
    1.5900   -2.4220    0.6810 H   0  0  0  0  0  0  0  0  0  0  0  0
    5.3500   -0.3550    0.1860 H   0  0  0  0  0  0  0  0  0  0  0  0
    3.7020   -3.2510    1.1250 H   0  0  0  0  0  0  0  0  0  0  0  0
   -0.1100   -2.2900   -1.2630 H   0  0  0  0  0  0  0  0  0  0  0  0
   -2.7360    2.3270    1.3360 H   0  0  0  0  0  0  0  0  0  0  0  0
   -5.1760    2.0450    1.0210 H   0  0  0  0  0  0  0  0  0  0  0  0
   -4.4880   -1.6800   -1.1070 H   0  0  0  0  0  0  0  0  0  0  0  0
   -6.7920    0.6550    0.1230 H   0  0  0  0  0  0  0  0  0  0  0  0
  1 23  1  0
  1 22  1  0
  1  2  1  0
  1 24  1  0
  2  3  1  0
  3  4  2  0
  3  8  1  0
  4 25  1  0
  4  5  1  0
  5 10  1  0
  5  6  2  0
  6  7  1  0
  6 26  1  0
  7  8  2  0
  7  9  1  0
  8 27  1  0
  9 28  1  0
 10 11  2  0
 10 15  1  0
 11 29  1  0
 11 12  1  0
 12 13  1  0
 13 20  2  0
 13 14  1  0
 14 15  1  0
 14 17  2  0
 15 16  2  0
 17 18  1  0
 17 30  1  0
 18 19  2  0
 18 31  1  0
 19 20  1  0
 19 21  1  0
 20 32  1  0
 21 33  1  0
M  END
>  <id>  (997) 
1118

>  <scaffolds>  (997) 
['c1ccccc1', 'O=c1c(-c2ccccc2)coc2ccccc12', 'O=c1ccoc2ccccc12']

>  <name>  (997) 
7,3'-dihydroxy-5'-methoxyisoflavone

>  <formula>  (997) 
C16H12O5

>  <SMILES>  (997) 
COC1=CC(=CC(=C1)O)C2=COC3=C(C2=O)C=CC(=C3)O

>  <ChEMBL_id>  (997) 
SCHEMBL571450

>  <ZINC_id>  (997) 
ZINC59588158

>  <PubChem_id>  (997) 
66728338

>  <DrugBank_id>  (997) 


>  <CAS_no>  (997) 
947611-61-2

>  <references>  (997) 
[{'journal': {'name': 'African Journal of Traditional, Complementary and Alternative Medicines', 'id': 78}, 'title': 'Isoflavones from Calpurnia aurea subsp. aurea and their anticancer activity', 'year': 2014, 'start_page': None, 'volume': None, 'issue': None, 'doi': '10.4314/ajtcam.v11i5.5', 'isbn': '', 'despositor': {'code': 'TMM', 'first_name': 'Thommas', 'last_name': 'Musyoka', 'id': 22}, 'refauthors_set': [{'author': {'first_name': 'Erick', 'initials': 'EK', 'last_name': 'Korir', 'id': 1088}, 'first_author': True, 'id': 1670}], 'id': 580}]

>  <classifications>  (997) 
[{'classification': 'Isoflavones', 'id': 892}, {'classification': 'Isoflavonoids (Classyfire)', 'id': 963}]

>  <molecular_mass>  (997) 
284.26

$$$$
SANC01119_minRM1.pdb
     RDKit          3D

 50 53  0  0  1  0  0  0  0  0999 V2000
   -1.7580   -0.9680    0.9090 C   0  0  0  0  0  0  0  0  0  0  0  0
   -0.9570   -1.1750   -0.3800 C   0  0  1  0  0  0  0  0  0  0  0  0
   -1.2940   -0.0380   -1.3730 C   0  0  1  0  0  0  0  0  0  0  0  0
   -2.6530   -0.1150   -1.7310 O   0  0  0  0  0  0  0  0  0  0  0  0
   -3.5520   -0.3660   -0.7400 C   0  0  0  0  0  0  0  0  0  0  0  0
   -4.8830   -0.1950   -1.1260 C   0  0  0  0  0  0  0  0  0  0  0  0
   -5.8680   -0.4640   -0.1770 C   0  0  0  0  0  0  0  0  0  0  0  0
   -5.5630   -0.8760    1.1220 C   0  0  0  0  0  0  0  0  0  0  0  0
   -4.2170   -1.0310    1.4560 C   0  0  0  0  0  0  0  0  0  0  0  0
   -3.1870   -0.7950    0.5390 C   0  0  0  0  0  0  0  0  0  0  0  0
   -3.8260   -1.4180    2.6930 O   0  0  0  0  0  0  0  0  0  0  0  0
   -7.1390   -0.2870   -0.6050 O   0  0  0  0  0  0  0  0  0  0  0  0
   -0.9200    1.3100   -0.8250 C   0  0  0  0  0  0  0  0  0  0  0  0
    0.4120    1.7000   -0.9450 C   0  0  0  0  0  0  0  0  0  0  0  0
    0.8180    2.9280   -0.4350 C   0  0  0  0  0  0  0  0  0  0  0  0
   -0.1090    3.7880    0.1720 C   0  0  0  0  0  0  0  0  0  0  0  0
   -1.4470    3.4030    0.2650 C   0  0  0  0  0  0  0  0  0  0  0  0
   -1.8410    2.1670   -0.2310 C   0  0  0  0  0  0  0  0  0  0  0  0
    0.1920    5.0070    0.6760 O   0  0  0  0  0  0  0  0  0  0  0  0
    2.0930    3.3930   -0.5560 O   0  0  0  0  0  0  0  0  0  0  0  0
    0.3990   -1.1020    0.0050 O   0  0  0  0  0  0  0  0  0  0  0  0
    1.3370   -1.5680   -0.8580 C   0  0  0  0  0  0  0  0  0  0  0  0
    1.0170   -2.0540   -1.9280 O   0  0  0  0  0  0  0  0  0  0  0  0
    2.7110   -1.4140   -0.3440 C   0  0  0  0  0  0  0  0  0  0  0  0
    3.6520   -2.3580   -0.7500 C   0  0  0  0  0  0  0  0  0  0  0  0
    4.9640   -2.2250   -0.3060 C   0  0  0  0  0  0  0  0  0  0  0  0
    5.3390   -1.1640    0.5300 C   0  0  0  0  0  0  0  0  0  0  0  0
    4.3710   -0.2270    0.9160 C   0  0  0  0  0  0  0  0  0  0  0  0
    3.0450   -0.3540    0.4850 C   0  0  0  0  0  0  0  0  0  0  0  0
    4.6280    0.8590    1.6780 O   0  0  0  0  0  0  0  0  0  0  0  0
    6.6080   -0.9360    0.9510 O   0  0  0  0  0  0  0  0  0  0  0  0
    5.9590   -3.0910   -0.6240 O   0  0  0  0  0  0  0  0  0  0  0  0
   -1.4010   -0.0850    1.4820 H   0  0  0  0  0  0  0  0  0  0  0  0
   -1.6080   -1.8300    1.5940 H   0  0  0  0  0  0  0  0  0  0  0  0
   -1.2090   -2.1700   -0.8400 H   0  0  0  0  0  0  0  0  0  0  0  0
   -0.8010   -0.2060   -2.3680 H   0  0  0  0  0  0  0  0  0  0  0  0
   -5.1430    0.1320   -2.1360 H   0  0  0  0  0  0  0  0  0  0  0  0
   -6.3520   -1.0710    1.8520 H   0  0  0  0  0  0  0  0  0  0  0  0
   -4.6070   -1.5790    3.2350 H   0  0  0  0  0  0  0  0  0  0  0  0
   -7.7480   -0.4920    0.1140 H   0  0  0  0  0  0  0  0  0  0  0  0
    1.1430    1.0530   -1.4410 H   0  0  0  0  0  0  0  0  0  0  0  0
   -2.1760    4.0750    0.7280 H   0  0  0  0  0  0  0  0  0  0  0  0
   -2.8980    1.8980   -0.1450 H   0  0  0  0  0  0  0  0  0  0  0  0
    1.1410    5.1630    0.6020 H   0  0  0  0  0  0  0  0  0  0  0  0
    2.6890    2.6450   -0.4280 H   0  0  0  0  0  0  0  0  0  0  0  0
    3.3580   -3.1770   -1.4150 H   0  0  0  0  0  0  0  0  0  0  0  0
    2.2950    0.3740    0.8140 H   0  0  0  0  0  0  0  0  0  0  0  0
    5.5200    0.8010    2.0430 H   0  0  0  0  0  0  0  0  0  0  0  0
    7.0700   -1.7810    1.0130 H   0  0  0  0  0  0  0  0  0  0  0  0
    5.5970   -3.7850   -1.1880 H   0  0  0  0  0  0  0  0  0  0  0  0
  1  2  1  0
  1 10  1  0
  1 33  1  0
  1 34  1  0
  2  3  1  0
  2 35  1  6
  2 21  1  0
  3 36  1  6
  3  4  1  0
  3 13  1  0
  4  5  1  0
  5  6  2  0
  5 10  1  0
  6 37  1  0
  6  7  1  0
  7 12  1  0
  7  8  2  0
  8  9  1  0
  8 38  1  0
  9 10  2  0
  9 11  1  0
 11 39  1  0
 12 40  1  0
 13 14  2  0
 13 18  1  0
 14 41  1  0
 14 15  1  0
 15 20  1  0
 15 16  2  0
 16 17  1  0
 16 19  1  0
 17 18  2  0
 17 42  1  0
 18 43  1  0
 19 44  1  0
 20 45  1  0
 21 22  1  0
 22 23  2  0
 22 24  1  0
 24 25  2  0
 24 29  1  0
 25 46  1  0
 25 26  1  0
 26 32  1  0
 26 27  2  0
 27 28  1  0
 27 31  1  0
 28 29  2  0
 28 30  1  0
 29 47  1  0
 30 48  1  0
 31 49  1  0
 32 50  1  0
M  END
>  <id>  (998) 
1119

>  <scaffolds>  (998) 
['c1ccccc1', 'c1ccc(C2CCc3ccccc3O2)cc1', 'O=C(OC1Cc2ccccc2OC1c1ccccc1)c1ccccc1', 'O=C(OCCc1ccccc1)c1ccccc1']

>  <name>  (998) 
(+)-epicatechin-3-o-gallate

>  <formula>  (998) 
C22H18O10

>  <SMILES>  (998) 
C1[C@@H]([C@@H](OC2=CC(=CC(=C21)O)O)C3=CC(=C(C=C3)O)O)OC(=O)C4=CC(=C(C(=C4)O)O)O

>  <ChEMBL_id>  (998) 
SCHEMBL4639313

>  <ZINC_id>  (998) 
ZINC4544252

>  <PubChem_id>  (998) 
65056

>  <DrugBank_id>  (998) 


>  <CAS_no>  (998) 
863-03-6

>  <references>  (998) 
[{'journal': {'name': 'Journal of Medicinal Plants Research', 'id': 42}, 'title': 'Flavonoids from the rhizomes of Elephantorrhiza elephantina and Pentanisia prunelloides.', 'year': 2015, 'start_page': None, 'volume': None, 'issue': None, 'doi': '10.5897/JMPR2014.5297', 'isbn': '', 'despositor': {'code': 'BND', 'first_name': "Bakary N'tji", 'last_name': 'Diallo', 'id': 26}, 'refauthors_set': [{'author': {'first_name': ' S. J.', 'initials': 'JSM', 'last_name': 'Mpofu', 'id': 1089}, 'first_author': True, 'id': 1671}], 'id': 581}]

>  <classifications>  (998) 
[{'classification': 'Flavonoids', 'id': 776}, {'classification': 'Flavonoids (Classyfire)', 'id': 941}]

>  <molecular_mass>  (998) 
442.4

$$$$
SANC01120_minRM1.pdb
     RDKit          3D

 37 39  0  0  0  0  0  0  0  0999 V2000
   -7.3110    0.3210    0.5240 C   0  0  0  0  0  0  0  0  0  0  0  0
   -6.3250    1.0180   -0.1970 O   0  0  0  0  0  0  0  0  0  0  0  0
   -5.0440    0.5670   -0.1080 C   0  0  0  0  0  0  0  0  0  0  0  0
   -4.6220   -0.5210    0.6520 C   0  0  0  0  0  0  0  0  0  0  0  0
   -3.2750   -0.8640    0.6430 C   0  0  0  0  0  0  0  0  0  0  0  0
   -2.3690   -0.1310   -0.1160 C   0  0  0  0  0  0  0  0  0  0  0  0
   -2.8010    0.9630   -0.8700 C   0  0  0  0  0  0  0  0  0  0  0  0
   -4.1370    1.3170   -0.8730 C   0  0  0  0  0  0  0  0  0  0  0  0
   -0.9650   -0.5330   -0.1190 C   0  0  0  0  0  0  0  0  0  0  0  0
   -0.5230   -1.7970   -0.2030 C   0  0  0  0  0  0  0  0  0  0  0  0
    0.9080   -2.1030   -0.1810 C   0  0  0  0  0  0  0  0  0  0  0  0
    1.3320   -3.2440   -0.2300 O   0  0  0  0  0  0  0  0  0  0  0  0
    1.7690   -0.9210   -0.0980 C   0  0  0  0  0  0  0  0  0  0  0  0
    3.1700   -1.0100   -0.0960 C   0  0  0  0  0  0  0  0  0  0  0  0
    3.9550    0.1530   -0.0280 C   0  0  0  0  0  0  0  0  0  0  0  0
    3.3380    1.4030    0.0950 C   0  0  0  0  0  0  0  0  0  0  0  0
    1.9510    1.5230    0.0890 C   0  0  0  0  0  0  0  0  0  0  0  0
    1.1990    0.3510   -0.0180 C   0  0  0  0  0  0  0  0  0  0  0  0
   -0.1480    0.5590   -0.0200 O   0  0  0  0  0  0  0  0  0  0  0  0
    4.0300    2.5740    0.1240 O   0  0  0  0  0  0  0  0  0  0  0  0
    5.1310    2.6170    1.0090 C   0  0  0  0  0  0  0  0  0  0  0  0
    5.3100    0.0110    0.0020 O   0  0  0  0  0  0  0  0  0  0  0  0
    3.6910   -2.2420   -0.1850 O   0  0  0  0  0  0  0  0  0  0  0  0
   -8.2360    0.8670    0.2830 H   0  0  0  0  0  0  0  0  0  0  0  0
   -7.4250   -0.7270    0.2040 H   0  0  0  0  0  0  0  0  0  0  0  0
   -7.1560    0.3540    1.6150 H   0  0  0  0  0  0  0  0  0  0  0  0
   -5.3100   -1.1160    1.2570 H   0  0  0  0  0  0  0  0  0  0  0  0
   -2.9330   -1.7130    1.2450 H   0  0  0  0  0  0  0  0  0  0  0  0
   -2.0840    1.5400   -1.4630 H   0  0  0  0  0  0  0  0  0  0  0  0
   -4.4860    2.1700   -1.4630 H   0  0  0  0  0  0  0  0  0  0  0  0
   -1.2140   -2.6380   -0.3010 H   0  0  0  0  0  0  0  0  0  0  0  0
    1.4700    2.5020    0.1630 H   0  0  0  0  0  0  0  0  0  0  0  0
    6.0700    2.4090    0.4720 H   0  0  0  0  0  0  0  0  0  0  0  0
    5.1540    3.6580    1.3670 H   0  0  0  0  0  0  0  0  0  0  0  0
    5.0590    1.9420    1.8760 H   0  0  0  0  0  0  0  0  0  0  0  0
    5.6140    0.2980   -0.8700 H   0  0  0  0  0  0  0  0  0  0  0  0
    4.6510   -2.2060   -0.0780 H   0  0  0  0  0  0  0  0  0  0  0  0
  1  2  1  0
  1 25  1  0
  1 24  1  0
  1 26  1  0
  2  3  1  0
  3  8  2  0
  3  4  1  0
  4  5  2  0
  4 27  1  0
  5  6  1  0
  5 28  1  0
  6  7  2  0
  6  9  1  0
  7 29  1  0
  7  8  1  0
  8 30  1  0
  9 10  2  0
  9 19  1  0
 10 31  1  0
 10 11  1  0
 11 12  2  0
 11 13  1  0
 13 14  2  0
 13 18  1  0
 14 23  1  0
 14 15  1  0
 15 22  1  0
 15 16  2  0
 16 17  1  0
 16 20  1  0
 17 18  2  0
 17 32  1  0
 18 19  1  0
 20 21  1  0
 21 33  1  0
 21 34  1  0
 21 35  1  0
 22 36  1  0
 23 37  1  0
M  END
>  <id>  (999) 
1120

>  <scaffolds>  (999) 
['c1ccccc1', 'O=c1cc(-c2ccccc2)oc2ccccc12', 'O=c1ccoc2ccccc12']

>  <name>  (999) 
Ladanein

>  <formula>  (999) 
C17H14O6

>  <SMILES>  (999) 
COC1=CC=C(C=C1)C2=CC(=O)C3=C(C(=C(C=C3O2)OC)O)O

>  <ChEMBL_id>  (999) 


>  <ZINC_id>  (999) 


>  <PubChem_id>  (999) 
3084066

>  <DrugBank_id>  (999) 


>  <CAS_no>  (999) 
10176-71-3

>  <references>  (999) 
[{'journal': {'name': 'Antioxidants', 'id': 53}, 'title': 'Investigation of In-Vitro Antioxidant and Electrochemical Activities of Isolated Compounds from Salvia chamelaeagnea P.J.Bergius Extract', 'year': 2019, 'start_page': None, 'volume': None, 'issue': None, 'doi': 'https://doi.org/10.3390/antiox8040098', 'isbn': '', 'despositor': {'code': 'BND', 'first_name': "Bakary N'tji", 'last_name': 'Diallo', 'id': 26}, 'refauthors_set': [{'author': {'first_name': 'Ninon ', 'initials': 'N.G.E.R.E', 'last_name': 'Etsassala', 'id': 1097}, 'first_author': True, 'id': 1680}], 'id': 466}]

>  <classifications>  (999) 
[{'classification': 'Flavonoids', 'id': 776}, {'classification': 'Flavonoids (Classyfire)', 'id': 941}]

>  <molecular_mass>  (999) 
314.29

$$$$
SANC01122_minRM1.pdb
     RDKit          3D

 22 22  0  0  0  0  0  0  0  0999 V2000
    2.9030    1.5640    0.2320 C   0  0  0  0  0  0  0  0  0  0  0  0
    2.5350    0.2060   -0.2900 C   0  0  0  0  0  0  0  0  0  0  0  0
    3.3730   -0.5340   -0.7750 O   0  0  0  0  0  0  0  0  0  0  0  0
    1.1200   -0.2030   -0.1760 C   0  0  0  0  0  0  0  0  0  0  0  0
    0.0990    0.7430   -0.2930 C   0  0  0  0  0  0  0  0  0  0  0  0
   -1.2190    0.3300   -0.1750 C   0  0  0  0  0  0  0  0  0  0  0  0
   -1.5160   -1.0300    0.0610 C   0  0  0  0  0  0  0  0  0  0  0  0
   -0.4930   -1.9650    0.1600 C   0  0  0  0  0  0  0  0  0  0  0  0
    0.8280   -1.5430    0.0360 C   0  0  0  0  0  0  0  0  0  0  0  0
   -2.8300   -1.3270    0.1820 O   0  0  0  0  0  0  0  0  0  0  0  0
   -2.3160    1.1270   -0.3270 O   0  0  0  0  0  0  0  0  0  0  0  0
   -2.1290    2.4910   -0.0390 C   0  0  0  0  0  0  0  0  0  0  0  0
    2.3420    1.8280    1.1390 H   0  0  0  0  0  0  0  0  0  0  0  0
    2.7060    2.3410   -0.5210 H   0  0  0  0  0  0  0  0  0  0  0  0
    3.9720    1.6360    0.4830 H   0  0  0  0  0  0  0  0  0  0  0  0
    0.3430    1.7890   -0.4930 H   0  0  0  0  0  0  0  0  0  0  0  0
   -0.7090   -3.0230    0.3330 H   0  0  0  0  0  0  0  0  0  0  0  0
    1.6370   -2.2790    0.1070 H   0  0  0  0  0  0  0  0  0  0  0  0
   -2.9200   -2.2840    0.2630 H   0  0  0  0  0  0  0  0  0  0  0  0
   -1.6030    3.0240   -0.8480 H   0  0  0  0  0  0  0  0  0  0  0  0
   -3.1550    2.8840    0.0280 H   0  0  0  0  0  0  0  0  0  0  0  0
   -1.6100    2.6840    0.9140 H   0  0  0  0  0  0  0  0  0  0  0  0
  1 14  1  0
  1  2  1  0
  1 15  1  0
  1 13  1  0
  2  3  2  0
  2  4  1  0
  4  5  2  0
  4  9  1  0
  5 16  1  0
  5  6  1  0
  6 11  1  0
  6  7  2  0
  7  8  1  0
  7 10  1  0
  8  9  2  0
  8 17  1  0
  9 18  1  0
 10 19  1  0
 11 12  1  0
 12 20  1  0
 12 21  1  0
 12 22  1  0
M  END
>  <id>  (1000) 
1122

>  <scaffolds>  (1000) 
['c1ccccc1']

>  <name>  (1000) 
Acetovanillone

>  <formula>  (1000) 
C9H10O3

>  <SMILES>  (1000) 
CC(=O)C1=CC(=C(C=C1)O)OC

>  <ChEMBL_id>  (1000) 
CHEMBL346919

>  <ZINC_id>  (1000) 
ZINC00162515

>  <PubChem_id>  (1000) 
2214

>  <DrugBank_id>  (1000) 
DB12618

>  <CAS_no>  (1000) 
498-02-2

>  <references>  (1000) 
[{'journal': {'name': 'South African Journal of Botany', 'id': 1}, 'title': 'Isolation and identification of acetovanillone from an extract of Boophone disticha (L.f.) herb (Amaryllidaceae)', 'year': 2017, 'start_page': None, 'volume': None, 'issue': None, 'doi': '10.1016/j.sajb.2016.10.012', 'isbn': '', 'despositor': {'code': 'BND', 'first_name': "Bakary N'tji", 'last_name': 'Diallo', 'id': 26}, 'refauthors_set': [{'author': {'first_name': 'D.', 'initials': 'TD', 'last_name': 'Tagwireyi', 'id': 1091}, 'first_author': True, 'id': 1673}], 'id': 584}]

>  <classifications>  (1000) 
[{'classification': 'Organooxygen compounds (Classyfire)', 'id': 954}]

>  <molecular_mass>  (1000) 
166.17

$$$$
SANC01123_minRM1.pdb
     RDKit          3D

126126  0  0  0  0  0  0  0  0999 V2000
  -18.2100   -2.8330   -1.7330 C   0  0  0  0  0  0  0  0  0  0  0  0
  -18.6950   -1.4850   -1.2250 C   0  0  0  0  0  0  0  0  0  0  0  0
  -17.5390   -0.6820   -0.6320 C   0  0  0  0  0  0  0  0  0  0  0  0
  -18.0370    0.6420   -0.0580 C   0  0  0  0  0  0  0  0  0  0  0  0
  -16.9000    1.4680    0.5420 C   0  0  0  0  0  0  0  0  0  0  0  0
  -16.1090    2.2150   -0.5290 C   0  0  0  0  0  0  0  0  0  0  0  0
  -14.9080    2.9510    0.0670 C   0  0  0  0  0  0  0  0  0  0  0  0
  -13.7020    2.0280    0.2280 C   0  0  0  0  0  0  0  0  0  0  0  0
  -12.5780    2.7340    0.9840 C   0  0  0  0  0  0  0  0  0  0  0  0
  -11.3140    1.8750    1.0490 C   0  0  0  0  0  0  0  0  0  0  0  0
  -10.4190    2.0930   -0.1690 C   0  0  0  0  0  0  0  0  0  0  0  0
   -9.2290    1.1310   -0.1730 C   0  0  0  0  0  0  0  0  0  0  0  0
   -9.5630   -0.1790   -0.8830 C   0  0  0  0  0  0  0  0  0  0  0  0
   -8.4270   -1.1940   -0.7480 C   0  0  0  0  0  0  0  0  0  0  0  0
   -8.5790   -2.0510    0.5080 C   0  0  0  0  0  0  0  0  0  0  0  0
   -7.3430   -2.9220    0.7550 C   0  0  0  0  0  0  0  0  0  0  0  0
   -6.5410   -2.4880    1.9790 C   0  0  0  0  0  0  0  0  0  0  0  0
   -5.9660   -1.0780    1.8780 C   0  0  0  0  0  0  0  0  0  0  0  0
   -4.7940   -0.9880    0.9040 C   0  0  0  0  0  0  0  0  0  0  0  0
   -4.2760    0.4480    0.8280 C   0  0  0  0  0  0  0  0  0  0  0  0
   -2.9530    0.5470    0.0650 C   0  0  0  0  0  0  0  0  0  0  0  0
   -1.7700    0.2080    0.9670 C   0  0  0  0  0  0  0  0  0  0  0  0
   -0.4400    0.1950    0.2160 C   0  0  0  0  0  0  0  0  0  0  0  0
   -0.0460    1.5710   -0.3120 C   0  0  0  0  0  0  0  0  0  0  0  0
    1.4670    1.7210   -0.4910 C   0  0  0  0  0  0  0  0  0  0  0  0
    2.0540    0.8700   -1.6180 C   0  0  0  0  0  0  0  0  0  0  0  0
    2.6200   -0.4750   -1.1630 C   0  0  0  0  0  0  0  0  0  0  0  0
    3.8920   -0.3420   -0.3250 C   0  0  0  0  0  0  0  0  0  0  0  0
    5.1740   -0.4320   -1.1490 C   0  0  0  0  0  0  0  0  0  0  0  0
    5.5430   -1.8420   -1.6030 C   0  0  0  0  0  0  0  0  0  0  0  0
    5.7390   -2.8630   -0.4860 C   0  0  0  0  0  0  0  0  0  0  0  0
    6.6120   -2.4020    0.6770 C   0  0  0  0  0  0  0  0  0  0  0  0
    8.0300   -2.0040    0.2860 C   0  0  0  0  0  0  0  0  0  0  0  0
    8.9190   -3.2220    0.0290 C   0  0  0  0  0  0  0  0  0  0  0  0
   10.2020   -2.7820   -0.3680 O   0  0  0  0  0  0  0  0  0  0  0  0
   11.0130   -2.2420    0.5800 C   0  0  0  0  0  0  0  0  0  0  0  0
   10.7550   -2.3700    1.7660 O   0  0  0  0  0  0  0  0  0  0  0  0
   12.1580   -1.5300   -0.0050 C   0  0  0  0  0  0  0  0  0  0  0  0
   12.8040   -0.6250    0.7380 C   0  0  0  0  0  0  0  0  0  0  0  0
   13.8980    0.1830    0.2130 C   0  0  0  0  0  0  0  0  0  0  0  0
   14.8560   -0.3630   -0.6270 C   0  0  0  0  0  0  0  0  0  0  0  0
   15.8890    0.4310   -1.1250 C   0  0  0  0  0  0  0  0  0  0  0  0
   15.9440    1.7730   -0.7790 C   0  0  0  0  0  0  0  0  0  0  0  0
   16.8930    2.6360   -1.2100 O   0  0  0  0  0  0  0  0  0  0  0  0
   14.9680    2.3310    0.0810 C   0  0  0  0  0  0  0  0  0  0  0  0
   15.1570    3.6570    0.3320 O   0  0  0  0  0  0  0  0  0  0  0  0
   14.1930    4.2950    1.1290 C   0  0  0  0  0  0  0  0  0  0  0  0
   13.9550    1.5340    0.5830 C   0  0  0  0  0  0  0  0  0  0  0  0
  -17.4250   -2.7350   -2.4960 H   0  0  0  0  0  0  0  0  0  0  0  0
  -19.0240   -3.4150   -2.1910 H   0  0  0  0  0  0  0  0  0  0  0  0
  -17.7930   -3.4560   -0.9280 H   0  0  0  0  0  0  0  0  0  0  0  0
  -19.1800   -0.9170   -2.0470 H   0  0  0  0  0  0  0  0  0  0  0  0
  -19.4980   -1.6290   -0.4720 H   0  0  0  0  0  0  0  0  0  0  0  0
  -16.7600   -0.5100   -1.4040 H   0  0  0  0  0  0  0  0  0  0  0  0
  -17.0250   -1.2740    0.1550 H   0  0  0  0  0  0  0  0  0  0  0  0
  -18.8050    0.4460    0.7210 H   0  0  0  0  0  0  0  0  0  0  0  0
  -18.5760    1.2260   -0.8340 H   0  0  0  0  0  0  0  0  0  0  0  0
  -17.3160    2.1970    1.2720 H   0  0  0  0  0  0  0  0  0  0  0  0
  -16.2340    0.8240    1.1530 H   0  0  0  0  0  0  0  0  0  0  0  0
  -16.7750    2.9390   -1.0450 H   0  0  0  0  0  0  0  0  0  0  0  0
  -15.7800    1.5280   -1.3350 H   0  0  0  0  0  0  0  0  0  0  0  0
  -15.1800    3.4160    1.0380 H   0  0  0  0  0  0  0  0  0  0  0  0
  -14.6350    3.8120   -0.5790 H   0  0  0  0  0  0  0  0  0  0  0  0
  -13.3490    1.6840   -0.7670 H   0  0  0  0  0  0  0  0  0  0  0  0
  -13.9880    1.0950    0.7570 H   0  0  0  0  0  0  0  0  0  0  0  0
  -12.9180    2.9810    2.0120 H   0  0  0  0  0  0  0  0  0  0  0  0
  -12.3580    3.7210    0.5260 H   0  0  0  0  0  0  0  0  0  0  0  0
  -11.5720    0.8020    1.1610 H   0  0  0  0  0  0  0  0  0  0  0  0
  -10.7460    2.1140    1.9740 H   0  0  0  0  0  0  0  0  0  0  0  0
  -11.0010    2.0020   -1.1090 H   0  0  0  0  0  0  0  0  0  0  0  0
  -10.0540    3.1430   -0.1800 H   0  0  0  0  0  0  0  0  0  0  0  0
   -8.3590    1.6120   -0.6690 H   0  0  0  0  0  0  0  0  0  0  0  0
   -8.8760    0.9390    0.8620 H   0  0  0  0  0  0  0  0  0  0  0  0
   -9.7620    0.0220   -1.9580 H   0  0  0  0  0  0  0  0  0  0  0  0
  -10.5170   -0.6020   -0.5070 H   0  0  0  0  0  0  0  0  0  0  0  0
   -8.3970   -1.8520   -1.6430 H   0  0  0  0  0  0  0  0  0  0  0  0
   -7.4420   -0.6800   -0.7580 H   0  0  0  0  0  0  0  0  0  0  0  0
   -8.8140   -1.4210    1.3900 H   0  0  0  0  0  0  0  0  0  0  0  0
   -9.4800   -2.6950    0.4060 H   0  0  0  0  0  0  0  0  0  0  0  0
   -6.6900   -2.9670   -0.1420 H   0  0  0  0  0  0  0  0  0  0  0  0
   -7.6570   -3.9800    0.8940 H   0  0  0  0  0  0  0  0  0  0  0  0
   -5.7230   -3.2180    2.1660 H   0  0  0  0  0  0  0  0  0  0  0  0
   -7.1820   -2.5620    2.8850 H   0  0  0  0  0  0  0  0  0  0  0  0
   -6.7540   -0.3450    1.6040 H   0  0  0  0  0  0  0  0  0  0  0  0
   -5.6340   -0.7530    2.8900 H   0  0  0  0  0  0  0  0  0  0  0  0
   -5.0900   -1.3350   -0.1090 H   0  0  0  0  0  0  0  0  0  0  0  0
   -3.9880   -1.6880    1.2090 H   0  0  0  0  0  0  0  0  0  0  0  0
   -4.1650    0.8820    1.8450 H   0  0  0  0  0  0  0  0  0  0  0  0
   -5.0420    1.0910    0.3430 H   0  0  0  0  0  0  0  0  0  0  0  0
   -2.9670   -0.1090   -0.8300 H   0  0  0  0  0  0  0  0  0  0  0  0
   -2.8360    1.5730   -0.3450 H   0  0  0  0  0  0  0  0  0  0  0  0
   -1.7210    0.9170    1.8210 H   0  0  0  0  0  0  0  0  0  0  0  0
   -1.9250   -0.7830    1.4450 H   0  0  0  0  0  0  0  0  0  0  0  0
    0.3420   -0.1930    0.9050 H   0  0  0  0  0  0  0  0  0  0  0  0
   -0.4750   -0.5380   -0.6170 H   0  0  0  0  0  0  0  0  0  0  0  0
   -0.5720    1.7880   -1.2660 H   0  0  0  0  0  0  0  0  0  0  0  0
   -0.4030    2.3660    0.3790 H   0  0  0  0  0  0  0  0  0  0  0  0
    1.6870    2.7920   -0.6970 H   0  0  0  0  0  0  0  0  0  0  0  0
    1.9840    1.5260    0.4720 H   0  0  0  0  0  0  0  0  0  0  0  0
    1.2910    0.7040   -2.4090 H   0  0  0  0  0  0  0  0  0  0  0  0
    2.8560    1.4410   -2.1350 H   0  0  0  0  0  0  0  0  0  0  0  0
    1.8550   -1.0400   -0.5930 H   0  0  0  0  0  0  0  0  0  0  0  0
    2.8040   -1.1120   -2.0540 H   0  0  0  0  0  0  0  0  0  0  0  0
    3.8910    0.6210    0.2320 H   0  0  0  0  0  0  0  0  0  0  0  0
    3.8920   -1.1050    0.4810 H   0  0  0  0  0  0  0  0  0  0  0  0
    6.0160    0.0120   -0.5750 H   0  0  0  0  0  0  0  0  0  0  0  0
    5.0880    0.2260   -2.0420 H   0  0  0  0  0  0  0  0  0  0  0  0
    6.4610   -1.7890   -2.2290 H   0  0  0  0  0  0  0  0  0  0  0  0
    4.7720   -2.2280   -2.3050 H   0  0  0  0  0  0  0  0  0  0  0  0
    6.1570   -3.7970   -0.9220 H   0  0  0  0  0  0  0  0  0  0  0  0
    4.7500   -3.1800   -0.0890 H   0  0  0  0  0  0  0  0  0  0  0  0
    6.6450   -3.2040    1.4480 H   0  0  0  0  0  0  0  0  0  0  0  0
    6.1250   -1.5550    1.2050 H   0  0  0  0  0  0  0  0  0  0  0  0
    8.0370   -1.3350   -0.5980 H   0  0  0  0  0  0  0  0  0  0  0  0
    8.4680   -1.3850    1.1000 H   0  0  0  0  0  0  0  0  0  0  0  0
    8.9550   -3.9140    0.9000 H   0  0  0  0  0  0  0  0  0  0  0  0
    8.5880   -3.8190   -0.8460 H   0  0  0  0  0  0  0  0  0  0  0  0
   12.4050   -1.7500   -1.0480 H   0  0  0  0  0  0  0  0  0  0  0  0
   12.5200   -0.4320    1.7830 H   0  0  0  0  0  0  0  0  0  0  0  0
   14.8210   -1.4230   -0.8980 H   0  0  0  0  0  0  0  0  0  0  0  0
   16.6420   -0.0120   -1.7820 H   0  0  0  0  0  0  0  0  0  0  0  0
   17.5050    2.1540   -1.7810 H   0  0  0  0  0  0  0  0  0  0  0  0
   14.1710    3.9220    2.1660 H   0  0  0  0  0  0  0  0  0  0  0  0
   13.1740    4.2550    0.7080 H   0  0  0  0  0  0  0  0  0  0  0  0
   14.5280    5.3440    1.1390 H   0  0  0  0  0  0  0  0  0  0  0  0
   13.1900    1.9290    1.2580 H   0  0  0  0  0  0  0  0  0  0  0  0
  1 49  1  0
  1 50  1  0
  1  2  1  0
  1 51  1  0
  2 52  1  0
  2  3  1  0
  2 53  1  0
  3 54  1  0
  3  4  1  0
  3 55  1  0
  4 57  1  0
  4  5  1  0
  4 56  1  0
  5  6  1  0
  5 59  1  0
  5 58  1  0
  6 61  1  0
  6 60  1  0
  6  7  1  0
  7 63  1  0
  7  8  1  0
  7 62  1  0
  8 64  1  0
  8 65  1  0
  8  9  1  0
  9 67  1  0
  9 10  1  0
  9 66  1  0
 10 11  1  0
 10 68  1  0
 10 69  1  0
 11 70  1  0
 11 71  1  0
 11 12  1  0
 12 13  1  0
 12 72  1  0
 12 73  1  0
 13 74  1  0
 13 14  1  0
 13 75  1  0
 14 76  1  0
 14 77  1  0
 14 15  1  0
 15 79  1  0
 15 16  1  0
 15 78  1  0
 16 80  1  0
 16 81  1  0
 16 17  1  0
 17 18  1  0
 17 82  1  0
 17 83  1  0
 18 19  1  0
 18 84  1  0
 18 85  1  0
 19 86  1  0
 19 20  1  0
 19 87  1  0
 20 21  1  0
 20 89  1  0
 20 88  1  0
 21 90  1  0
 21 91  1  0
 21 22  1  0
 22 23  1  0
 22 93  1  0
 22 92  1  0
 23 95  1  0
 23 24  1  0
 23 94  1  0
 24 96  1  0
 24 25  1  0
 24 97  1  0
 25 26  1  0
 25 98  1  0
 25 99  1  0
 26100  1  0
 26101  1  0
 26 27  1  0
 27103  1  0
 27102  1  0
 27 28  1  0
 28 29  1  0
 28104  1  0
 28105  1  0
 29107  1  0
 29 30  1  0
 29106  1  0
 30109  1  0
 30108  1  0
 30 31  1  0
 31110  1  0
 31111  1  0
 31 32  1  0
 32 33  1  0
 32113  1  0
 32112  1  0
 33114  1  0
 33 34  1  0
 33115  1  0
 34117  1  0
 34 35  1  0
 34116  1  0
 35 36  1  0
 36 38  1  0
 36 37  2  0
 38118  1  0
 38 39  2  0
 39 40  1  0
 39119  1  0
 40 41  2  0
 40 48  1  0
 41 42  1  0
 41120  1  0
 42121  1  0
 42 43  2  0
 43 44  1  0
 43 45  1  0
 44122  1  0
 45 46  1  0
 45 48  2  0
 46 47  1  0
 47124  1  0
 47125  1  0
 47123  1  0
 48126  1  0
M  END
>  <id>  (1001) 
1123

>  <scaffolds>  (1001) 
['c1ccccc1']

>  <name>  (1001) 
(E)-tetratriacontyl-3-(4-hydroxy-3-methoxyphenyl)-2-propenate

>  <formula>  (1001) 
C44H78O4

>  <SMILES>  (1001) 
CCCCCCCCCCCCCCCCCCCCCCCCCCCCCCCCCCOC(=O)\C=C\C1=CC=C(O)C(OC)=C1

>  <ChEMBL_id>  (1001) 


>  <ZINC_id>  (1001) 


>  <PubChem_id>  (1001) 


>  <DrugBank_id>  (1001) 


>  <CAS_no>  (1001) 
239471-53-5

>  <references>  (1001) 
[{'journal': {'name': 'Tropical Journal of Pharmaceutical Research', 'id': 81}, 'title': 'Ethnomedicinal uses and pharmacological activities of Croton megalobotrys Müll Arg: A systematic review', 'year': 2017, 'start_page': None, 'volume': None, 'issue': None, 'doi': '10.4314/tjpr.v16i10.30', 'isbn': '', 'despositor': {'code': 'BND', 'first_name': "Bakary N'tji", 'last_name': 'Diallo', 'id': 26}, 'refauthors_set': [{'author': {'first_name': 'Alfred', 'initials': 'MA', 'last_name': 'Maroyi', 'id': 1093}, 'first_author': True, 'id': 1675}], 'id': 586}]

>  <classifications>  (1001) 
[{'classification': 'Cinnamic acids and derivatives (Classyfire)', 'id': 975}]

>  <molecular_mass>  (1001) 
671.088

$$$$
SANC01124_minRM1.pdb
     RDKit          3D

 72 77  0  0  1  0  0  0  0  0999 V2000
    7.4690    1.1790   -1.5150 C   0  0  0  0  0  0  0  0  0  0  0  0
    6.7450    0.1730   -0.6310 C   0  0  2  0  0  0  0  0  0  0  0  0
    5.8130   -0.7190   -1.4560 C   0  0  0  0  0  0  0  0  0  0  0  0
    4.4010   -0.1480   -1.4720 C   0  0  0  0  0  0  0  0  0  0  0  0
    3.8680   -0.0620   -0.0310 C   0  0  2  0  0  0  0  0  0  0  0  0
    3.0030   -1.2730    0.4370 C   0  0  2  0  0  0  0  0  0  0  0  0
    1.7810   -0.6150    1.0850 C   0  0  1  0  0  0  0  0  0  0  0  0
    2.0800    0.9100    1.0360 C   0  0  1  0  0  0  0  0  0  0  0  0
    3.0690    1.0950    0.0530 O   0  0  0  0  0  0  0  0  0  0  0  0
    0.7810    1.6260    0.6110 C   0  0  0  0  0  0  0  0  0  0  0  0
   -0.2750    0.5490    0.8500 C   0  0  2  0  0  0  0  0  0  0  0  0
    0.4220   -0.7400    0.3670 C   0  0  2  0  0  0  0  0  0  0  0  0
   -0.4350   -1.9200    0.8110 C   0  0  0  0  0  0  0  0  0  0  0  0
   -1.8370   -1.7970    0.2120 C   0  0  0  0  0  0  0  0  0  0  0  0
   -2.5120   -0.4680    0.5650 C   0  0  1  0  0  0  0  0  0  0  0  0
   -1.6270    0.7270    0.1740 C   0  0  1  0  0  0  0  0  0  0  0  0
   -2.2590    2.0490    0.6040 C   0  0  0  0  0  0  0  0  0  0  0  0
   -3.7440    2.0520    0.5560 C   0  0  0  0  0  0  0  0  0  0  0  0
   -4.4920    0.9810    0.2890 C   0  0  0  0  0  0  0  0  0  0  0  0
   -3.8860   -0.3240   -0.1290 C   0  0  2  0  0  0  0  0  0  0  0  0
   -4.8180   -1.4540    0.3240 C   0  0  0  0  0  0  0  0  0  0  0  0
   -6.1670   -1.3720   -0.3740 C   0  0  0  0  0  0  0  0  0  0  0  0
   -6.7890    0.0360   -0.3160 C   0  0  1  0  0  0  0  0  0  0  0  0
   -5.9670    1.0400    0.5030 C   0  0  0  0  0  0  0  0  0  0  0  0
   -6.9090    0.6060   -1.5890 O   0  0  0  0  0  0  0  0  0  0  0  0
   -3.7330   -0.3370   -1.6500 C   0  0  0  0  0  0  0  0  0  0  0  0
    0.5860   -0.7490   -1.1500 C   0  0  0  0  0  0  0  0  0  0  0  0
    3.7220   -2.1990    1.4080 C   0  0  0  0  0  0  0  0  0  0  0  0
    4.8850    0.1330    0.9130 O   0  0  0  0  0  0  0  0  0  0  0  0
    5.9480    0.9230    0.4540 C   0  0  0  0  0  0  0  0  0  0  0  0
    8.0840    1.8750   -0.9260 H   0  0  0  0  0  0  0  0  0  0  0  0
    8.1480    0.6890   -2.2280 H   0  0  0  0  0  0  0  0  0  0  0  0
    6.7770    1.7920   -2.1110 H   0  0  0  0  0  0  0  0  0  0  0  0
    7.5090   -0.4770   -0.1330 H   0  0  0  0  0  0  0  0  0  0  0  0
    6.1920   -0.8460   -2.4910 H   0  0  0  0  0  0  0  0  0  0  0  0
    5.7980   -1.7490   -1.0430 H   0  0  0  0  0  0  0  0  0  0  0  0
    3.7300   -0.7590   -2.1090 H   0  0  0  0  0  0  0  0  0  0  0  0
    4.3960    0.8500   -1.9620 H   0  0  0  0  0  0  0  0  0  0  0  0
    2.7230   -1.8930   -0.4480 H   0  0  0  0  0  0  0  0  0  0  0  0
    1.6660   -0.9570    2.1420 H   0  0  0  0  0  0  0  0  0  0  0  0
    2.4640    1.2980    2.0110 H   0  0  0  0  0  0  0  0  0  0  0  0
    0.6000    2.5430    1.2020 H   0  0  0  0  0  0  0  0  0  0  0  0
    0.8020    1.9760   -0.4390 H   0  0  0  0  0  0  0  0  0  0  0  0
   -0.4480    0.4810    1.9590 H   0  0  0  0  0  0  0  0  0  0  0  0
   -0.4970   -1.9770    1.9190 H   0  0  0  0  0  0  0  0  0  0  0  0
    0.0320   -2.8830    0.5180 H   0  0  0  0  0  0  0  0  0  0  0  0
   -2.4660   -2.6430    0.5710 H   0  0  0  0  0  0  0  0  0  0  0  0
   -1.7920   -1.9520   -0.8850 H   0  0  0  0  0  0  0  0  0  0  0  0
   -2.6780   -0.4440    1.6740 H   0  0  0  0  0  0  0  0  0  0  0  0
   -1.5000    0.7350   -0.9450 H   0  0  0  0  0  0  0  0  0  0  0  0
   -1.8540    2.8800   -0.0150 H   0  0  0  0  0  0  0  0  0  0  0  0
   -1.9630    2.3160    1.6450 H   0  0  0  0  0  0  0  0  0  0  0  0
   -4.2030    3.0130    0.8170 H   0  0  0  0  0  0  0  0  0  0  0  0
   -4.9520   -1.4210    1.4270 H   0  0  0  0  0  0  0  0  0  0  0  0
   -4.3570   -2.4480    0.1360 H   0  0  0  0  0  0  0  0  0  0  0  0
   -6.0730   -1.7290   -1.4230 H   0  0  0  0  0  0  0  0  0  0  0  0
   -6.8630   -2.1070    0.0850 H   0  0  0  0  0  0  0  0  0  0  0  0
   -7.8120   -0.0410    0.1550 H   0  0  0  0  0  0  0  0  0  0  0  0
   -6.3570    2.0660    0.3220 H   0  0  0  0  0  0  0  0  0  0  0  0
   -6.1560    0.8540    1.5840 H   0  0  0  0  0  0  0  0  0  0  0  0
   -7.4920    0.0450   -2.1090 H   0  0  0  0  0  0  0  0  0  0  0  0
   -3.6520   -1.3540   -2.0600 H   0  0  0  0  0  0  0  0  0  0  0  0
   -2.8380    0.2130   -1.9850 H   0  0  0  0  0  0  0  0  0  0  0  0
   -4.5780    0.1400   -2.1660 H   0  0  0  0  0  0  0  0  0  0  0  0
    0.7650   -1.7580   -1.5500 H   0  0  0  0  0  0  0  0  0  0  0  0
   -0.3060   -0.3680   -1.6770 H   0  0  0  0  0  0  0  0  0  0  0  0
    1.4130   -0.1160   -1.5030 H   0  0  0  0  0  0  0  0  0  0  0  0
    3.9840   -1.7150    2.3600 H   0  0  0  0  0  0  0  0  0  0  0  0
    4.6620   -2.5840    0.9870 H   0  0  0  0  0  0  0  0  0  0  0  0
    3.1010   -3.0720    1.6590 H   0  0  0  0  0  0  0  0  0  0  0  0
    6.5550    1.1030    1.3660 H   0  0  0  0  0  0  0  0  0  0  0  0
    5.6010    1.9220    0.1060 H   0  0  0  0  0  0  0  0  0  0  0  0
  1 32  1  0
  1 33  1  0
  1 31  1  0
  1  2  1  0
  2  3  1  0
  2 34  1  1
  2 30  1  0
  3 35  1  0
  3  4  1  0
  3 36  1  0
  4 37  1  0
  4 38  1  0
  4  5  1  0
  5  9  1  6
  5  6  1  0
  5 29  1  0
  6 39  1  6
  6  7  1  0
  6 28  1  0
  7 12  1  0
  7  8  1  0
  7 40  1  1
  8  9  1  0
  8 10  1  0
  8 41  1  1
 10 43  1  0
 10 11  1  0
 10 42  1  0
 11 16  1  0
 11 12  1  0
 11 44  1  1
 12 27  1  6
 12 13  1  0
 13 14  1  0
 13 46  1  0
 13 45  1  0
 14 48  1  0
 14 15  1  0
 14 47  1  0
 15 20  1  0
 15 16  1  0
 15 49  1  1
 16 50  1  6
 16 17  1  0
 17 51  1  0
 17 18  1  0
 17 52  1  0
 18 19  2  0
 18 53  1  0
 19 20  1  0
 19 24  1  0
 20 26  1  6
 20 21  1  0
 21 22  1  0
 21 55  1  0
 21 54  1  0
 22 56  1  0
 22 23  1  0
 22 57  1  0
 23 25  1  0
 23 58  1  1
 23 24  1  0
 24 59  1  0
 24 60  1  0
 25 61  1  0
 26 64  1  0
 26 62  1  0
 26 63  1  0
 27 66  1  0
 27 65  1  0
 27 67  1  0
 28 69  1  0
 28 70  1  0
 28 68  1  0
 29 30  1  0
 30 72  1  0
 30 71  1  0
M  END
>  <id>  (1002) 
1124

>  <scaffolds>  (1002) 
['C1=C2CCCCC2C2CCC3CCCC3C2C1', 'C1=CCCCC1', 'C1=CCC2CCCCC2C1', 'C1=C2CCCCC2C2CCC3CC(OC4CCCCO4)CC3C2C1', 'C1CCOCC1', 'C1CCCCC1', 'C1=C2CCCCC2C2CCC3C4CC5(CCCCO5)OC4CC3C2C1', 'C1=C2CCCCC2CCC1']

>  <name>  (1002) 
Diosgenin

>  <formula>  (1002) 
C27H42O3

>  <SMILES>  (1002) 
C[C@@H]1CC[C@@]2([C@H]([C@H]3[C@@H](O2)C[C@@H]4[C@@]3(CC[C@H]5[C@H]4CC=C6[C@@]5(CC[C@@H](C6)O)C)C)C)OC1

>  <ChEMBL_id>  (1002) 
CHEMBL412437

>  <ZINC_id>  (1002) 
ZINC6857614

>  <PubChem_id>  (1002) 
99474

>  <DrugBank_id>  (1002) 


>  <CAS_no>  (1002) 
512-04-9

>  <references>  (1002) 
[{'journal': {'name': 'African Journal of Traditional, Complementary and Alternative Medicines', 'id': 78}, 'title': 'Cytotoxicity, phytochemical analysis and antioxidant activity of crude extracts from rhizomes of Elephantorrhiza elephantina and Pentanisia prunelloides.', 'year': 2014, 'start_page': None, 'volume': None, 'issue': None, 'doi': '10.4314/ajtcam.v11i1.6', 'isbn': '', 'despositor': {'code': 'BND', 'first_name': "Bakary N'tji", 'last_name': 'Diallo', 'id': 26}, 'refauthors_set': [{'author': {'first_name': ' S. J.', 'initials': 'JSM', 'last_name': 'Mpofu', 'id': 1089}, 'first_author': True, 'id': 1676}], 'id': 587}]

>  <classifications>  (1002) 
[{'classification': 'Phenol lipids (Classyfire)', 'id': 951}]

>  <molecular_mass>  (1002) 
414.6

$$$$
SANC01125_minRM1.pdb
     RDKit          3D

 81 85  0  0  1  0  0  0  0  0999 V2000
   -4.8400    2.1970   -1.6180 C   0  0  0  0  0  0  0  0  0  0  0  0
   -4.5940    1.3830   -0.3490 C   0  0  1  0  0  0  0  0  0  0  0  0
   -5.2630    0.0100   -0.5060 C   0  0  0  0  0  0  0  0  0  0  0  0
   -4.6700   -0.9660    0.4980 C   0  0  0  0  0  0  0  0  0  0  0  0
   -3.1890   -1.2670    0.1940 C   0  0  2  0  0  0  0  0  0  0  0  0
   -2.4540   -1.5280    1.5090 C   0  0  0  0  0  0  0  0  0  0  0  0
   -0.9760   -1.7760    1.2660 C   0  0  0  0  0  0  0  0  0  0  0  0
   -0.2970   -0.5520    0.6400 C   0  0  2  0  0  0  0  0  0  0  0  0
   -1.0530   -0.0710   -0.5600 C   0  0  0  0  0  0  0  0  0  0  0  0
   -0.4320    0.4800   -1.6080 C   0  0  0  0  0  0  0  0  0  0  0  0
    1.0400    0.6350   -1.7360 C   0  0  0  0  0  0  0  0  0  0  0  0
    1.7730    0.3490   -0.4280 C   0  0  1  0  0  0  0  0  0  0  0  0
    1.1700   -0.9140    0.2180 C   0  0  1  0  0  0  0  0  0  0  0  0
    1.9850   -1.3160    1.4520 C   0  0  0  0  0  0  0  0  0  0  0  0
    3.4830   -1.3510    1.1740 C   0  0  0  0  0  0  0  0  0  0  0  0
    3.9610    0.0270    0.7240 C   0  0  2  0  0  0  0  0  0  0  0  0
    3.3130    0.3670   -0.6290 C   0  0  2  0  0  0  0  0  0  0  0  0
    3.7240    1.7950   -1.0680 C   0  0  0  0  0  0  0  0  0  0  0  0
    4.8150    2.4110   -0.2040 C   0  0  0  0  0  0  0  0  0  0  0  0
    5.9710    1.4230   -0.0130 C   0  0  1  0  0  0  0  0  0  0  0  0
    5.5010    0.1610    0.7650 C   0  0  1  0  0  0  0  0  0  0  0  0
    5.9100    0.3660    2.2350 C   0  0  0  0  0  0  0  0  0  0  0  0
    6.2360   -1.0830    0.2700 C   0  0  0  0  0  0  0  0  0  0  0  0
    6.4860    1.0170   -1.2500 O   0  0  0  0  0  0  0  0  0  0  0  0
    3.7370   -0.6150   -1.7150 C   0  0  0  0  0  0  0  0  0  0  0  0
    1.1000   -2.1030   -0.7400 C   0  0  0  0  0  0  0  0  0  0  0  0
   -2.5550   -0.1050   -0.5840 C   0  0  2  0  0  0  0  0  0  0  0  0
   -3.0900    1.2330   -0.0630 C   0  0  0  0  0  0  0  0  0  0  0  0
   -0.3100    0.5840    1.6710 C   0  0  0  0  0  0  0  0  0  0  0  0
   -3.0780   -2.5350   -0.6460 C   0  0  0  0  0  0  0  0  0  0  0  0
   -2.4450   -2.6640   -1.6770 O   0  0  0  0  0  0  0  0  0  0  0  0
   -3.6980   -3.6680   -0.2300 O   0  0  0  0  0  0  0  0  0  0  0  0
   -5.2290    2.1280    0.8170 C   0  0  0  0  0  0  0  0  0  0  0  0
   -6.1570    1.7360    1.5000 O   0  0  0  0  0  0  0  0  0  0  0  0
   -4.7510    3.3450    1.1740 O   0  0  0  0  0  0  0  0  0  0  0  0
   -4.3520    1.7410   -2.4930 H   0  0  0  0  0  0  0  0  0  0  0  0
   -5.9120    2.2720   -1.8540 H   0  0  0  0  0  0  0  0  0  0  0  0
   -4.4590    3.2270   -1.5630 H   0  0  0  0  0  0  0  0  0  0  0  0
   -6.3640    0.0880   -0.3770 H   0  0  0  0  0  0  0  0  0  0  0  0
   -5.1520   -0.3770   -1.5410 H   0  0  0  0  0  0  0  0  0  0  0  0
   -4.7920   -0.5520    1.5230 H   0  0  0  0  0  0  0  0  0  0  0  0
   -5.2760   -1.8980    0.5310 H   0  0  0  0  0  0  0  0  0  0  0  0
   -2.9030   -2.3880    2.0520 H   0  0  0  0  0  0  0  0  0  0  0  0
   -2.5940   -0.6790    2.2140 H   0  0  0  0  0  0  0  0  0  0  0  0
   -0.4920   -2.0420    2.2310 H   0  0  0  0  0  0  0  0  0  0  0  0
   -0.8330   -2.6820    0.6360 H   0  0  0  0  0  0  0  0  0  0  0  0
   -0.9960    0.8440   -2.4760 H   0  0  0  0  0  0  0  0  0  0  0  0
    1.4110   -0.0170   -2.5620 H   0  0  0  0  0  0  0  0  0  0  0  0
    1.2630    1.6650   -2.0960 H   0  0  0  0  0  0  0  0  0  0  0  0
    1.5530    1.2050    0.2740 H   0  0  0  0  0  0  0  0  0  0  0  0
    1.6680   -2.3120    1.8290 H   0  0  0  0  0  0  0  0  0  0  0  0
    1.7760   -0.6300    2.3040 H   0  0  0  0  0  0  0  0  0  0  0  0
    3.7280   -2.1360    0.4270 H   0  0  0  0  0  0  0  0  0  0  0  0
    4.0140   -1.6770    2.0950 H   0  0  0  0  0  0  0  0  0  0  0  0
    3.5590    0.7690    1.4700 H   0  0  0  0  0  0  0  0  0  0  0  0
    2.8610    2.4960   -1.0770 H   0  0  0  0  0  0  0  0  0  0  0  0
    4.0550    1.7970   -2.1290 H   0  0  0  0  0  0  0  0  0  0  0  0
    4.4240    2.7350    0.7830 H   0  0  0  0  0  0  0  0  0  0  0  0
    5.1770    3.3580   -0.6610 H   0  0  0  0  0  0  0  0  0  0  0  0
    6.7980    1.9360    0.5580 H   0  0  0  0  0  0  0  0  0  0  0  0
    7.0020    0.3690    2.3680 H   0  0  0  0  0  0  0  0  0  0  0  0
    5.5430    1.3160    2.6520 H   0  0  0  0  0  0  0  0  0  0  0  0
    5.5290   -0.4290    2.8920 H   0  0  0  0  0  0  0  0  0  0  0  0
    6.0980   -1.9530    0.9270 H   0  0  0  0  0  0  0  0  0  0  0  0
    5.9250   -1.3900   -0.7400 H   0  0  0  0  0  0  0  0  0  0  0  0
    7.3240   -0.9180    0.2180 H   0  0  0  0  0  0  0  0  0  0  0  0
    6.6810    1.8100   -1.7580 H   0  0  0  0  0  0  0  0  0  0  0  0
    4.8160   -0.5810   -1.9300 H   0  0  0  0  0  0  0  0  0  0  0  0
    3.5290   -1.6640   -1.4450 H   0  0  0  0  0  0  0  0  0  0  0  0
    3.2140   -0.4360   -2.6680 H   0  0  0  0  0  0  0  0  0  0  0  0
    0.7070   -3.0090   -0.2470 H   0  0  0  0  0  0  0  0  0  0  0  0
    2.0780   -2.3930   -1.1500 H   0  0  0  0  0  0  0  0  0  0  0  0
    0.4390   -1.9440   -1.6040 H   0  0  0  0  0  0  0  0  0  0  0  0
   -2.8740   -0.2000   -1.6600 H   0  0  0  0  0  0  0  0  0  0  0  0
   -2.8650    1.3230    1.0240 H   0  0  0  0  0  0  0  0  0  0  0  0
   -2.5170    2.0660   -0.5260 H   0  0  0  0  0  0  0  0  0  0  0  0
    0.1900    1.4920    1.2960 H   0  0  0  0  0  0  0  0  0  0  0  0
   -1.3320    0.8910    1.9470 H   0  0  0  0  0  0  0  0  0  0  0  0
    0.2090    0.3070    2.6020 H   0  0  0  0  0  0  0  0  0  0  0  0
   -4.2890   -3.4800    0.5100 H   0  0  0  0  0  0  0  0  0  0  0  0
   -4.0160    3.6100    0.6130 H   0  0  0  0  0  0  0  0  0  0  0  0
  1 36  1  0
  1 37  1  0
  1 38  1  0
  1  2  1  0
  2  3  1  0
  2 28  1  0
  2 33  1  1
  3 40  1  0
  3 39  1  0
  3  4  1  0
  4  5  1  0
  4 42  1  0
  4 41  1  0
  5 30  1  6
  5 27  1  0
  5  6  1  0
  6  7  1  0
  6 43  1  0
  6 44  1  0
  7 46  1  0
  7  8  1  0
  7 45  1  0
  8  9  1  0
  8 13  1  0
  8 29  1  1
  9 10  2  0
  9 27  1  0
 10 47  1  0
 10 11  1  0
 11 48  1  0
 11 49  1  0
 11 12  1  0
 12 17  1  0
 12 13  1  0
 12 50  1  1
 13 26  1  6
 13 14  1  0
 14 15  1  0
 14 51  1  0
 14 52  1  0
 15 53  1  0
 15 16  1  0
 15 54  1  0
 16 17  1  0
 16 21  1  0
 16 55  1  1
 17 25  1  6
 17 18  1  0
 18 57  1  0
 18 56  1  0
 18 19  1  0
 19 59  1  0
 19 20  1  0
 19 58  1  0
 20 24  1  0
 20 60  1  1
 20 21  1  0
 21 23  1  6
 21 22  1  0
 22 61  1  0
 22 62  1  0
 22 63  1  0
 23 65  1  0
 23 66  1  0
 23 64  1  0
 24 67  1  0
 25 70  1  0
 25 68  1  0
 25 69  1  0
 26 73  1  0
 26 72  1  0
 26 71  1  0
 27 74  1  6
 27 28  1  0
 28 76  1  0
 28 75  1  0
 29 77  1  0
 29 78  1  0
 29 79  1  0
 30 31  2  0
 30 32  1  0
 32 80  1  0
 33 35  1  0
 33 34  2  0
 35 81  1  0
M  END
>  <id>  (1003) 
1125

>  <scaffolds>  (1003) 
['C1=C2C3CCCCC3CCC2C2CCC3CCCCC3C2C1', 'C1=CCCCC1', 'C1=CCC2CCCCC2C1', 'C1CCCCC1', 'C=C1CCCC2CCCCC12', 'C1=C2CCCCC2CCC1', 'C1=C2C3CCCCC3CCC2C2CCCCC2C1', 'C1CCC2CCCCC2C1']

>  <name>  (1003) 
Serratagenic acid

>  <formula>  (1003) 
C30H46O5

>  <SMILES>  (1003) 
C[C@]1(CC[C@@]2(CC[C@@]3(C(=CC[C@H]4[C@]3(CC[C@@H]5[C@@]4(CC[C@@H](C5(C)C)O)C)C)[C@@H]2C1)C)C(=O)O)C(=O)O

>  <ChEMBL_id>  (1003) 
SCHEMBL2168814

>  <ZINC_id>  (1003) 


>  <PubChem_id>  (1003) 
21594175

>  <DrugBank_id>  (1003) 


>  <CAS_no>  (1003) 
6488-64-8

>  <references>  (1003) 
[{'journal': {'name': 'Natural Product Research', 'id': 18}, 'title': 'A novel daucosterol derivative and antibacterial activity of compounds from Arctotis arctotoides', 'year': 2007, 'start_page': None, 'volume': None, 'issue': None, 'doi': '10.1080/14786410601129606', 'isbn': '', 'despositor': {'code': 'BND', 'first_name': "Bakary N'tji", 'last_name': 'Diallo', 'id': 26}, 'refauthors_set': [{'author': {'first_name': 'Nasim', 'initials': 'SN', 'last_name': 'Sultana', 'id': 1094}, 'first_author': True, 'id': 1677}], 'id': 588}]

>  <classifications>  (1003) 
[{'classification': 'Phenol lipids (Classyfire)', 'id': 951}]

>  <molecular_mass>  (1003) 
486.7

$$$$
SANC01126_minRM1.pdb
     RDKit          3D

 41 43  0  0  1  0  0  0  0  0999 V2000
    4.3920   -1.5910   -1.5310 C   0  0  0  0  0  0  0  0  0  0  0  0
    3.1850   -0.8860   -0.9970 C   0  0  0  0  0  0  0  0  0  0  0  0
    2.0710   -0.8720   -1.4820 O   0  0  0  0  0  0  0  0  0  0  0  0
    3.4810   -0.2140    0.1440 O   0  0  0  0  0  0  0  0  0  0  0  0
    2.4810    0.4350    0.8850 C   0  0  1  0  0  0  0  0  0  0  0  0
    1.8420    1.6400    0.1830 C   0  0  0  0  0  0  0  0  0  0  0  0
    0.4920    1.7780    0.9030 C   0  0  2  0  0  0  0  0  0  0  0  0
    0.0440    0.3260    1.2020 C   0  0  2  0  0  0  0  0  0  0  0  0
    1.3320   -0.4400    1.2920 C   0  0  0  0  0  0  0  0  0  0  0  0
    1.4650   -1.6870    1.7150 C   0  0  0  0  0  0  0  0  0  0  0  0
   -0.8450   -0.2830    0.1130 C   0  0  2  0  0  0  0  0  0  0  0  0
   -2.1580    0.5140   -0.1130 C   0  0  1  0  0  0  0  0  0  0  0  0
   -2.0580    1.4140   -1.3350 C   0  0  0  0  0  0  0  0  0  0  0  0
   -0.7660    2.2320   -1.2840 C   0  0  0  0  0  0  0  0  0  0  0  0
   -0.4670    2.6220    0.1280 C   0  0  0  0  0  0  0  0  0  0  0  0
   -1.0410    3.6950    0.6660 C   0  0  0  0  0  0  0  0  0  0  0  0
   -3.1830   -0.5640   -0.2410 C   0  0  0  0  0  0  0  0  0  0  0  0
   -4.4160   -0.4810   -0.7100 C   0  0  0  0  0  0  0  0  0  0  0  0
   -2.5560   -1.7920    0.2820 C   0  0  0  0  0  0  0  0  0  0  0  0
   -3.0170   -2.8890    0.5080 O   0  0  0  0  0  0  0  0  0  0  0  0
   -1.2320   -1.5820    0.5490 O   0  0  0  0  0  0  0  0  0  0  0  0
    4.1750   -2.0760   -2.4940 H   0  0  0  0  0  0  0  0  0  0  0  0
    5.2320   -0.8980   -1.6860 H   0  0  0  0  0  0  0  0  0  0  0  0
    4.7360   -2.3700   -0.8350 H   0  0  0  0  0  0  0  0  0  0  0  0
    3.0740    0.7510    1.7850 H   0  0  0  0  0  0  0  0  0  0  0  0
    1.7090    1.4860   -0.9080 H   0  0  0  0  0  0  0  0  0  0  0  0
    2.4590    2.5540    0.2630 H   0  0  0  0  0  0  0  0  0  0  0  0
    0.6820    2.2670    1.8960 H   0  0  0  0  0  0  0  0  0  0  0  0
   -0.4990    0.2870    2.1800 H   0  0  0  0  0  0  0  0  0  0  0  0
    0.6370   -2.3110    2.0410 H   0  0  0  0  0  0  0  0  0  0  0  0
    2.4240   -2.1940    1.7650 H   0  0  0  0  0  0  0  0  0  0  0  0
   -0.2760   -0.4300   -0.8400 H   0  0  0  0  0  0  0  0  0  0  0  0
   -2.4100    1.1270    0.7910 H   0  0  0  0  0  0  0  0  0  0  0  0
   -2.1050    0.8220   -2.2730 H   0  0  0  0  0  0  0  0  0  0  0  0
   -2.9430    2.0840   -1.3810 H   0  0  0  0  0  0  0  0  0  0  0  0
    0.0870    1.6720   -1.7300 H   0  0  0  0  0  0  0  0  0  0  0  0
   -0.8530    3.1290   -1.9340 H   0  0  0  0  0  0  0  0  0  0  0  0
   -1.7310    4.3370    0.1270 H   0  0  0  0  0  0  0  0  0  0  0  0
   -0.8760    4.0340    1.6840 H   0  0  0  0  0  0  0  0  0  0  0  0
   -5.0900   -1.3330   -0.7520 H   0  0  0  0  0  0  0  0  0  0  0  0
   -4.8500    0.4410   -1.0870 H   0  0  0  0  0  0  0  0  0  0  0  0
  1 22  1  0
  1 23  1  0
  1  2  1  0
  1 24  1  0
  2  3  2  0
  2  4  1  0
  4  5  1  0
  5  6  1  0
  5  9  1  0
  5 25  1  1
  6 26  1  0
  6 27  1  0
  6  7  1  0
  7 15  1  0
  7  8  1  0
  7 28  1  1
  8 11  1  0
  8  9  1  0
  8 29  1  1
  9 10  2  0
 10 31  1  0
 10 30  1  0
 11 32  1  6
 11 12  1  0
 11 21  1  0
 12 13  1  0
 12 17  1  0
 12 33  1  1
 13 34  1  0
 13 35  1  0
 13 14  1  0
 14 37  1  0
 14 36  1  0
 14 15  1  0
 15 16  2  0
 16 38  1  0
 16 39  1  0
 17 18  2  0
 17 19  1  0
 18 41  1  0
 18 40  1  0
 19 20  2  0
 19 21  1  0
M  END
>  <id>  (1004) 
1126

>  <scaffolds>  (1004) 
['C=C1C(=O)OC2C1CCC(=C)C1CCC(=C)C12', 'O=C1CCCO1', 'C1CCC2CCCC2CC1']

>  <name>  (1004) 
Zaluzanin d

>  <formula>  (1004) 
C17H20O4

>  <SMILES>  (1004) 
CC(=O)O[C@H]1C[C@@H]2[C@H](C1=C)[C@@H]3[C@@H](CCC2=C)C(=C)C(=O)O3

>  <ChEMBL_id>  (1004) 
CHEMBL371402

>  <ZINC_id>  (1004) 


>  <PubChem_id>  (1004) 
12445012

>  <DrugBank_id>  (1004) 


>  <CAS_no>  (1004) 
16838-85-0

>  <references>  (1004) 
[{'journal': {'name': 'Natural Product Research', 'id': 18}, 'title': 'A novel daucosterol derivative and antibacterial activity of compounds from Arctotis arctotoides', 'year': 2007, 'start_page': None, 'volume': None, 'issue': None, 'doi': '10.1080/14786410601129606', 'isbn': '', 'despositor': {'code': 'BND', 'first_name': "Bakary N'tji", 'last_name': 'Diallo', 'id': 26}, 'refauthors_set': [{'author': {'first_name': 'Nasim', 'initials': 'SN', 'last_name': 'Sultana', 'id': 1094}, 'first_author': True, 'id': 1677}], 'id': 588}]

>  <classifications>  (1004) 
[{'classification': 'Terpenoid', 'id': 839}, {'classification': 'Phenol lipids (Classyfire)', 'id': 951}]

>  <molecular_mass>  (1004) 
288.34

$$$$
SANC01127_minRM1.pdb
     RDKit          3D

 35 37  0  0  0  0  0  0  0  0999 V2000
   -3.5560   -3.7410    0.5610 C   0  0  0  0  0  0  0  0  0  0  0  0
   -4.1180   -2.4810    0.2820 O   0  0  0  0  0  0  0  0  0  0  0  0
   -3.2750   -1.4260    0.1860 C   0  0  0  0  0  0  0  0  0  0  0  0
   -3.9370   -0.1940    0.0270 C   0  0  0  0  0  0  0  0  0  0  0  0
   -3.1860    0.9790   -0.1150 C   0  0  0  0  0  0  0  0  0  0  0  0
   -1.7820    0.9190   -0.0990 C   0  0  0  0  0  0  0  0  0  0  0  0
   -1.1680   -0.3180    0.0790 C   0  0  0  0  0  0  0  0  0  0  0  0
   -1.8810   -1.5060    0.2220 C   0  0  0  0  0  0  0  0  0  0  0  0
    0.1920   -0.4480    0.1210 O   0  0  0  0  0  0  0  0  0  0  0  0
    0.9480    0.6810   -0.0150 C   0  0  0  0  0  0  0  0  0  0  0  0
    0.4500    1.9180   -0.1990 C   0  0  0  0  0  0  0  0  0  0  0  0
   -0.9870    2.1220   -0.2530 C   0  0  0  0  0  0  0  0  0  0  0  0
   -1.5310    3.2160   -0.4190 O   0  0  0  0  0  0  0  0  0  0  0  0
    2.3730    0.3630    0.0660 C   0  0  0  0  0  0  0  0  0  0  0  0
    2.8890   -0.7330   -0.6220 C   0  0  0  0  0  0  0  0  0  0  0  0
    4.2520   -0.9940   -0.5390 C   0  0  0  0  0  0  0  0  0  0  0  0
    5.0940   -0.1670    0.2260 C   0  0  0  0  0  0  0  0  0  0  0  0
    4.5590    0.9260    0.9120 C   0  0  0  0  0  0  0  0  0  0  0  0
    3.1990    1.1860    0.8280 C   0  0  0  0  0  0  0  0  0  0  0  0
    6.4280   -0.3410    0.3560 O   0  0  0  0  0  0  0  0  0  0  0  0
    4.8640   -2.0230   -1.1840 O   0  0  0  0  0  0  0  0  0  0  0  0
   -3.8650    2.1160   -0.3000 O   0  0  0  0  0  0  0  0  0  0  0  0
   -5.2900   -0.1770    0.1340 O   0  0  0  0  0  0  0  0  0  0  0  0
   -2.9140   -4.1170   -0.2530 H   0  0  0  0  0  0  0  0  0  0  0  0
   -2.9980   -3.7720    1.5110 H   0  0  0  0  0  0  0  0  0  0  0  0
   -4.4380   -4.3940    0.6460 H   0  0  0  0  0  0  0  0  0  0  0  0
   -1.3430   -2.4450    0.3570 H   0  0  0  0  0  0  0  0  0  0  0  0
    1.1000    2.7880   -0.3220 H   0  0  0  0  0  0  0  0  0  0  0  0
    2.2290   -1.3730   -1.2160 H   0  0  0  0  0  0  0  0  0  0  0  0
    5.2140    1.5680    1.5090 H   0  0  0  0  0  0  0  0  0  0  0  0
    2.7800    2.0380    1.3740 H   0  0  0  0  0  0  0  0  0  0  0  0
    6.7080   -1.1310   -0.1220 H   0  0  0  0  0  0  0  0  0  0  0  0
    4.1870   -2.5860   -1.5740 H   0  0  0  0  0  0  0  0  0  0  0  0
   -3.2360    2.8780   -0.3900 H   0  0  0  0  0  0  0  0  0  0  0  0
   -5.6190    0.2520   -0.6670 H   0  0  0  0  0  0  0  0  0  0  0  0
  1 24  1  0
  1  2  1  0
  1 26  1  0
  1 25  1  0
  2  3  1  0
  3  4  2  0
  3  8  1  0
  4  5  1  0
  4 23  1  0
  5 22  1  0
  5  6  2  0
  6 12  1  0
  6  7  1  0
  7  9  1  0
  7  8  2  0
  8 27  1  0
  9 10  1  0
 10 11  2  0
 10 14  1  0
 11 28  1  0
 11 12  1  0
 12 13  2  0
 14 15  2  0
 14 19  1  0
 15 29  1  0
 15 16  1  0
 16 21  1  0
 16 17  2  0
 17 20  1  0
 17 18  1  0
 18 19  2  0
 18 30  1  0
 19 31  1  0
 20 32  1  0
 21 33  1  0
 22 34  1  0
 23 35  1  0
M  END
>  <id>  (1005) 
1127

>  <scaffolds>  (1005) 
['c1ccccc1', 'O=c1cc(-c2ccccc2)oc2ccccc12', 'O=c1ccoc2ccccc12']

>  <name>  (1005) 
Pedalitin

>  <formula>  (1005) 
C16H12O7

>  <SMILES>  (1005) 
COC1=C(C(=C2C(=C1)OC(=CC2=O)C3=CC(=C(C=C3)O)O)O)O

>  <ChEMBL_id>  (1005) 
SCHEMBL6240689

>  <ZINC_id>  (1005) 
ZINC898959

>  <PubChem_id>  (1005) 
31161

>  <DrugBank_id>  (1005) 


>  <CAS_no>  (1005) 
22384-63-0

>  <references>  (1005) 
[{'journal': {'name': 'Natural Product Research', 'id': 18}, 'title': 'A novel daucosterol derivative and antibacterial activity of compounds from Arctotis arctotoides', 'year': 2007, 'start_page': None, 'volume': None, 'issue': None, 'doi': '10.1080/14786410601129606', 'isbn': '', 'despositor': {'code': 'BND', 'first_name': "Bakary N'tji", 'last_name': 'Diallo', 'id': 26}, 'refauthors_set': [{'author': {'first_name': 'Nasim', 'initials': 'SN', 'last_name': 'Sultana', 'id': 1094}, 'first_author': True, 'id': 1677}], 'id': 588}]

>  <classifications>  (1005) 
[{'classification': 'Flavonoids (Classyfire)', 'id': 941}]

>  <molecular_mass>  (1005) 
316.26

$$$$
SANC01128_minRM1.pdb
     RDKit          3D

157161  0  0  1  0  0  0  0  0999 V2000
   -8.0230   -0.1440   -1.4480 C   0  0  2  0  0  0  0  0  0  0  0  0
   -8.8330   -0.4420   -2.7030 C   0  0  0  0  0  0  0  0  0  0  0  0
  -10.0310    0.5140   -2.6100 C   0  0  0  0  0  0  0  0  0  0  0  0
   -9.7170    1.5880   -1.5390 C   0  0  1  0  0  0  0  0  0  0  0  0
  -10.7520    1.5690   -0.4000 C   0  0  2  0  0  0  0  0  0  0  0  0
  -10.5550    2.7490    0.5530 C   0  0  0  0  0  0  0  0  0  0  0  0
  -10.8510    0.2460    0.3760 C   0  0  0  0  0  0  0  0  0  0  0  0
  -12.0780   -0.6020    0.0050 C   0  0  0  0  0  0  0  0  0  0  0  0
  -13.0990   -0.7460    1.1500 C   0  0  2  0  0  0  0  0  0  0  0  0
  -14.0180   -1.9330    0.8330 C   0  0  0  0  0  0  0  0  0  0  0  0
  -14.9040   -2.3280    2.0010 C   0  0  0  0  0  0  0  0  0  0  0  0
  -13.8370    0.5890    1.3620 C   0  0  1  0  0  0  0  0  0  0  0  0
  -14.9740    0.8190    0.3740 C   0  0  0  0  0  0  0  0  0  0  0  0
  -14.3710    0.7290    2.7850 C   0  0  0  0  0  0  0  0  0  0  0  0
   -8.2140    1.3660   -1.2470 C   0  0  2  0  0  0  0  0  0  0  0  0
   -7.4470    2.1740   -2.3040 C   0  0  0  0  0  0  0  0  0  0  0  0
   -7.6680    1.7050    0.1310 C   0  0  0  0  0  0  0  0  0  0  0  0
   -6.1840    1.3400    0.2250 C   0  0  0  0  0  0  0  0  0  0  0  0
   -5.8700   -0.1050   -0.1800 C   0  0  1  0  0  0  0  0  0  0  0  0
   -6.5470   -0.5100   -1.4960 C   0  0  1  0  0  0  0  0  0  0  0  0
   -6.3880   -2.0180   -1.6850 C   0  0  0  0  0  0  0  0  0  0  0  0
   -4.9800   -2.4420   -1.4810 C   0  0  0  0  0  0  0  0  0  0  0  0
   -4.0640   -1.6950   -0.8630 C   0  0  0  0  0  0  0  0  0  0  0  0
   -2.6480   -2.1630   -0.8120 C   0  0  0  0  0  0  0  0  0  0  0  0
   -1.9830   -1.9290    0.5560 C   0  0  2  0  0  0  0  0  0  0  0  0
   -2.9880   -1.4020    1.5790 C   0  0  0  0  0  0  0  0  0  0  0  0
   -3.6750   -0.1420    1.0740 C   0  0  0  0  0  0  0  0  0  0  0  0
   -4.3400   -0.3280   -0.3060 C   0  0  2  0  0  0  0  0  0  0  0  0
   -3.7280    0.6690   -1.3000 C   0  0  0  0  0  0  0  0  0  0  0  0
   -0.9730   -0.9620    0.3380 O   0  0  0  0  0  0  0  0  0  0  0  0
    0.2490   -1.2150    0.9790 C   0  0  2  0  0  0  0  0  0  0  0  0
    0.4880   -0.0050    1.6560 O   0  0  0  0  0  0  0  0  0  0  0  0
    1.8160    0.4360    1.6910 C   0  0  2  0  0  0  0  0  0  0  0  0
    2.0750    1.4010    0.5140 C   0  0  0  0  0  0  0  0  0  0  0  0
    3.3400    1.9690    0.7970 O   0  0  0  0  0  0  0  0  0  0  0  0
    3.8830    2.7820   -0.1460 C   0  0  0  0  0  0  0  0  0  0  0  0
    3.2390    3.0990   -1.1290 O   0  0  0  0  0  0  0  0  0  0  0  0
    5.2950    3.1820    0.1810 C   0  0  0  0  0  0  0  0  0  0  0  0
    6.2570    2.1860   -0.4780 C   0  0  0  0  0  0  0  0  0  0  0  0
    6.9530    1.2960    0.5510 C   0  0  0  0  0  0  0  0  0  0  0  0
    8.0920    2.0200    1.2730 C   0  0  0  0  0  0  0  0  0  0  0  0
    9.4750    1.5660    0.8020 C   0  0  0  0  0  0  0  0  0  0  0  0
    9.7160    1.9010   -0.6650 C   0  0  0  0  0  0  0  0  0  0  0  0
   11.1500    1.6180   -1.1040 C   0  0  0  0  0  0  0  0  0  0  0  0
   11.5820    0.1650   -0.9290 C   0  0  0  0  0  0  0  0  0  0  0  0
   10.6300   -0.8170   -1.6030 C   0  0  0  0  0  0  0  0  0  0  0  0
   11.2740   -2.1800   -1.8630 C   0  0  0  0  0  0  0  0  0  0  0  0
   11.9570   -2.7640   -0.6270 C   0  0  0  0  0  0  0  0  0  0  0  0
   13.4470   -2.4240   -0.6000 C   0  0  0  0  0  0  0  0  0  0  0  0
   14.0220   -2.5320    0.8080 C   0  0  0  0  0  0  0  0  0  0  0  0
   15.5240   -2.2540    0.8180 C   0  0  0  0  0  0  0  0  0  0  0  0
   15.8820   -0.8830    0.2470 C   0  0  0  0  0  0  0  0  0  0  0  0
   15.5540    0.2470    1.2170 C   0  0  0  0  0  0  0  0  0  0  0  0
   15.6210    1.6140    0.5390 C   0  0  0  0  0  0  0  0  0  0  0  0
   17.0030    1.9170   -0.0130 C   0  0  0  0  0  0  0  0  0  0  0  0
    2.8390   -0.7240    1.7200 C   0  0  1  0  0  0  0  0  0  0  0  0
    2.5710   -1.5360    2.8280 O   0  0  0  0  0  0  0  0  0  0  0  0
    2.6800   -1.6760    0.5030 C   0  0  2  0  0  0  0  0  0  0  0  0
    3.6710   -1.2990   -0.4050 O   0  0  0  0  0  0  0  0  0  0  0  0
    1.2870   -1.4860   -0.1450 C   0  0  1  0  0  0  0  0  0  0  0  0
    1.0000   -2.6940   -0.7780 O   0  0  0  0  0  0  0  0  0  0  0  0
   -8.5010   -0.6920   -0.5870 H   0  0  0  0  0  0  0  0  0  0  0  0
   -8.2440   -0.2810   -3.6280 H   0  0  0  0  0  0  0  0  0  0  0  0
   -9.1460   -1.5020   -2.7640 H   0  0  0  0  0  0  0  0  0  0  0  0
  -10.9580   -0.0470   -2.3890 H   0  0  0  0  0  0  0  0  0  0  0  0
  -10.2380    0.9860   -3.5910 H   0  0  0  0  0  0  0  0  0  0  0  0
   -9.8420    2.6030   -2.0050 H   0  0  0  0  0  0  0  0  0  0  0  0
  -11.7410    1.7510   -0.9090 H   0  0  0  0  0  0  0  0  0  0  0  0
  -11.5050    3.0580    1.0170 H   0  0  0  0  0  0  0  0  0  0  0  0
  -10.1660    3.6450    0.0490 H   0  0  0  0  0  0  0  0  0  0  0  0
   -9.8800    2.5450    1.3950 H   0  0  0  0  0  0  0  0  0  0  0  0
  -10.8320    0.4330    1.4710 H   0  0  0  0  0  0  0  0  0  0  0  0
   -9.9340   -0.3630    0.2130 H   0  0  0  0  0  0  0  0  0  0  0  0
  -12.5910   -0.2180   -0.9000 H   0  0  0  0  0  0  0  0  0  0  0  0
  -11.7230   -1.6080   -0.3080 H   0  0  0  0  0  0  0  0  0  0  0  0
  -12.5420   -0.9970    2.0910 H   0  0  0  0  0  0  0  0  0  0  0  0
  -13.4020   -2.8170    0.5500 H   0  0  0  0  0  0  0  0  0  0  0  0
  -14.6290   -1.7420   -0.0740 H   0  0  0  0  0  0  0  0  0  0  0  0
  -15.5900   -1.5230    2.3100 H   0  0  0  0  0  0  0  0  0  0  0  0
  -14.3210   -2.6000    2.8930 H   0  0  0  0  0  0  0  0  0  0  0  0
  -15.5330   -3.1970    1.7590 H   0  0  0  0  0  0  0  0  0  0  0  0
  -13.0910    1.4150    1.2130 H   0  0  0  0  0  0  0  0  0  0  0  0
  -14.6680    0.6690   -0.6700 H   0  0  0  0  0  0  0  0  0  0  0  0
  -15.8420    0.1680    0.5500 H   0  0  0  0  0  0  0  0  0  0  0  0
  -15.3560    1.8500    0.4350 H   0  0  0  0  0  0  0  0  0  0  0  0
  -14.8120    1.7220    2.9560 H   0  0  0  0  0  0  0  0  0  0  0  0
  -15.1580   -0.0050    3.0190 H   0  0  0  0  0  0  0  0  0  0  0  0
  -13.5840    0.6040    3.5430 H   0  0  0  0  0  0  0  0  0  0  0  0
   -6.4050    1.8410   -2.4360 H   0  0  0  0  0  0  0  0  0  0  0  0
   -7.4070    3.2430   -2.0500 H   0  0  0  0  0  0  0  0  0  0  0  0
   -7.8920    2.1110   -3.3080 H   0  0  0  0  0  0  0  0  0  0  0  0
   -8.2320    1.1770    0.9280 H   0  0  0  0  0  0  0  0  0  0  0  0
   -7.7940    2.7850    0.3560 H   0  0  0  0  0  0  0  0  0  0  0  0
   -5.8380    1.5140    1.2680 H   0  0  0  0  0  0  0  0  0  0  0  0
   -5.5770    2.0610   -0.3680 H   0  0  0  0  0  0  0  0  0  0  0  0
   -6.2580   -0.7800    0.6290 H   0  0  0  0  0  0  0  0  0  0  0  0
   -6.0580    0.0210   -2.3550 H   0  0  0  0  0  0  0  0  0  0  0  0
   -7.0420   -2.5900   -0.9900 H   0  0  0  0  0  0  0  0  0  0  0  0
   -6.7330   -2.3170   -2.6990 H   0  0  0  0  0  0  0  0  0  0  0  0
   -4.7360   -3.4320   -1.8810 H   0  0  0  0  0  0  0  0  0  0  0  0
   -2.5700   -3.2430   -1.0650 H   0  0  0  0  0  0  0  0  0  0  0  0
   -2.0930   -1.6630   -1.6390 H   0  0  0  0  0  0  0  0  0  0  0  0
   -1.5580   -2.9040    0.9280 H   0  0  0  0  0  0  0  0  0  0  0  0
   -2.4800   -1.2030    2.5470 H   0  0  0  0  0  0  0  0  0  0  0  0
   -3.7340   -2.1940    1.8030 H   0  0  0  0  0  0  0  0  0  0  0  0
   -2.9370    0.6900    1.0530 H   0  0  0  0  0  0  0  0  0  0  0  0
   -4.4090    0.1910    1.8400 H   0  0  0  0  0  0  0  0  0  0  0  0
   -4.0690    0.4960   -2.3310 H   0  0  0  0  0  0  0  0  0  0  0  0
   -3.9870    1.7120   -1.0540 H   0  0  0  0  0  0  0  0  0  0  0  0
   -2.6300    0.6210   -1.3200 H   0  0  0  0  0  0  0  0  0  0  0  0
    0.2320   -2.0500    1.7350 H   0  0  0  0  0  0  0  0  0  0  0  0
    1.8500    1.0130    2.6550 H   0  0  0  0  0  0  0  0  0  0  0  0
    1.2880    2.1860    0.4600 H   0  0  0  0  0  0  0  0  0  0  0  0
    2.0660    0.8870   -0.4760 H   0  0  0  0  0  0  0  0  0  0  0  0
    5.4630    4.2140   -0.1950 H   0  0  0  0  0  0  0  0  0  0  0  0
    5.4520    3.2580    1.2770 H   0  0  0  0  0  0  0  0  0  0  0  0
    5.7260    1.5540   -1.2230 H   0  0  0  0  0  0  0  0  0  0  0  0
    7.0030    2.7360   -1.0890 H   0  0  0  0  0  0  0  0  0  0  0  0
    6.2070    0.9140    1.2820 H   0  0  0  0  0  0  0  0  0  0  0  0
    7.3200    0.3690    0.0600 H   0  0  0  0  0  0  0  0  0  0  0  0
    8.0120    1.8460    2.3690 H   0  0  0  0  0  0  0  0  0  0  0  0
    7.9970    3.1220    1.1750 H   0  0  0  0  0  0  0  0  0  0  0  0
   10.2580    2.0400    1.4330 H   0  0  0  0  0  0  0  0  0  0  0  0
    9.5930    0.4780    0.9880 H   0  0  0  0  0  0  0  0  0  0  0  0
    9.4900    2.9750   -0.8470 H   0  0  0  0  0  0  0  0  0  0  0  0
    9.0010    1.3590   -1.3180 H   0  0  0  0  0  0  0  0  0  0  0  0
   11.8530    2.2780   -0.5510 H   0  0  0  0  0  0  0  0  0  0  0  0
   11.2720    1.9190   -2.1670 H   0  0  0  0  0  0  0  0  0  0  0  0
   11.6950   -0.0740    0.1500 H   0  0  0  0  0  0  0  0  0  0  0  0
   12.6130    0.0370   -1.3350 H   0  0  0  0  0  0  0  0  0  0  0  0
   10.2620   -0.4020   -2.5660 H   0  0  0  0  0  0  0  0  0  0  0  0
    9.7140   -0.9490   -0.9880 H   0  0  0  0  0  0  0  0  0  0  0  0
   11.9880   -2.1140   -2.7120 H   0  0  0  0  0  0  0  0  0  0  0  0
   10.4940   -2.8810   -2.2310 H   0  0  0  0  0  0  0  0  0  0  0  0
   11.4430   -2.4290    0.2980 H   0  0  0  0  0  0  0  0  0  0  0  0
   11.8320   -3.8690   -0.6040 H   0  0  0  0  0  0  0  0  0  0  0  0
   13.9990   -3.0870   -1.2990 H   0  0  0  0  0  0  0  0  0  0  0  0
   13.6280   -1.3970   -1.0000 H   0  0  0  0  0  0  0  0  0  0  0  0
   13.8240   -3.5420    1.2270 H   0  0  0  0  0  0  0  0  0  0  0  0
   13.4920   -1.8410    1.4970 H   0  0  0  0  0  0  0  0  0  0  0  0
   16.0510   -3.0450    0.2430 H   0  0  0  0  0  0  0  0  0  0  0  0
   15.9210   -2.3540    1.8510 H   0  0  0  0  0  0  0  0  0  0  0  0
   15.3680   -0.7230   -0.7260 H   0  0  0  0  0  0  0  0  0  0  0  0
   16.9650   -0.8640   -0.0040 H   0  0  0  0  0  0  0  0  0  0  0  0
   14.5420    0.1090    1.6550 H   0  0  0  0  0  0  0  0  0  0  0  0
   16.2380    0.2150    2.0910 H   0  0  0  0  0  0  0  0  0  0  0  0
   15.3230    2.4030    1.2640 H   0  0  0  0  0  0  0  0  0  0  0  0
   14.8610    1.6840   -0.2690 H   0  0  0  0  0  0  0  0  0  0  0  0
   17.2520    1.3040   -0.8920 H   0  0  0  0  0  0  0  0  0  0  0  0
   17.0920    2.9640   -0.3360 H   0  0  0  0  0  0  0  0  0  0  0  0
   17.7960    1.7470    0.7300 H   0  0  0  0  0  0  0  0  0  0  0  0
    3.8820   -0.3030    1.7580 H   0  0  0  0  0  0  0  0  0  0  0  0
    2.8080   -1.0420    3.6180 H   0  0  0  0  0  0  0  0  0  0  0  0
    2.8170   -2.7470    0.8300 H   0  0  0  0  0  0  0  0  0  0  0  0
    3.6590   -1.9440   -1.1200 H   0  0  0  0  0  0  0  0  0  0  0  0
    1.2980   -0.6260   -0.8770 H   0  0  0  0  0  0  0  0  0  0  0  0
    0.1850   -2.5720   -1.2790 H   0  0  0  0  0  0  0  0  0  0  0  0
  1  2  1  0
  1 20  1  0
  1 15  1  0
  1 62  1  1
  2 63  1  0
  2 64  1  0
  2  3  1  0
  3 66  1  0
  3 65  1  0
  3  4  1  0
  4 67  1  6
  4 15  1  0
  4  5  1  0
  5 68  1  6
  5  7  1  0
  5  6  1  0
  6 70  1  0
  6 69  1  0
  6 71  1  0
  7  8  1  0
  7 73  1  0
  7 72  1  0
  8 74  1  0
  8 75  1  0
  8  9  1  0
  9 10  1  0
  9 12  1  0
  9 76  1  1
 10 78  1  0
 10 77  1  0
 10 11  1  0
 11 81  1  0
 11 79  1  0
 11 80  1  0
 12 13  1  0
 12 82  1  6
 12 14  1  0
 13 83  1  0
 13 85  1  0
 13 84  1  0
 14 86  1  0
 14 87  1  0
 14 88  1  0
 15 16  1  6
 15 17  1  0
 16 91  1  0
 16 89  1  0
 16 90  1  0
 17 18  1  0
 17 93  1  0
 17 92  1  0
 18 95  1  0
 18 19  1  0
 18 94  1  0
 19 20  1  0
 19 28  1  0
 19 96  1  1
 20 97  1  6
 20 21  1  0
 21 99  1  0
 21 22  1  0
 21 98  1  0
 22100  1  0
 22 23  2  0
 23 24  1  0
 23 28  1  0
 24102  1  0
 24101  1  0
 24 25  1  0
 25 30  1  0
 25103  1  1
 25 26  1  0
 26 27  1  0
 26105  1  0
 26104  1  0
 27 28  1  0
 27106  1  0
 27107  1  0
 28 29  1  6
 29108  1  0
 29110  1  0
 29109  1  0
 30 31  1  0
 31 60  1  0
 31 32  1  0
 31111  1  1
 32 33  1  0
 33 34  1  0
 33 56  1  0
 33112  1  1
 34114  1  0
 34113  1  0
 34 35  1  0
 35 36  1  0
 36 37  2  0
 36 38  1  0
 38 39  1  0
 38115  1  0
 38116  1  0
 39117  1  0
 39118  1  0
 39 40  1  0
 40120  1  0
 40 41  1  0
 40119  1  0
 41 42  1  0
 41122  1  0
 41121  1  0
 42 43  1  0
 42124  1  0
 42123  1  0
 43126  1  0
 43 44  1  0
 43125  1  0
 44128  1  0
 44 45  1  0
 44127  1  0
 45 46  1  0
 45130  1  0
 45129  1  0
 46131  1  0
 46 47  1  0
 46132  1  0
 47133  1  0
 47134  1  0
 47 48  1  0
 48136  1  0
 48 49  1  0
 48135  1  0
 49137  1  0
 49138  1  0
 49 50  1  0
 50 51  1  0
 50139  1  0
 50140  1  0
 51141  1  0
 51 52  1  0
 51142  1  0
 52143  1  0
 52144  1  0
 52 53  1  0
 53 54  1  0
 53145  1  0
 53146  1  0
 54148  1  0
 54 55  1  0
 54147  1  0
 55149  1  0
 55150  1  0
 55151  1  0
 56 58  1  0
 56152  1  1
 56 57  1  0
 57153  1  0
 58 59  1  0
 58 60  1  0
 58154  1  1
 59155  1  0
 60156  1  6
 60 61  1  0
 61157  1  0
M  END
>  <id>  (1006) 
1128

>  <scaffolds>  (1006) 
['C1=C2CCCCC2C2CCC3CCCC3C2C1', 'C1=CCCCC1', 'C1=CCC2CCCCC2C1', 'C1CCOCC1', 'C1=C2CC(OC3CCCCO3)CCC2C2CCC3CCCC3C2C1', 'C1CCCCC1', 'C1=C2CCCCC2CCC1']

>  <name>  (1006) 
3-O-[beta-D-(6'-nonadecanoate)glucopyranosyl]-beta-sitosterol

>  <formula>  (1006) 
C54H96O7

>  <SMILES>  (1006) 
[H][C@@]12CCC(C(C)CCC(CC)C(C)C)[C@@]1(C)CC[C@@]1([H])[C@H]2CC=C2CC(CC[C@]12C)O[C@@H]1O[C@H](COC(=O)CCCCCCCCCCCCCCCCCC)[C@@H](O)[C@H](O)[C@H]1O

>  <ChEMBL_id>  (1006) 


>  <ZINC_id>  (1006) 


>  <PubChem_id>  (1006) 


>  <DrugBank_id>  (1006) 


>  <CAS_no>  (1006) 
956699-41-5

>  <references>  (1006) 
[{'journal': {'name': 'Natural Product Research', 'id': 18}, 'title': 'A novel daucosterol derivative and antibacterial activity of compounds from Arctotis arctotoides', 'year': 2007, 'start_page': None, 'volume': None, 'issue': None, 'doi': '10.1080/14786410601129606', 'isbn': '', 'despositor': {'code': 'BND', 'first_name': "Bakary N'tji", 'last_name': 'Diallo', 'id': 26}, 'refauthors_set': [{'author': {'first_name': 'Nasim', 'initials': 'SN', 'last_name': 'Sultana', 'id': 1094}, 'first_author': True, 'id': 1677}], 'id': 588}]

>  <classifications>  (1006) 
[{'classification': 'Steroids and steroid derivatives (Classyfire)', 'id': 942}]

>  <molecular_mass>  (1006) 
857.336

$$$$
SANC01129_minRM1.pdb
     RDKit          3D

101105  0  0  1  0  0  0  0  0999 V2000
    9.4930   -2.4620    0.6210 C   0  0  0  0  0  0  0  0  0  0  0  0
    9.9370   -1.1540   -0.0170 C   0  0  0  0  0  0  0  0  0  0  0  0
    9.1490    0.0490    0.5220 C   0  0  2  0  0  0  0  0  0  0  0  0
    7.7360    0.1120   -0.0850 C   0  0  0  0  0  0  0  0  0  0  0  0
    6.6830    0.4360    0.9810 C   0  0  0  0  0  0  0  0  0  0  0  0
    5.3650   -0.3510    0.8480 C   0  0  2  0  0  0  0  0  0  0  0  0
    5.6950   -1.8320    0.7160 C   0  0  0  0  0  0  0  0  0  0  0  0
    4.5050    0.1890   -0.3060 C   0  0  2  0  0  0  0  0  0  0  0  0
    4.0640    1.6370   -0.0090 C   0  0  0  0  0  0  0  0  0  0  0  0
    2.5670    1.7380   -0.3030 C   0  0  0  0  0  0  0  0  0  0  0  0
    2.2560    0.5280   -1.1790 C   0  0  2  0  0  0  0  0  0  0  0  0
    0.7760    0.1310   -1.2300 C   0  0  2  0  0  0  0  0  0  0  0  0
   -0.1070    1.2920   -1.7200 C   0  0  0  0  0  0  0  0  0  0  0  0
   -1.3440    1.5300   -0.9250 C   0  0  0  0  0  0  0  0  0  0  0  0
   -1.8670    0.6450   -0.0700 C   0  0  0  0  0  0  0  0  0  0  0  0
   -2.9730    1.0570    0.8420 C   0  0  0  0  0  0  0  0  0  0  0  0
   -3.7930   -0.0560    1.5140 C   0  0  2  0  0  0  0  0  0  0  0  0
   -3.2000   -1.4580    1.3700 C   0  0  0  0  0  0  0  0  0  0  0  0
   -1.6820   -1.3860    1.3520 C   0  0  0  0  0  0  0  0  0  0  0  0
   -1.2180   -0.6980    0.0660 C   0  0  1  0  0  0  0  0  0  0  0  0
   -1.6070   -1.5660   -1.1320 C   0  0  0  0  0  0  0  0  0  0  0  0
    0.3000   -0.4140    0.1160 C   0  0  1  0  0  0  0  0  0  0  0  0
    1.1420   -1.6340    0.4640 C   0  0  0  0  0  0  0  0  0  0  0  0
    2.5920   -1.2020    0.6350 C   0  0  0  0  0  0  0  0  0  0  0  0
    3.1880   -0.5770   -0.6250 C   0  0  2  0  0  0  0  0  0  0  0  0
    3.4120   -1.6410   -1.6960 C   0  0  0  0  0  0  0  0  0  0  0  0
   -5.1470   -0.0700    1.1240 O   0  0  0  0  0  0  0  0  0  0  0  0
   -5.4160   -0.1320   -0.2460 C   0  0  2  0  0  0  0  0  0  0  0  0
   -5.9640    1.1040   -0.5900 O   0  0  0  0  0  0  0  0  0  0  0  0
   -7.2410    1.4290   -0.1240 C   0  0  2  0  0  0  0  0  0  0  0  0
   -7.2940    1.6670    1.4010 C   0  0  0  0  0  0  0  0  0  0  0  0
   -8.3660    2.4980    1.7150 O   0  0  0  0  0  0  0  0  0  0  0  0
   -8.2620    0.3870   -0.6150 C   0  0  1  0  0  0  0  0  0  0  0  0
   -8.4710    0.4920   -1.9880 O   0  0  0  0  0  0  0  0  0  0  0  0
   -7.8490   -1.0660   -0.2670 C   0  0  2  0  0  0  0  0  0  0  0  0
   -8.2270   -1.3810    1.0320 O   0  0  0  0  0  0  0  0  0  0  0  0
   -6.3470   -1.3530   -0.4950 C   0  0  1  0  0  0  0  0  0  0  0  0
   -6.1140   -1.8620   -1.7670 O   0  0  0  0  0  0  0  0  0  0  0  0
    9.9580    1.3400    0.2980 C   0  0  2  0  0  0  0  0  0  0  0  0
    9.2020    2.5600    0.8140 C   0  0  0  0  0  0  0  0  0  0  0  0
   10.3370    1.5520   -1.1620 C   0  0  0  0  0  0  0  0  0  0  0  0
   10.1300   -3.3020    0.3060 H   0  0  0  0  0  0  0  0  0  0  0  0
    8.4650   -2.7420    0.3550 H   0  0  0  0  0  0  0  0  0  0  0  0
    9.5380   -2.4340    1.7200 H   0  0  0  0  0  0  0  0  0  0  0  0
    9.8520   -1.2230   -1.1210 H   0  0  0  0  0  0  0  0  0  0  0  0
   11.0240   -1.0200    0.1710 H   0  0  0  0  0  0  0  0  0  0  0  0
    9.0520   -0.0800    1.6340 H   0  0  0  0  0  0  0  0  0  0  0  0
    7.4910   -0.8430   -0.6020 H   0  0  0  0  0  0  0  0  0  0  0  0
    7.6810    0.8480   -0.9140 H   0  0  0  0  0  0  0  0  0  0  0  0
    6.4900    1.5280    0.9950 H   0  0  0  0  0  0  0  0  0  0  0  0
    7.0980    0.2370    1.9950 H   0  0  0  0  0  0  0  0  0  0  0  0
    4.8040   -0.2110    1.8110 H   0  0  0  0  0  0  0  0  0  0  0  0
    4.8130   -2.4830    0.8140 H   0  0  0  0  0  0  0  0  0  0  0  0
    6.1710   -2.0680   -0.2490 H   0  0  0  0  0  0  0  0  0  0  0  0
    6.3910   -2.1600    1.5030 H   0  0  0  0  0  0  0  0  0  0  0  0
    5.1430    0.1850   -1.2260 H   0  0  0  0  0  0  0  0  0  0  0  0
    4.2690    1.9550    1.0320 H   0  0  0  0  0  0  0  0  0  0  0  0
    4.6410    2.3540   -0.6280 H   0  0  0  0  0  0  0  0  0  0  0  0
    2.3090    2.6980   -0.7930 H   0  0  0  0  0  0  0  0  0  0  0  0
    1.9660    1.7400    0.6290 H   0  0  0  0  0  0  0  0  0  0  0  0
    2.5690    0.7720   -2.2290 H   0  0  0  0  0  0  0  0  0  0  0  0
    0.7030   -0.6910   -1.9920 H   0  0  0  0  0  0  0  0  0  0  0  0
    0.4630    2.2460   -1.7610 H   0  0  0  0  0  0  0  0  0  0  0  0
   -0.3980    1.1240   -2.7810 H   0  0  0  0  0  0  0  0  0  0  0  0
   -1.8010    2.5150   -1.0710 H   0  0  0  0  0  0  0  0  0  0  0  0
   -2.4950    1.6610    1.6490 H   0  0  0  0  0  0  0  0  0  0  0  0
   -3.6460    1.7890    0.3420 H   0  0  0  0  0  0  0  0  0  0  0  0
   -3.9100    0.1900    2.6050 H   0  0  0  0  0  0  0  0  0  0  0  0
   -3.5690   -1.9740    0.4540 H   0  0  0  0  0  0  0  0  0  0  0  0
   -3.5550   -2.1060    2.1980 H   0  0  0  0  0  0  0  0  0  0  0  0
   -1.3040   -0.8520    2.2490 H   0  0  0  0  0  0  0  0  0  0  0  0
   -1.2570   -2.4090    1.4270 H   0  0  0  0  0  0  0  0  0  0  0  0
   -0.9920   -2.4730   -1.2140 H   0  0  0  0  0  0  0  0  0  0  0  0
   -2.6530   -1.9130   -1.0700 H   0  0  0  0  0  0  0  0  0  0  0  0
   -1.5350   -1.0370   -2.0930 H   0  0  0  0  0  0  0  0  0  0  0  0
    0.4620    0.3640    0.9100 H   0  0  0  0  0  0  0  0  0  0  0  0
    1.0450   -2.4400   -0.2920 H   0  0  0  0  0  0  0  0  0  0  0  0
    0.7960   -2.1110    1.4060 H   0  0  0  0  0  0  0  0  0  0  0  0
    3.1930   -2.0830    0.9560 H   0  0  0  0  0  0  0  0  0  0  0  0
    2.6630   -0.4920    1.4870 H   0  0  0  0  0  0  0  0  0  0  0  0
    3.8590   -1.2290   -2.6140 H   0  0  0  0  0  0  0  0  0  0  0  0
    4.0810   -2.4490   -1.3710 H   0  0  0  0  0  0  0  0  0  0  0  0
    2.4800   -2.1300   -2.0100 H   0  0  0  0  0  0  0  0  0  0  0  0
   -4.5070   -0.1800   -0.9120 H   0  0  0  0  0  0  0  0  0  0  0  0
   -7.4180    2.4140   -0.6400 H   0  0  0  0  0  0  0  0  0  0  0  0
   -6.3960    2.2320    1.7370 H   0  0  0  0  0  0  0  0  0  0  0  0
   -7.3000    0.7240    1.9950 H   0  0  0  0  0  0  0  0  0  0  0  0
   -9.1770    1.9840    1.6480 H   0  0  0  0  0  0  0  0  0  0  0  0
   -9.2820    0.5940   -0.1940 H   0  0  0  0  0  0  0  0  0  0  0  0
   -7.6280    0.6440   -2.4290 H   0  0  0  0  0  0  0  0  0  0  0  0
   -8.4680   -1.7810   -0.8790 H   0  0  0  0  0  0  0  0  0  0  0  0
   -7.6630   -0.8880    1.6450 H   0  0  0  0  0  0  0  0  0  0  0  0
   -6.0250   -2.2080    0.1620 H   0  0  0  0  0  0  0  0  0  0  0  0
   -6.4200   -1.2260   -2.4220 H   0  0  0  0  0  0  0  0  0  0  0  0
   10.9070    1.2530    0.8930 H   0  0  0  0  0  0  0  0  0  0  0  0
    8.7850    2.3980    1.8190 H   0  0  0  0  0  0  0  0  0  0  0  0
    9.8580    3.4410    0.8880 H   0  0  0  0  0  0  0  0  0  0  0  0
    8.3680    2.8560    0.1640 H   0  0  0  0  0  0  0  0  0  0  0  0
   10.7990    2.5380   -1.3230 H   0  0  0  0  0  0  0  0  0  0  0  0
   11.0700    0.8160   -1.5220 H   0  0  0  0  0  0  0  0  0  0  0  0
    9.4750    1.4980   -1.8420 H   0  0  0  0  0  0  0  0  0  0  0  0
  1  2  1  0
  1 42  1  0
  1 43  1  0
  1 44  1  0
  2 45  1  0
  2 46  1  0
  2  3  1  0
  3  4  1  0
  3 39  1  0
  3 47  1  1
  4 49  1  0
  4 48  1  0
  4  5  1  0
  5  6  1  0
  5 50  1  0
  5 51  1  0
  6  8  1  0
  6  7  1  0
  6 52  1  1
  7 54  1  0
  7 53  1  0
  7 55  1  0
  8 56  1  6
  8 25  1  0
  8  9  1  0
  9 58  1  0
  9 10  1  0
  9 57  1  0
 10 11  1  0
 10 59  1  0
 10 60  1  0
 11 61  1  6
 11 12  1  0
 11 25  1  0
 12 62  1  6
 12 13  1  0
 12 22  1  0
 13 64  1  0
 13 63  1  0
 13 14  1  0
 14 65  1  0
 14 15  2  0
 15 20  1  0
 15 16  1  0
 16 67  1  0
 16 17  1  0
 16 66  1  0
 17 27  1  0
 17 18  1  0
 17 68  1  1
 18 69  1  0
 18 19  1  0
 18 70  1  0
 19 20  1  0
 19 72  1  0
 19 71  1  0
 20 21  1  6
 20 22  1  0
 21 75  1  0
 21 73  1  0
 21 74  1  0
 22 23  1  0
 22 76  1  1
 23 77  1  0
 23 24  1  0
 23 78  1  0
 24 25  1  0
 24 79  1  0
 24 80  1  0
 25 26  1  6
 26 81  1  0
 26 83  1  0
 26 82  1  0
 27 28  1  0
 28 84  1  6
 28 29  1  0
 28 37  1  0
 29 30  1  0
 30 85  1  6
 30 33  1  0
 30 31  1  0
 31 32  1  0
 31 86  1  0
 31 87  1  0
 32 88  1  0
 33 34  1  0
 33 35  1  0
 33 89  1  1
 34 90  1  0
 35 91  1  6
 35 37  1  0
 35 36  1  0
 36 92  1  0
 37 38  1  0
 37 93  1  1
 38 94  1  0
 39 41  1  0
 39 40  1  0
 39 95  1  1
 40 98  1  0
 40 97  1  0
 40 96  1  0
 41101  1  0
 41100  1  0
 41 99  1  0
M  END
>  <id>  (1007) 
1129

>  <scaffolds>  (1007) 
['C1=C2CCCCC2C2CCC3CCCC3C2C1', 'C1=CCCCC1', 'C1=CCC2CCCCC2C1', 'C1CCOCC1', 'C1=C2CC(OC3CCCCO3)CCC2C2CCC3CCCC3C2C1', 'C1CCCCC1', 'C1=C2CCCCC2CCC1']

>  <name>  (1007) 
3-O-[beta-D-glucopyranosyl]-beta-sitosterol

>  <formula>  (1007) 
C35H60O6

>  <SMILES>  (1007) 
C[C@@]12[C@]([C@]3([C@@]([C@]4(C)C(=CC3)C[C@@H](O[C@@H]5O[C@H](CO)[C@@H](O)[C@H](O)[C@H]5O)CC4)(CC1)[H])[H])(CC[C@@]2([C@@H](CC[C@H](C(C)C)CC)C)[H])[H]

>  <ChEMBL_id>  (1007) 


>  <ZINC_id>  (1007) 


>  <PubChem_id>  (1007) 


>  <DrugBank_id>  (1007) 


>  <CAS_no>  (1007) 
474-58-8

>  <references>  (1007) 
[{'journal': {'name': 'Natural Product Research', 'id': 18}, 'title': 'A novel daucosterol derivative and antibacterial activity of compounds from Arctotis arctotoides', 'year': 2007, 'start_page': None, 'volume': None, 'issue': None, 'doi': '10.1080/14786410601129606', 'isbn': '', 'despositor': {'code': 'BND', 'first_name': "Bakary N'tji", 'last_name': 'Diallo', 'id': 26}, 'refauthors_set': [{'author': {'first_name': 'Nasim', 'initials': 'SN', 'last_name': 'Sultana', 'id': 1094}, 'first_author': True, 'id': 1677}], 'id': 588}]

>  <classifications>  (1007) 
[{'classification': 'Steroids and steroid derivatives (Classyfire)', 'id': 942}]

>  <molecular_mass>  (1007) 
576.847

$$$$
SANC01130_minRM1.pdb
     RDKit          3D

 35 37  0  0  1  0  0  0  0  0999 V2000
    2.7960    1.8230    0.2000 C   0  0  0  0  0  0  0  0  0  0  0  0
    2.9780    0.3470    0.5610 C   0  0  0  0  0  0  0  0  0  0  0  0
    2.0460   -0.4040   -0.4010 C   0  0  1  0  0  0  0  0  0  0  0  0
    1.6860   -1.7880    0.0220 C   0  0  0  0  0  0  0  0  0  0  0  0
    2.2250   -2.4090    1.0670 C   0  0  0  0  0  0  0  0  0  0  0  0
    0.7290   -2.5090   -0.8740 C   0  0  0  0  0  0  0  0  0  0  0  0
   -0.6170   -1.8010   -1.0080 C   0  0  0  0  0  0  0  0  0  0  0  0
   -1.0020   -1.0810    0.2800 C   0  0  1  0  0  0  0  0  0  0  0  0
   -0.2280    0.2530    0.5020 C   0  0  2  0  0  0  0  0  0  0  0  0
   -1.1760    1.3100    0.4630 O   0  0  0  0  0  0  0  0  0  0  0  0
   -2.4400    0.8240    0.2990 C   0  0  0  0  0  0  0  0  0  0  0  0
   -3.3540    1.6180    0.2400 O   0  0  0  0  0  0  0  0  0  0  0  0
   -2.4300   -0.6450    0.2280 C   0  0  0  0  0  0  0  0  0  0  0  0
   -3.5150   -1.4000    0.1480 C   0  0  0  0  0  0  0  0  0  0  0  0
    0.8380    0.5440   -0.5630 C   0  0  1  0  0  0  0  0  0  0  0  0
    1.4220    1.9140   -0.3770 C   0  0  0  0  0  0  0  0  0  0  0  0
    0.8220    3.0480   -0.7090 C   0  0  0  0  0  0  0  0  0  0  0  0
    2.9290    2.4910    1.0730 H   0  0  0  0  0  0  0  0  0  0  0  0
    3.5520    2.1630   -0.5380 H   0  0  0  0  0  0  0  0  0  0  0  0
    4.0290    0.0110    0.4760 H   0  0  0  0  0  0  0  0  0  0  0  0
    2.7050    0.1770    1.6220 H   0  0  0  0  0  0  0  0  0  0  0  0
    2.5620   -0.4940   -1.3940 H   0  0  0  0  0  0  0  0  0  0  0  0
    2.9600   -1.9810    1.7410 H   0  0  0  0  0  0  0  0  0  0  0  0
    1.9830   -3.4300    1.3490 H   0  0  0  0  0  0  0  0  0  0  0  0
    0.5640   -3.5510   -0.5200 H   0  0  0  0  0  0  0  0  0  0  0  0
    1.1960   -2.6410   -1.8750 H   0  0  0  0  0  0  0  0  0  0  0  0
   -1.3990   -2.5390   -1.2820 H   0  0  0  0  0  0  0  0  0  0  0  0
   -0.6110   -1.0890   -1.8630 H   0  0  0  0  0  0  0  0  0  0  0  0
   -0.8390   -1.7630    1.1510 H   0  0  0  0  0  0  0  0  0  0  0  0
    0.2260    0.2870    1.5250 H   0  0  0  0  0  0  0  0  0  0  0  0
   -3.4860   -2.4850    0.1110 H   0  0  0  0  0  0  0  0  0  0  0  0
   -4.5200   -0.9860    0.1180 H   0  0  0  0  0  0  0  0  0  0  0  0
    0.3840    0.4540   -1.5830 H   0  0  0  0  0  0  0  0  0  0  0  0
    1.2760    4.0220   -0.5630 H   0  0  0  0  0  0  0  0  0  0  0  0
   -0.1730    3.1010   -1.1390 H   0  0  0  0  0  0  0  0  0  0  0  0
  1 19  1  0
  1 16  1  0
  1  2  1  0
  1 18  1  0
  2  3  1  0
  2 20  1  0
  2 21  1  0
  3 22  1  6
  3 15  1  0
  3  4  1  0
  4  6  1  0
  4  5  2  0
  5 24  1  0
  5 23  1  0
  6 26  1  0
  6  7  1  0
  6 25  1  0
  7 28  1  0
  7 27  1  0
  7  8  1  0
  8 13  1  0
  8  9  1  0
  8 29  1  1
  9 15  1  0
  9 10  1  0
  9 30  1  1
 10 11  1  0
 11 13  1  0
 11 12  2  0
 13 14  2  0
 14 31  1  0
 14 32  1  0
 15 33  1  6
 15 16  1  0
 16 17  2  0
 17 35  1  0
 17 34  1  0
M  END
>  <id>  (1008) 
1130

>  <scaffolds>  (1008) 
['C=C1C(=O)OC2C1CCC(=C)C1CCC(=C)C12', 'O=C1CCCO1', 'C1CCC2CCCC2CC1']

>  <name>  (1008) 
dehydrocostus lactone

>  <formula>  (1008) 
C15H18O2

>  <SMILES>  (1008) 
[H]C1([H])C[C@@]2([H])C(=C)CCC3[C@H](OC(=O)C3=C)[C@@]2([H])C1=C

>  <ChEMBL_id>  (1008) 


>  <ZINC_id>  (1008) 


>  <PubChem_id>  (1008) 


>  <DrugBank_id>  (1008) 


>  <CAS_no>  (1008) 
477-43-0

>  <references>  (1008) 
[{'journal': {'name': 'Natural Product Research', 'id': 18}, 'title': 'A novel daucosterol derivative and antibacterial activity of compounds from Arctotis arctotoides', 'year': 2007, 'start_page': None, 'volume': None, 'issue': None, 'doi': '10.1080/14786410601129606', 'isbn': '', 'despositor': {'code': 'BND', 'first_name': "Bakary N'tji", 'last_name': 'Diallo', 'id': 26}, 'refauthors_set': [{'author': {'first_name': 'Nasim', 'initials': 'SN', 'last_name': 'Sultana', 'id': 1094}, 'first_author': True, 'id': 1677}], 'id': 588}]

>  <classifications>  (1008) 
[{'classification': 'Phenol lipids (Classyfire)', 'id': 951}]

>  <molecular_mass>  (1008) 
230.302

$$$$
SANC01131_minRM1.pdb
     RDKit          3D

 35 37  0  0  0  0  0  0  0  0999 V2000
    5.9490   -0.2700   -0.4620 C   0  0  0  0  0  0  0  0  0  0  0  0
    5.2180    0.2040    0.6500 O   0  0  0  0  0  0  0  0  0  0  0  0
    3.8710    0.2700    0.4240 C   0  0  0  0  0  0  0  0  0  0  0  0
    3.0820   -0.8710    0.2460 C   0  0  0  0  0  0  0  0  0  0  0  0
    3.6960   -2.0530    0.1770 O   0  0  0  0  0  0  0  0  0  0  0  0
    1.6860   -0.7360    0.1210 C   0  0  0  0  0  0  0  0  0  0  0  0
    1.1200    0.5360    0.2070 C   0  0  0  0  0  0  0  0  0  0  0  0
   -0.2290    0.7330    0.1150 O   0  0  0  0  0  0  0  0  0  0  0  0
   -1.0250   -0.3590   -0.0810 C   0  0  0  0  0  0  0  0  0  0  0  0
   -0.5740   -1.6220   -0.1950 C   0  0  0  0  0  0  0  0  0  0  0  0
    0.8470   -1.8990   -0.0870 C   0  0  0  0  0  0  0  0  0  0  0  0
    1.3450   -3.0260   -0.1630 O   0  0  0  0  0  0  0  0  0  0  0  0
   -2.4330    0.0320   -0.1450 C   0  0  0  0  0  0  0  0  0  0  0  0
   -3.3680   -0.7620    0.5170 C   0  0  0  0  0  0  0  0  0  0  0  0
   -4.7110   -0.4130    0.4490 C   0  0  0  0  0  0  0  0  0  0  0  0
   -5.7000   -1.0980    1.0830 O   0  0  0  0  0  0  0  0  0  0  0  0
   -5.1190    0.7280   -0.2670 C   0  0  0  0  0  0  0  0  0  0  0  0
   -6.3990    1.1470   -0.3720 O   0  0  0  0  0  0  0  0  0  0  0  0
   -4.1690    1.5160   -0.9180 C   0  0  0  0  0  0  0  0  0  0  0  0
   -2.8280    1.1650   -0.8530 C   0  0  0  0  0  0  0  0  0  0  0  0
    1.8730    1.6880    0.3950 C   0  0  0  0  0  0  0  0  0  0  0  0
    3.2620    1.5330    0.5020 C   0  0  0  0  0  0  0  0  0  0  0  0
    3.9500    2.6740    0.6860 O   0  0  0  0  0  0  0  0  0  0  0  0
    6.9680    0.1120   -0.3000 H   0  0  0  0  0  0  0  0  0  0  0  0
    5.9860   -1.3710   -0.4860 H   0  0  0  0  0  0  0  0  0  0  0  0
    5.5820    0.0910   -1.4370 H   0  0  0  0  0  0  0  0  0  0  0  0
    3.0330   -2.7820    0.0480 H   0  0  0  0  0  0  0  0  0  0  0  0
   -1.2480   -2.4610   -0.3810 H   0  0  0  0  0  0  0  0  0  0  0  0
   -3.0480   -1.6390    1.0890 H   0  0  0  0  0  0  0  0  0  0  0  0
   -5.3720   -1.9800    1.2930 H   0  0  0  0  0  0  0  0  0  0  0  0
   -6.9900    0.5250    0.0680 H   0  0  0  0  0  0  0  0  0  0  0  0
   -4.4860    2.4050   -1.4730 H   0  0  0  0  0  0  0  0  0  0  0  0
   -2.0840    1.7840   -1.3650 H   0  0  0  0  0  0  0  0  0  0  0  0
    1.4100    2.6750    0.4630 H   0  0  0  0  0  0  0  0  0  0  0  0
    4.8920    2.4820    0.7930 H   0  0  0  0  0  0  0  0  0  0  0  0
  1 26  1  0
  1 25  1  0
  1 24  1  0
  1  2  1  0
  2  3  1  0
  3  4  2  0
  3 22  1  0
  4  6  1  0
  4  5  1  0
  5 27  1  0
  6 11  1  0
  6  7  2  0
  7  8  1  0
  7 21  1  0
  8  9  1  0
  9 10  2  0
  9 13  1  0
 10 28  1  0
 10 11  1  0
 11 12  2  0
 13 20  2  0
 13 14  1  0
 14 15  2  0
 14 29  1  0
 15 17  1  0
 15 16  1  0
 16 30  1  0
 17 19  2  0
 17 18  1  0
 18 31  1  0
 19 32  1  0
 19 20  1  0
 20 33  1  0
 21 34  1  0
 21 22  2  0
 22 23  1  0
 23 35  1  0
M  END
>  <id>  (1009) 
1131

>  <scaffolds>  (1009) 
['c1ccccc1', 'O=c1cc(-c2ccccc2)oc2ccccc12', 'O=c1ccoc2ccccc12']

>  <name>  (1009) 
Nepetin 

>  <formula>  (1009) 
C16H12O7

>  <SMILES>  (1009) 
COC1=C(O)C2=C(OC(=CC2=O)C2=CC(O)=C(O)C=C2)C=C1O

>  <ChEMBL_id>  (1009) 


>  <ZINC_id>  (1009) 


>  <PubChem_id>  (1009) 


>  <DrugBank_id>  (1009) 


>  <CAS_no>  (1009) 
520-11-6

>  <references>  (1009) 
[{'journal': {'name': 'Natural Product Research', 'id': 18}, 'title': 'A novel daucosterol derivative and antibacterial activity of compounds from Arctotis arctotoides', 'year': 2007, 'start_page': None, 'volume': None, 'issue': None, 'doi': '10.1080/14786410601129606', 'isbn': '', 'despositor': {'code': 'BND', 'first_name': "Bakary N'tji", 'last_name': 'Diallo', 'id': 26}, 'refauthors_set': [{'author': {'first_name': 'Nasim', 'initials': 'SN', 'last_name': 'Sultana', 'id': 1094}, 'first_author': True, 'id': 1677}], 'id': 588}]

>  <classifications>  (1009) 
[{'classification': 'Flavonoids (Classyfire)', 'id': 941}]

>  <molecular_mass>  (1009) 
316.262

$$$$
SANC01132_minRM1.pdb
     RDKit          3D

 81 85  0  0  1  0  0  0  0  0999 V2000
   -5.2870   -3.0350    0.3560 C   0  0  0  0  0  0  0  0  0  0  0  0
   -4.2760   -2.0090   -0.1730 C   0  0  1  0  0  0  0  0  0  0  0  0
   -3.2340   -2.7640   -0.9940 C   0  0  0  0  0  0  0  0  0  0  0  0
   -5.0150   -1.0020   -1.0530 C   0  0  0  0  0  0  0  0  0  0  0  0
   -4.1040    0.1470   -1.4500 C   0  0  0  0  0  0  0  0  0  0  0  0
   -3.6060    0.9090   -0.2190 C   0  0  2  0  0  0  0  0  0  0  0  0
   -2.7920    2.1460   -0.6450 C   0  0  0  0  0  0  0  0  0  0  0  0
   -1.3600    2.1410   -0.1340 C   0  0  0  0  0  0  0  0  0  0  0  0
   -0.6590    0.8070   -0.4100 C   0  0  2  0  0  0  0  0  0  0  0  0
   -0.6420    0.5720   -1.9230 C   0  0  0  0  0  0  0  0  0  0  0  0
   -1.4220   -0.3090    0.2430 C   0  0  0  0  0  0  0  0  0  0  0  0
   -0.7960   -1.4440    0.5600 C   0  0  0  0  0  0  0  0  0  0  0  0
    0.6510   -1.7100    0.3440 C   0  0  0  0  0  0  0  0  0  0  0  0
    1.4560   -0.5170   -0.1800 C   0  0  2  0  0  0  0  0  0  0  0  0
    2.9620   -0.6300    0.2020 C   0  0  1  0  0  0  0  0  0  0  0  0
    3.1280   -0.6990    1.7160 C   0  0  0  0  0  0  0  0  0  0  0  0
    3.5160   -1.9340   -0.4220 C   0  0  0  0  0  0  0  0  0  0  0  0
    4.8260   -1.7510   -1.1780 C   0  0  0  0  0  0  0  0  0  0  0  0
    5.8010   -0.8540   -0.4080 C   0  0  2  0  0  0  0  0  0  0  0  0
    6.0630   -1.3650    0.8670 O   0  0  0  0  0  0  0  0  0  0  0  0
    5.2270    0.5820   -0.2590 C   0  0  1  0  0  0  0  0  0  0  0  0
    5.7330    1.2330    1.0270 C   0  0  0  0  0  0  0  0  0  0  0  0
    5.8070    1.4110   -1.4230 C   0  0  0  0  0  0  0  0  0  0  0  0
    3.6870    0.5840   -0.4090 C   0  0  2  0  0  0  0  0  0  0  0  0
    3.0590    1.8720    0.1180 C   0  0  0  0  0  0  0  0  0  0  0  0
    1.6080    1.9710   -0.3440 C   0  0  0  0  0  0  0  0  0  0  0  0
    0.7790    0.8090    0.2090 C   0  0  1  0  0  0  0  0  0  0  0  0
    0.6480    0.9890    1.7220 C   0  0  0  0  0  0  0  0  0  0  0  0
   -2.8220   -0.0340    0.7040 C   0  0  2  0  0  0  0  0  0  0  0  0
   -3.6500   -1.2850    1.0230 C   0  0  0  0  0  0  0  0  0  0  0  0
   -4.8120    1.4600    0.5390 C   0  0  0  0  0  0  0  0  0  0  0  0
   -5.7980    2.0830   -0.1560 O   0  0  0  0  0  0  0  0  0  0  0  0
   -4.9770    1.4590    1.7450 O   0  0  0  0  0  0  0  0  0  0  0  0
   -4.8170   -3.7760    1.0180 H   0  0  0  0  0  0  0  0  0  0  0  0
   -6.1000   -2.5740    0.9360 H   0  0  0  0  0  0  0  0  0  0  0  0
   -5.7670   -3.5980   -0.4570 H   0  0  0  0  0  0  0  0  0  0  0  0
   -2.4320   -2.1180   -1.3770 H   0  0  0  0  0  0  0  0  0  0  0  0
   -3.6800   -3.2590   -1.8700 H   0  0  0  0  0  0  0  0  0  0  0  0
   -2.7440   -3.5580   -0.4120 H   0  0  0  0  0  0  0  0  0  0  0  0
   -5.9210   -0.6210   -0.5340 H   0  0  0  0  0  0  0  0  0  0  0  0
   -5.4180   -1.5000   -1.9610 H   0  0  0  0  0  0  0  0  0  0  0  0
   -3.2350   -0.2100   -2.0470 H   0  0  0  0  0  0  0  0  0  0  0  0
   -4.6450    0.8310   -2.1460 H   0  0  0  0  0  0  0  0  0  0  0  0
   -3.2800    3.0880   -0.3030 H   0  0  0  0  0  0  0  0  0  0  0  0
   -2.7940    2.2620   -1.7510 H   0  0  0  0  0  0  0  0  0  0  0  0
   -0.8070    2.9860   -0.6000 H   0  0  0  0  0  0  0  0  0  0  0  0
   -1.3380    2.3770    0.9550 H   0  0  0  0  0  0  0  0  0  0  0  0
    0.0640   -0.2170   -2.2320 H   0  0  0  0  0  0  0  0  0  0  0  0
   -0.3740    1.4710   -2.4950 H   0  0  0  0  0  0  0  0  0  0  0  0
   -1.6230    0.2410   -2.3030 H   0  0  0  0  0  0  0  0  0  0  0  0
   -1.3300   -2.2620    1.0630 H   0  0  0  0  0  0  0  0  0  0  0  0
    1.0780   -2.0870    1.3050 H   0  0  0  0  0  0  0  0  0  0  0  0
    0.7430   -2.5780   -0.3470 H   0  0  0  0  0  0  0  0  0  0  0  0
    1.4260   -0.5690   -1.3070 H   0  0  0  0  0  0  0  0  0  0  0  0
    2.3960   -1.3810    2.1820 H   0  0  0  0  0  0  0  0  0  0  0  0
    2.9970    0.2800    2.2060 H   0  0  0  0  0  0  0  0  0  0  0  0
    4.1090   -1.0670    2.0410 H   0  0  0  0  0  0  0  0  0  0  0  0
    3.6430   -2.7140    0.3590 H   0  0  0  0  0  0  0  0  0  0  0  0
    2.7940   -2.4020   -1.1270 H   0  0  0  0  0  0  0  0  0  0  0  0
    4.6530   -1.3320   -2.1910 H   0  0  0  0  0  0  0  0  0  0  0  0
    5.2870   -2.7420   -1.3870 H   0  0  0  0  0  0  0  0  0  0  0  0
    6.7790   -0.8140   -0.9700 H   0  0  0  0  0  0  0  0  0  0  0  0
    6.2790   -2.2970    0.7700 H   0  0  0  0  0  0  0  0  0  0  0  0
    5.5610    2.3190    1.0520 H   0  0  0  0  0  0  0  0  0  0  0  0
    5.2800    0.8250    1.9390 H   0  0  0  0  0  0  0  0  0  0  0  0
    6.8190    1.1000    1.1460 H   0  0  0  0  0  0  0  0  0  0  0  0
    6.8940    1.5540   -1.3320 H   0  0  0  0  0  0  0  0  0  0  0  0
    5.6380    0.9490   -2.4070 H   0  0  0  0  0  0  0  0  0  0  0  0
    5.3750    2.4200   -1.4780 H   0  0  0  0  0  0  0  0  0  0  0  0
    3.4790    0.5500   -1.5150 H   0  0  0  0  0  0  0  0  0  0  0  0
    3.6150    2.7660   -0.2330 H   0  0  0  0  0  0  0  0  0  0  0  0
    3.1120    1.9230    1.2290 H   0  0  0  0  0  0  0  0  0  0  0  0
    1.5640    2.0110   -1.4530 H   0  0  0  0  0  0  0  0  0  0  0  0
    1.1860    2.9460   -0.0190 H   0  0  0  0  0  0  0  0  0  0  0  0
    0.3080    0.0910    2.2520 H   0  0  0  0  0  0  0  0  0  0  0  0
   -0.0670    1.7860    1.9890 H   0  0  0  0  0  0  0  0  0  0  0  0
    1.6010    1.2820    2.1960 H   0  0  0  0  0  0  0  0  0  0  0  0
   -2.6600    0.5000    1.6870 H   0  0  0  0  0  0  0  0  0  0  0  0
   -4.4540   -1.0030    1.7380 H   0  0  0  0  0  0  0  0  0  0  0  0
   -3.0280   -2.0040    1.6050 H   0  0  0  0  0  0  0  0  0  0  0  0
   -5.6210    2.0420   -1.1030 H   0  0  0  0  0  0  0  0  0  0  0  0
  1 36  1  0
  2  1  1  1
  1 35  1  0
  1 34  1  0
  2  4  1  0
  2  3  1  0
  2 30  1  0
  3 38  1  0
  3 37  1  0
  3 39  1  0
  4 41  1  0
  4  5  1  0
  4 40  1  0
  5 43  1  0
  5 42  1  0
  5  6  1  0
  6  7  1  0
  6 31  1  1
  6 29  1  0
  7 45  1  0
  7 44  1  0
  7  8  1  0
  8 46  1  0
  8  9  1  0
  8 47  1  0
  9 10  1  6
  9 27  1  0
  9 11  1  0
 10 49  1  0
 10 50  1  0
 10 48  1  0
 11 12  2  0
 11 29  1  0
 12 13  1  0
 12 51  1  0
 13 53  1  0
 13 14  1  0
 13 52  1  0
 14 54  1  6
 14 15  1  0
 14 27  1  0
 15 17  1  0
 15 24  1  0
 15 16  1  1
 16 57  1  0
 16 55  1  0
 16 56  1  0
 17 18  1  0
 17 59  1  0
 17 58  1  0
 18 60  1  0
 18 61  1  0
 18 19  1  0
 19 62  1  6
 19 21  1  0
 19 20  1  0
 20 63  1  0
 21 23  1  6
 21 24  1  0
 21 22  1  0
 22 64  1  0
 22 66  1  0
 22 65  1  0
 23 68  1  0
 23 69  1  0
 23 67  1  0
 24 70  1  6
 24 25  1  0
 25 26  1  0
 25 71  1  0
 25 72  1  0
 26 73  1  0
 26 74  1  0
 26 27  1  0
 27 28  1  1
 28 76  1  0
 28 77  1  0
 28 75  1  0
 29 30  1  0
 29 78  1  1
 30 80  1  0
 30 79  1  0
 31 32  1  0
 31 33  2  0
 32 81  1  0
M  END
>  <id>  (1010) 
1132

>  <scaffolds>  (1010) 
['C1=C2C3CCCCC3CCC2C2CCC3CCCCC3C2C1', 'C1=CCCCC1', 'C1=CCC2CCCCC2C1', 'C1CCCCC1', 'C=C1CCCC2CCCCC12', 'C1=C2CCCCC2CCC1', 'C1=C2C3CCCCC3CCC2C2CCCCC2C1', 'C1CCC2CCCCC2C1']

>  <name>  (1010) 
Oleanolic acid

>  <formula>  (1010) 
C30H48O3

>  <SMILES>  (1010) 
CC1(C)CC[C@@]2(CC[C@]3(C)C(=CC[C@@H]4[C@@]5(C)CC[C@H](O)C(C)(C)[C@@H]5CC[C@@]34C)[C@@H]2C1)C(O)=O

>  <ChEMBL_id>  (1010) 


>  <ZINC_id>  (1010) 


>  <PubChem_id>  (1010) 


>  <DrugBank_id>  (1010) 


>  <CAS_no>  (1010) 


>  <references>  (1010) 
[{'journal': {'name': 'African Journal of Traditional, Complementary and Alternative Medicines', 'id': 78}, 'title': 'Cytotoxicity, phytochemical analysis and antioxidant activity of crude extracts from rhizomes of Elephantorrhiza elephantina and Pentanisia prunelloides.', 'year': 2014, 'start_page': None, 'volume': None, 'issue': None, 'doi': '10.4314/ajtcam.v11i1.6', 'isbn': '', 'despositor': {'code': 'BND', 'first_name': "Bakary N'tji", 'last_name': 'Diallo', 'id': 26}, 'refauthors_set': [{'author': {'first_name': ' S. J.', 'initials': 'JSM', 'last_name': 'Mpofu', 'id': 1089}, 'first_author': True, 'id': 1676}], 'id': 587}]

>  <classifications>  (1010) 
[{'classification': 'Phenol lipids (Classyfire)', 'id': 951}]

>  <molecular_mass>  (1010) 
456.7

$$$$
SANC01133_minRM1.pdb
     RDKit          3D

 21 21  0  0  1  0  0  0  0  0999 V2000
    0.1860   -2.4250    0.2320 C   0  0  0  0  0  0  0  0  0  0  0  0
   -0.3210   -1.0840   -0.1200 N   0  0  0  0  0  0  0  0  0  0  0  0
   -1.7660   -0.9050    0.1920 C   0  0  0  0  0  0  0  0  0  0  0  0
   -1.9600    0.6270    0.1630 C   0  0  2  0  0  0  0  0  0  0  0  0
   -2.3440    1.0810   -1.0900 O   0  0  0  0  0  0  0  0  0  0  0  0
   -0.5900    1.2030    0.5950 C   0  0  0  0  0  0  0  0  0  0  0  0
    0.3850    0.0110    0.6080 C   0  0  2  0  0  0  0  0  0  0  0  0
    1.6780    0.3360   -0.1220 C   0  0  0  0  0  0  0  0  0  0  0  0
    2.3780    1.4280    0.2850 O   0  0  0  0  0  0  0  0  0  0  0  0
    2.1910   -0.2860   -1.0280 O   0  0  0  0  0  0  0  0  0  0  0  0
    1.2510   -2.5060   -0.0450 H   0  0  0  0  0  0  0  0  0  0  0  0
   -0.3590   -3.1800   -0.3600 H   0  0  0  0  0  0  0  0  0  0  0  0
    0.0970   -2.7170    1.2960 H   0  0  0  0  0  0  0  0  0  0  0  0
   -2.0980   -1.3300    1.1680 H   0  0  0  0  0  0  0  0  0  0  0  0
   -2.3670   -1.4360   -0.5780 H   0  0  0  0  0  0  0  0  0  0  0  0
   -2.7940    0.9650    0.8260 H   0  0  0  0  0  0  0  0  0  0  0  0
   -1.7060    0.7670   -1.7420 H   0  0  0  0  0  0  0  0  0  0  0  0
   -0.6560    1.6790    1.5930 H   0  0  0  0  0  0  0  0  0  0  0  0
   -0.2650    2.0200   -0.0810 H   0  0  0  0  0  0  0  0  0  0  0  0
    0.6640   -0.2570    1.6670 H   0  0  0  0  0  0  0  0  0  0  0  0
    1.9450    1.8590    1.0290 H   0  0  0  0  0  0  0  0  0  0  0  0
  1 12  1  0
  1  2  1  0
  1 11  1  0
  1 13  1  0
  2  3  1  0
  2  7  1  0
  3 15  1  0
  3  4  1  0
  3 14  1  0
  4  5  1  0
  4  6  1  0
  4 16  1  1
  5 17  1  0
  6 19  1  0
  6  7  1  0
  6 18  1  0
  7  8  1  0
  7 20  1  1
  8 10  2  0
  8  9  1  0
  9 21  1  0
M  END
>  <id>  (1011) 
1133

>  <scaffolds>  (1011) 
['C1CCNC1']

>  <name>  (1011) 
4-hydroxyhygric acid

>  <formula>  (1011) 
C6H11NO3

>  <SMILES>  (1011) 
CN1CC(O)CC1C(O)=O

>  <ChEMBL_id>  (1011) 


>  <ZINC_id>  (1011) 


>  <PubChem_id>  (1011) 


>  <DrugBank_id>  (1011) 


>  <CAS_no>  (1011) 
67463-44-9

>  <references>  (1011) 
[{'journal': {'name': 'Tropical Journal of Pharmaceutical Research', 'id': 81}, 'title': 'Ethnomedicinal uses and pharmacological activities of Croton megalobotrys Müll Arg: A systematic review', 'year': 2017, 'start_page': None, 'volume': None, 'issue': None, 'doi': '10.4314/tjpr.v16i10.30', 'isbn': '', 'despositor': {'code': 'BND', 'first_name': "Bakary N'tji", 'last_name': 'Diallo', 'id': 26}, 'refauthors_set': [{'author': {'first_name': 'Alfred', 'initials': 'MA', 'last_name': 'Maroyi', 'id': 1093}, 'first_author': True, 'id': 1675}], 'id': 586}]

>  <classifications>  (1011) 
[{'classification': 'Carboxylic acids and derivatives (Classyfire)', 'id': 950}]

>  <molecular_mass>  (1011) 
145.156

$$$$
SANC01134_minRM1.pdb
     RDKit          3D

 57 60  0  0  1  0  0  0  0  0999 V2000
    1.4160    4.5360    0.4210 C   0  0  0  0  0  0  0  0  0  0  0  0
    0.1680    3.9890   -0.2610 C   0  0  0  0  0  0  0  0  0  0  0  0
    0.3000    2.6290   -0.5790 O   0  0  0  0  0  0  0  0  0  0  0  0
    0.2910    1.7420    0.5150 C   0  0  2  0  0  0  0  0  0  0  0  0
    1.7080    1.1320    0.6070 C   0  0  1  0  0  0  0  0  0  0  0  0
    1.7690    0.3910    1.8150 O   0  0  0  0  0  0  0  0  0  0  0  0
    1.3990   -0.9030    1.5490 C   0  0  0  0  0  0  0  0  0  0  0  0
    1.3770   -1.6910    2.4640 O   0  0  0  0  0  0  0  0  0  0  0  0
    1.0520   -1.0500    0.0750 C   0  0  2  0  0  0  0  0  0  0  0  0
    1.3790   -2.4180   -0.4920 C   0  0  0  0  0  0  0  0  0  0  0  0
    2.8690   -2.6300   -0.7100 C   0  0  0  0  0  0  0  0  0  0  0  0
    3.4330   -1.5250   -1.5860 C   0  0  0  0  0  0  0  0  0  0  0  0
    3.3480   -0.1870   -0.8480 C   0  0  2  0  0  0  0  0  0  0  0  0
    3.8830    0.9210   -1.7640 C   0  0  0  0  0  0  0  0  0  0  0  0
    4.2450   -0.2440    0.3890 C   0  0  0  0  0  0  0  0  0  0  0  0
    1.8750    0.1100   -0.5370 C   0  0  2  0  0  0  0  0  0  0  0  0
   -0.4070   -0.6620    0.0260 C   0  0  0  0  0  0  0  0  0  0  0  0
   -1.4650   -1.5520   -0.1350 C   0  0  0  0  0  0  0  0  0  0  0  0
   -1.2900   -2.8940   -0.3030 O   0  0  0  0  0  0  0  0  0  0  0  0
   -2.7990   -1.1040   -0.2260 C   0  0  0  0  0  0  0  0  0  0  0  0
   -3.7960   -2.0180   -0.3370 O   0  0  0  0  0  0  0  0  0  0  0  0
   -3.1140    0.2440   -0.0980 C   0  0  0  0  0  0  0  0  0  0  0  0
   -2.0600    1.1240    0.1370 C   0  0  0  0  0  0  0  0  0  0  0  0
   -0.7430    0.6870    0.2070 C   0  0  0  0  0  0  0  0  0  0  0  0
   -4.5160    0.7650   -0.1880 C   0  0  1  0  0  0  0  0  0  0  0  0
   -5.1350    0.4210   -1.5380 C   0  0  0  0  0  0  0  0  0  0  0  0
   -5.3630    0.2250    0.9580 C   0  0  0  0  0  0  0  0  0  0  0  0
    1.5570    4.1410    1.4370 H   0  0  0  0  0  0  0  0  0  0  0  0
    2.3310    4.3070   -0.1440 H   0  0  0  0  0  0  0  0  0  0  0  0
    1.3670    5.6310    0.5150 H   0  0  0  0  0  0  0  0  0  0  0  0
   -0.7460    4.2040    0.3380 H   0  0  0  0  0  0  0  0  0  0  0  0
    0.0090    4.4540   -1.2580 H   0  0  0  0  0  0  0  0  0  0  0  0
    0.0270    2.2240    1.4970 H   0  0  0  0  0  0  0  0  0  0  0  0
    2.4920    1.9200    0.6720 H   0  0  0  0  0  0  0  0  0  0  0  0
    1.0090   -3.2150    0.1880 H   0  0  0  0  0  0  0  0  0  0  0  0
    0.8450   -2.5560   -1.4560 H   0  0  0  0  0  0  0  0  0  0  0  0
    3.4080   -2.6960    0.2590 H   0  0  0  0  0  0  0  0  0  0  0  0
    3.0400   -3.6230   -1.1810 H   0  0  0  0  0  0  0  0  0  0  0  0
    4.4820   -1.7490   -1.8740 H   0  0  0  0  0  0  0  0  0  0  0  0
    2.8890   -1.4780   -2.5540 H   0  0  0  0  0  0  0  0  0  0  0  0
    4.9460    0.7770   -2.0050 H   0  0  0  0  0  0  0  0  0  0  0  0
    3.3540    0.9690   -2.7280 H   0  0  0  0  0  0  0  0  0  0  0  0
    3.7970    1.9190   -1.3120 H   0  0  0  0  0  0  0  0  0  0  0  0
    3.9120   -0.9820    1.1330 H   0  0  0  0  0  0  0  0  0  0  0  0
    4.3290    0.7180    0.9130 H   0  0  0  0  0  0  0  0  0  0  0  0
    5.2760   -0.5280    0.1260 H   0  0  0  0  0  0  0  0  0  0  0  0
    1.3860    0.4620   -1.4780 H   0  0  0  0  0  0  0  0  0  0  0  0
   -1.4920   -3.2890    0.5570 H   0  0  0  0  0  0  0  0  0  0  0  0
   -3.5670   -2.6100   -1.0660 H   0  0  0  0  0  0  0  0  0  0  0  0
   -2.2710    2.1920    0.2650 H   0  0  0  0  0  0  0  0  0  0  0  0
   -4.4960    1.8860   -0.1010 H   0  0  0  0  0  0  0  0  0  0  0  0
   -6.0950    0.9390   -1.6810 H   0  0  0  0  0  0  0  0  0  0  0  0
   -4.4850    0.7170   -2.3740 H   0  0  0  0  0  0  0  0  0  0  0  0
   -5.3470   -0.6490   -1.6620 H   0  0  0  0  0  0  0  0  0  0  0  0
   -6.3490    0.7120    0.9910 H   0  0  0  0  0  0  0  0  0  0  0  0
   -5.5560   -0.8540    0.8880 H   0  0  0  0  0  0  0  0  0  0  0  0
   -4.8880    0.3980    1.9340 H   0  0  0  0  0  0  0  0  0  0  0  0
  1  2  1  0
  1 29  1  0
  1 30  1  0
  1 28  1  0
  2 32  1  0
  2  3  1  0
  2 31  1  0
  3  4  1  0
  4 24  1  0
  4  5  1  0
  4 33  1  1
  5 16  1  0
  5 34  1  1
  5  6  1  0
  6  7  1  0
  7  8  2  0
  9  7  1  1
  9 16  1  0
  9 10  1  0
  9 17  1  0
 10 36  1  0
 10 11  1  0
 10 35  1  0
 11 12  1  0
 11 38  1  0
 11 37  1  0
 12 40  1  0
 12 39  1  0
 12 13  1  0
 13 14  1  6
 13 16  1  0
 13 15  1  0
 14 42  1  0
 14 41  1  0
 14 43  1  0
 15 46  1  0
 15 45  1  0
 15 44  1  0
 16 47  1  6
 17 18  2  0
 17 24  1  0
 18 19  1  0
 18 20  1  0
 19 48  1  0
 20 21  1  0
 20 22  2  0
 21 49  1  0
 22 25  1  0
 22 23  1  0
 23 24  2  0
 23 50  1  0
 25 26  1  0
 25 51  1  1
 25 27  1  0
 26 53  1  0
 26 52  1  0
 26 54  1  0
 27 56  1  0
 27 55  1  0
 27 57  1  0
M  END
>  <id>  (1012) 
1134

>  <scaffolds>  (1012) 
['c1ccccc1', 'O=C1OC2Cc3ccccc3C13CCCCC23', 'C1CCCCC1', 'c1ccc2c(c1)CCC1CCCCC21', 'O=C1CCCO1', 'c1ccc2c(c1)CCCC2']

>  <name>  (1012) 
7-ethoxyrosmanol

>  <formula>  (1012) 
C22H30O5

>  <SMILES>  (1012) 
CCO[C@@H]1[C@H]2OC(=O)[C@@]3(CCCC(C)(C)C23)C2=C(O)C(O)=C(C=C12)C(C)C

>  <ChEMBL_id>  (1012) 


>  <ZINC_id>  (1012) 


>  <PubChem_id>  (1012) 


>  <DrugBank_id>  (1012) 


>  <CAS_no>  (1012) 
111200-01-2

>  <references>  (1012) 
[{'journal': {'name': 'Antioxidants', 'id': 53}, 'title': 'Investigation of In-Vitro Antioxidant and Electrochemical Activities of Isolated Compounds from Salvia chamelaeagnea P.J.Bergius Extract', 'year': 2019, 'start_page': None, 'volume': None, 'issue': None, 'doi': 'https://doi.org/10.3390/antiox8040098', 'isbn': '', 'despositor': {'code': 'BND', 'first_name': "Bakary N'tji", 'last_name': 'Diallo', 'id': 26}, 'refauthors_set': [{'author': {'first_name': 'Ninon ', 'initials': 'N.G.E.R.E', 'last_name': 'Etsassala', 'id': 1097}, 'first_author': True, 'id': 1680}], 'id': 466}]

>  <classifications>  (1012) 
[{'classification': 'Phenol lipids (Classyfire)', 'id': 951}]

>  <molecular_mass>  (1012) 
374.471

$$$$
