SANC00104_minRM1.pdb
     RDKit          2D

 20 21  0  0  0  0  0  0  0  0999 V2000
    3.7500   -1.2990    0.0000 C   0  0  0  0  0  0  0  0  0  0  0  0
    3.0000    0.0000    0.0000 O   0  0  0  0  0  0  0  0  0  0  0  0
    1.5000    0.0000    0.0000 C   0  0  0  0  0  0  0  0  0  0  0  0
    0.7500   -1.2990    0.0000 C   0  0  0  0  0  0  0  0  0  0  0  0
   -0.7500   -1.2990    0.0000 C   0  0  0  0  0  0  0  0  0  0  0  0
   -1.5000   -2.5981    0.0000 O   0  0  0  0  0  0  0  0  0  0  0  0
   -1.5000    0.0000    0.0000 C   0  0  0  0  0  0  0  0  0  0  0  0
   -0.7500    1.2990    0.0000 C   0  0  0  0  0  0  0  0  0  0  0  0
   -1.5000    2.5981    0.0000 O   0  0  0  0  0  0  0  0  0  0  0  0
    0.7500    1.2990    0.0000 C   0  0  0  0  0  0  0  0  0  0  0  0
    1.5000    2.5981    0.0000 C   0  0  0  0  0  0  0  0  0  0  0  0
    0.7500    3.8971    0.0000 O   0  0  0  0  0  0  0  0  0  0  0  0
    3.0000    2.5981    0.0000 C   0  0  0  0  0  0  0  0  0  0  0  0
    3.7500    3.8971    0.0000 C   0  0  0  0  0  0  0  0  0  0  0  0
    5.2500    3.8971    0.0000 C   0  0  0  0  0  0  0  0  0  0  0  0
    6.0000    2.5981    0.0000 C   0  0  0  0  0  0  0  0  0  0  0  0
    7.5000    2.5981    0.0000 C   0  0  0  0  0  0  0  0  0  0  0  0
    8.2500    3.8971    0.0000 C   0  0  0  0  0  0  0  0  0  0  0  0
    7.5000    5.1962    0.0000 C   0  0  0  0  0  0  0  0  0  0  0  0
    6.0000    5.1962    0.0000 C   0  0  0  0  0  0  0  0  0  0  0  0
  1  2  1  0
  2  3  1  0
  3  4  2  0
  4  5  1  0
  5  6  1  0
  5  7  2  0
  7  8  1  0
  8  9  1  0
  8 10  2  0
 10 11  1  0
 11 12  2  0
 11 13  1  0
 13 14  2  0
 14 15  1  0
 15 16  2  0
 16 17  1  0
 17 18  2  0
 18 19  1  0
 19 20  2  0
 10  3  1  0
 20 15  1  0
M  END
>  <id>  (1) 
SANC00104_minRM1.pdb

>  <SMILES>  (1) 
COc1cc(O)cc(O)c1C(=O)/C=C/c1ccccc1

>  <warheads>  (1) 
ab_unsat_carbonyl:1

>  <n_warheads>  (1) 
1

>  <max_tier>  (1) 
1

>  <pains_flag>  (1) 


>  <MW>  (1) 
270.3

>  <cLogP>  (1) 
3.0

>  <HBD>  (1) 
2

>  <HBA>  (1) 
4

>  <TPSA>  (1) 
66.8

>  <ArRings>  (1) 
2

$$$$
SANC00108_minRM1.pdb
     RDKit          2D

 17 18  0  0  0  0  0  0  0  0999 V2000
    5.0260    3.8971    0.0000 C   0  0  0  0  0  0  0  0  0  0  0  0
    5.7760    2.5981    0.0000 C   0  0  0  0  0  0  0  0  0  0  0  0
    5.0260    1.2990    0.0000 C   0  0  0  0  0  0  0  0  0  0  0  0
    5.7760    0.0000    0.0000 C   0  0  0  0  0  0  0  0  0  0  0  0
    3.5260    1.2990    0.0000 C   0  0  0  0  0  0  0  0  0  0  0  0
    2.7760    2.5981    0.0000 O   0  0  0  0  0  0  0  0  0  0  0  0
    2.7760    0.0000    0.0000 O   0  0  0  0  0  0  0  0  0  0  0  0
    1.2760    0.0000    0.0000 C   0  0  0  0  0  0  0  0  0  0  0  0
    0.3943    1.2135    0.0000 C   0  0  0  0  0  0  0  0  0  0  0  0
   -1.0323    0.7500    0.0000 C   0  0  0  0  0  0  0  0  0  0  0  0
   -1.0323   -0.7500    0.0000 N   0  0  0  0  0  0  0  0  0  0  0  0
   -1.9140   -1.9635    0.0000 C   0  0  0  0  0  0  0  0  0  0  0  0
   -1.0323   -3.1771    0.0000 C   0  0  0  0  0  0  0  0  0  0  0  0
    0.3943   -2.7135    0.0000 C   0  0  0  0  0  0  0  0  0  0  0  0
    1.6078   -3.5952    0.0000 C   0  0  0  0  0  0  0  0  0  0  0  0
    1.4510   -5.0870    0.0000 O   0  0  0  0  0  0  0  0  0  0  0  0
    0.3943   -1.2135    0.0000 C   0  0  0  0  0  0  0  0  0  0  0  0
  1  2  1  0
  2  3  2  0
  3  4  1  0
  3  5  1  0
  5  6  2  0
  5  7  1  0
  8  7  1  1
  8  9  1  0
  9 10  1  0
 10 11  1  0
 11 12  1  0
 12 13  1  0
 13 14  1  0
 14 15  1  1
 15 16  1  0
 14 17  1  0
 17  8  1  0
 17 11  1  6
M  END
>  <id>  (2) 
SANC00108_minRM1.pdb

>  <SMILES>  (2) 
C/C=C(/C)C(=O)O[C@@H]1CCN2CC[C@H](CO)[C@@H]12

>  <warheads>  (2) 
ab_unsat_carbonyl:1

>  <n_warheads>  (2) 
1

>  <max_tier>  (2) 
1

>  <pains_flag>  (2) 


>  <MW>  (2) 
239.3

>  <cLogP>  (2) 
0.95

>  <HBD>  (2) 
1

>  <HBA>  (2) 
4

>  <TPSA>  (2) 
49.8

>  <ArRings>  (2) 
0

$$$$
SANC00109_minRM1.pdb
     RDKit          2D

 17 18  0  0  0  0  0  0  0  0999 V2000
    8.0260   -1.2990    0.0000 C   0  0  0  0  0  0  0  0  0  0  0  0
    7.2760   -2.5981    0.0000 C   0  0  0  0  0  0  0  0  0  0  0  0
    5.7760   -2.5981    0.0000 C   0  0  0  0  0  0  0  0  0  0  0  0
    5.0260   -3.8971    0.0000 C   0  0  0  0  0  0  0  0  0  0  0  0
    5.0260   -1.2990    0.0000 C   0  0  0  0  0  0  0  0  0  0  0  0
    5.7760    0.0000    0.0000 O   0  0  0  0  0  0  0  0  0  0  0  0
    3.5260   -1.2990    0.0000 O   0  0  0  0  0  0  0  0  0  0  0  0
    2.7760    0.0000    0.0000 C   0  0  0  0  0  0  0  0  0  0  0  0
    1.2760    0.0000    0.0000 C   0  0  0  0  0  0  0  0  0  0  0  0
    0.3943    1.2135    0.0000 C   0  0  0  0  0  0  0  0  0  0  0  0
   -1.0323    0.7500    0.0000 C   0  0  0  0  0  0  0  0  0  0  0  0
   -1.0323   -0.7500    0.0000 N   0  0  0  0  0  0  0  0  0  0  0  0
   -1.9140   -1.9635    0.0000 C   0  0  0  0  0  0  0  0  0  0  0  0
   -1.0323   -3.1771    0.0000 C   0  0  0  0  0  0  0  0  0  0  0  0
    0.3943   -2.7135    0.0000 C   0  0  0  0  0  0  0  0  0  0  0  0
    1.6078   -3.5952    0.0000 O   0  0  0  0  0  0  0  0  0  0  0  0
    0.3943   -1.2135    0.0000 C   0  0  0  0  0  0  0  0  0  0  0  0
  1  2  1  0
  2  3  2  0
  3  4  1  0
  3  5  1  0
  5  6  2  0
  5  7  1  0
  7  8  1  0
  9  8  1  6
  9 10  1  0
 10 11  1  0
 11 12  1  0
 12 13  1  0
 13 14  1  0
 14 15  1  0
 15 16  1  6
 15 17  1  0
 17  9  1  0
 17 12  1  1
M  END
>  <id>  (3) 
SANC00109_minRM1.pdb

>  <SMILES>  (3) 
C/C=C(/C)C(=O)OC[C@H]1CCN2CC[C@@H](O)[C@H]12

>  <warheads>  (3) 
ab_unsat_carbonyl:1

>  <n_warheads>  (3) 
1

>  <max_tier>  (3) 
1

>  <pains_flag>  (3) 


>  <MW>  (3) 
239.3

>  <cLogP>  (3) 
0.95

>  <HBD>  (3) 
1

>  <HBA>  (3) 
4

>  <TPSA>  (3) 
49.8

>  <ArRings>  (3) 
0

$$$$
SANC00110_minRM1.pdb
     RDKit          2D

 17 18  0  0  0  0  0  0  0  0999 V2000
    5.0260    3.8971    0.0000 C   0  0  0  0  0  0  0  0  0  0  0  0
    5.7760    2.5981    0.0000 C   0  0  0  0  0  0  0  0  0  0  0  0
    5.0260    1.2990    0.0000 C   0  0  0  0  0  0  0  0  0  0  0  0
    5.7760    0.0000    0.0000 C   0  0  0  0  0  0  0  0  0  0  0  0
    3.5260    1.2990    0.0000 C   0  0  0  0  0  0  0  0  0  0  0  0
    2.7760    2.5981    0.0000 O   0  0  0  0  0  0  0  0  0  0  0  0
    2.7760    0.0000    0.0000 O   0  0  0  0  0  0  0  0  0  0  0  0
    1.2760    0.0000    0.0000 C   0  0  0  0  0  0  0  0  0  0  0  0
    0.3943    1.2135    0.0000 C   0  0  0  0  0  0  0  0  0  0  0  0
   -1.0323    0.7500    0.0000 C   0  0  0  0  0  0  0  0  0  0  0  0
   -1.0323   -0.7500    0.0000 N   0  0  0  0  0  0  0  0  0  0  0  0
   -1.9140   -1.9635    0.0000 C   0  0  0  0  0  0  0  0  0  0  0  0
   -1.0323   -3.1771    0.0000 C   0  0  0  0  0  0  0  0  0  0  0  0
    0.3943   -2.7135    0.0000 C   0  0  0  0  0  0  0  0  0  0  0  0
    1.6078   -3.5952    0.0000 C   0  0  0  0  0  0  0  0  0  0  0  0
    1.4510   -5.0870    0.0000 O   0  0  0  0  0  0  0  0  0  0  0  0
    0.3943   -1.2135    0.0000 C   0  0  0  0  0  0  0  0  0  0  0  0
  1  2  1  0
  2  3  2  0
  3  4  1  0
  3  5  1  0
  5  6  2  0
  5  7  1  0
  8  7  1  1
  8  9  1  0
  9 10  1  0
 10 11  1  0
 11 12  1  0
 12 13  1  0
 13 14  1  0
 14 15  1  1
 15 16  1  0
 14 17  1  0
 17  8  1  0
 17 11  1  1
M  END
>  <id>  (4) 
SANC00110_minRM1.pdb

>  <SMILES>  (4) 
C/C=C(/C)C(=O)O[C@@H]1CCN2CC[C@H](CO)[C@H]12

>  <warheads>  (4) 
ab_unsat_carbonyl:1

>  <n_warheads>  (4) 
1

>  <max_tier>  (4) 
1

>  <pains_flag>  (4) 


>  <MW>  (4) 
239.3

>  <cLogP>  (4) 
0.95

>  <HBD>  (4) 
1

>  <HBA>  (4) 
4

>  <TPSA>  (4) 
49.8

>  <ArRings>  (4) 
0

$$$$
SANC00111_minRM1.pdb
     RDKit          2D

 17 18  0  0  0  0  0  0  0  0999 V2000
    8.0260   -1.2990    0.0000 C   0  0  0  0  0  0  0  0  0  0  0  0
    7.2760   -2.5981    0.0000 C   0  0  0  0  0  0  0  0  0  0  0  0
    5.7760   -2.5981    0.0000 C   0  0  0  0  0  0  0  0  0  0  0  0
    5.0260   -3.8971    0.0000 C   0  0  0  0  0  0  0  0  0  0  0  0
    5.0260   -1.2990    0.0000 C   0  0  0  0  0  0  0  0  0  0  0  0
    5.7760    0.0000    0.0000 O   0  0  0  0  0  0  0  0  0  0  0  0
    3.5260   -1.2990    0.0000 O   0  0  0  0  0  0  0  0  0  0  0  0
    2.7760    0.0000    0.0000 C   0  0  0  0  0  0  0  0  0  0  0  0
    1.2760    0.0000    0.0000 C   0  0  0  0  0  0  0  0  0  0  0  0
    0.3943    1.2135    0.0000 C   0  0  0  0  0  0  0  0  0  0  0  0
   -1.0323    0.7500    0.0000 C   0  0  0  0  0  0  0  0  0  0  0  0
   -1.0323   -0.7500    0.0000 N   0  0  0  0  0  0  0  0  0  0  0  0
   -1.9140   -1.9635    0.0000 C   0  0  0  0  0  0  0  0  0  0  0  0
   -1.0323   -3.1771    0.0000 C   0  0  0  0  0  0  0  0  0  0  0  0
    0.3943   -2.7135    0.0000 C   0  0  0  0  0  0  0  0  0  0  0  0
    1.6078   -3.5952    0.0000 O   0  0  0  0  0  0  0  0  0  0  0  0
    0.3943   -1.2135    0.0000 C   0  0  0  0  0  0  0  0  0  0  0  0
  1  2  1  0
  2  3  2  0
  3  4  1  0
  3  5  1  0
  5  6  2  0
  5  7  1  0
  7  8  1  0
  9  8  1  1
  9 10  1  0
 10 11  1  0
 11 12  1  0
 12 13  1  0
 13 14  1  0
 14 15  1  0
 15 16  1  6
 15 17  1  0
 17  9  1  0
 17 12  1  6
M  END
>  <id>  (5) 
SANC00111_minRM1.pdb

>  <SMILES>  (5) 
C/C=C(/C)C(=O)OC[C@@H]1CCN2CC[C@@H](O)[C@@H]12

>  <warheads>  (5) 
ab_unsat_carbonyl:1

>  <n_warheads>  (5) 
1

>  <max_tier>  (5) 
1

>  <pains_flag>  (5) 


>  <MW>  (5) 
239.3

>  <cLogP>  (5) 
0.95

>  <HBD>  (5) 
1

>  <HBA>  (5) 
4

>  <TPSA>  (5) 
49.8

>  <ArRings>  (5) 
0

$$$$
SANC00113_minRM1.pdb
     RDKit          2D

 16 17  0  0  0  0  0  0  0  0999 V2000
    2.7760    0.0000    0.0000 C   0  0  0  0  0  0  0  0  0  0  0  0
    1.2760    0.0000    0.0000 C   0  0  0  0  0  0  0  0  0  0  0  0
    0.3943    1.2135    0.0000 C   0  0  0  0  0  0  0  0  0  0  0  0
   -1.0323    0.7500    0.0000 C   0  0  0  0  0  0  0  0  0  0  0  0
   -1.0323   -0.7500    0.0000 N   0  0  0  0  0  0  0  0  0  0  0  0
   -1.9140   -1.9635    0.0000 C   0  0  0  0  0  0  0  0  0  0  0  0
   -1.0323   -3.1771    0.0000 C   0  0  0  0  0  0  0  0  0  0  0  0
    0.3943   -2.7135    0.0000 C   0  0  0  0  0  0  0  0  0  0  0  0
    1.6078   -3.5952    0.0000 O   0  0  0  0  0  0  0  0  0  0  0  0
    1.4510   -5.0870    0.0000 C   0  0  0  0  0  0  0  0  0  0  0  0
    0.0807   -5.6971    0.0000 O   0  0  0  0  0  0  0  0  0  0  0  0
    2.6646   -5.9687    0.0000 C   0  0  0  0  0  0  0  0  0  0  0  0
    4.0349   -5.3586    0.0000 C   0  0  0  0  0  0  0  0  0  0  0  0
    2.5078   -7.4604    0.0000 C   0  0  0  0  0  0  0  0  0  0  0  0
    1.1374   -8.0706    0.0000 C   0  0  0  0  0  0  0  0  0  0  0  0
    0.3943   -1.2135    0.0000 C   0  0  0  0  0  0  0  0  0  0  0  0
  1  2  2  0
  2  3  1  0
  3  4  1  0
  4  5  1  0
  5  6  1  0
  6  7  1  0
  7  8  1  0
  8  9  1  6
  9 10  1  0
 10 11  2  0
 10 12  1  0
 12 13  1  0
 12 14  2  0
 14 15  1  0
  8 16  1  0
 16  2  1  6
 16  5  1  0
M  END
>  <id>  (6) 
SANC00113_minRM1.pdb

>  <SMILES>  (6) 
C=C1CCN2CC[C@@H](OC(=O)/C(C)=C\C)[C@@H]12

>  <warheads>  (6) 
ab_unsat_carbonyl:1

>  <n_warheads>  (6) 
1

>  <max_tier>  (6) 
1

>  <pains_flag>  (6) 


>  <MW>  (6) 
221.3

>  <cLogP>  (6) 
1.9

>  <HBD>  (6) 
0

>  <HBA>  (6) 
3

>  <TPSA>  (6) 
29.5

>  <ArRings>  (6) 
0

$$$$
SANC00116_minRM1.pdb
     RDKit          2D

 24 25  0  0  0  0  0  0  0  0999 V2000
    5.0260    3.8971    0.0000 C   0  0  0  0  0  0  0  0  0  0  0  0
    5.7760    2.5981    0.0000 C   0  0  0  0  0  0  0  0  0  0  0  0
    5.0260    1.2990    0.0000 C   0  0  0  0  0  0  0  0  0  0  0  0
    5.7760    0.0000    0.0000 C   0  0  0  0  0  0  0  0  0  0  0  0
    3.5260    1.2990    0.0000 C   0  0  0  0  0  0  0  0  0  0  0  0
    2.7760    2.5981    0.0000 O   0  0  0  0  0  0  0  0  0  0  0  0
    2.7760    0.0000    0.0000 O   0  0  0  0  0  0  0  0  0  0  0  0
    1.2760    0.0000    0.0000 C   0  0  0  0  0  0  0  0  0  0  0  0
    0.3943    1.2135    0.0000 C   0  0  0  0  0  0  0  0  0  0  0  0
   -1.0323    0.7500    0.0000 C   0  0  0  0  0  0  0  0  0  0  0  0
   -1.0323   -0.7500    0.0000 N   0  0  0  0  0  0  0  0  0  0  0  0
   -1.9140   -1.9635    0.0000 C   0  0  0  0  0  0  0  0  0  0  0  0
   -1.0323   -3.1771    0.0000 C   0  0  0  0  0  0  0  0  0  0  0  0
    0.3943   -2.7135    0.0000 C   0  0  0  0  0  0  0  0  0  0  0  0
    1.6078   -3.5952    0.0000 C   0  0  0  0  0  0  0  0  0  0  0  0
    1.4510   -5.0870    0.0000 O   0  0  0  0  0  0  0  0  0  0  0  0
    2.6646   -5.9687    0.0000 C   0  0  0  0  0  0  0  0  0  0  0  0
    4.0349   -5.3586    0.0000 O   0  0  0  0  0  0  0  0  0  0  0  0
    2.5078   -7.4604    0.0000 C   0  0  0  0  0  0  0  0  0  0  0  0
    3.7213   -8.3421    0.0000 C   0  0  0  0  0  0  0  0  0  0  0  0
    5.0916   -7.7320    0.0000 C   0  0  0  0  0  0  0  0  0  0  0  0
    1.1374   -8.0706    0.0000 C   0  0  0  0  0  0  0  0  0  0  0  0
    0.9807   -9.5623    0.0000 O   0  0  0  0  0  0  0  0  0  0  0  0
    0.3943   -1.2135    0.0000 C   0  0  0  0  0  0  0  0  0  0  0  0
  1  2  1  0
  2  3  2  0
  3  4  1  0
  3  5  1  0
  5  6  2  0
  5  7  1  0
  8  7  1  1
  8  9  1  0
  9 10  1  0
 10 11  1  0
 11 12  1  0
 12 13  1  0
 13 14  1  0
 14 15  1  1
 15 16  1  0
 16 17  1  0
 17 18  2  0
 17 19  1  0
 19 20  2  0
 20 21  1  0
 19 22  1  0
 22 23  1  0
 14 24  1  0
 24  8  1  0
 24 11  1  1
M  END
>  <id>  (7) 
SANC00116_minRM1.pdb

>  <SMILES>  (7) 
C/C=C(/C)C(=O)O[C@@H]1CCN2CC[C@H](COC(=O)/C(=C\C)CO)[C@H]12

>  <warheads>  (7) 
ab_unsat_carbonyl:2

>  <n_warheads>  (7) 
2

>  <max_tier>  (7) 
1

>  <pains_flag>  (7) 


>  <MW>  (7) 
337.4

>  <cLogP>  (7) 
1.44

>  <HBD>  (7) 
1

>  <HBA>  (7) 
6

>  <TPSA>  (7) 
76.1

>  <ArRings>  (7) 
0

$$$$
SANC00117_minRM1.pdb
     RDKit          2D

 24 25  0  0  0  0  0  0  0  0999 V2000
    5.0260    3.8971    0.0000 C   0  0  0  0  0  0  0  0  0  0  0  0
    5.7760    2.5981    0.0000 C   0  0  0  0  0  0  0  0  0  0  0  0
    5.0260    1.2990    0.0000 C   0  0  0  0  0  0  0  0  0  0  0  0
    5.7760    0.0000    0.0000 C   0  0  0  0  0  0  0  0  0  0  0  0
    3.5260    1.2990    0.0000 C   0  0  0  0  0  0  0  0  0  0  0  0
    2.7760    2.5981    0.0000 O   0  0  0  0  0  0  0  0  0  0  0  0
    2.7760    0.0000    0.0000 O   0  0  0  0  0  0  0  0  0  0  0  0
    1.2760    0.0000    0.0000 C   0  0  0  0  0  0  0  0  0  0  0  0
    0.3943    1.2135    0.0000 C   0  0  0  0  0  0  0  0  0  0  0  0
   -1.0323    0.7500    0.0000 C   0  0  0  0  0  0  0  0  0  0  0  0
   -1.0323   -0.7500    0.0000 N   0  0  0  0  0  0  0  0  0  0  0  0
   -1.9140   -1.9635    0.0000 C   0  0  0  0  0  0  0  0  0  0  0  0
   -1.0323   -3.1771    0.0000 C   0  0  0  0  0  0  0  0  0  0  0  0
    0.3943   -2.7135    0.0000 C   0  0  0  0  0  0  0  0  0  0  0  0
    1.6078   -3.5952    0.0000 C   0  0  0  0  0  0  0  0  0  0  0  0
    1.4510   -5.0870    0.0000 O   0  0  0  0  0  0  0  0  0  0  0  0
    2.6646   -5.9687    0.0000 C   0  0  0  0  0  0  0  0  0  0  0  0
    4.0349   -5.3586    0.0000 O   0  0  0  0  0  0  0  0  0  0  0  0
    2.5078   -7.4604    0.0000 C   0  0  0  0  0  0  0  0  0  0  0  0
    3.7213   -8.3421    0.0000 C   0  0  0  0  0  0  0  0  0  0  0  0
    3.5645   -9.8339    0.0000 C   0  0  0  0  0  0  0  0  0  0  0  0
    1.1374   -8.0706    0.0000 C   0  0  0  0  0  0  0  0  0  0  0  0
    0.9807   -9.5623    0.0000 O   0  0  0  0  0  0  0  0  0  0  0  0
    0.3943   -1.2135    0.0000 C   0  0  0  0  0  0  0  0  0  0  0  0
  1  2  1  0
  2  3  2  0
  3  4  1  0
  3  5  1  0
  5  6  2  0
  5  7  1  0
  8  7  1  1
  8  9  1  0
  9 10  1  0
 10 11  1  0
 11 12  1  0
 12 13  1  0
 13 14  1  0
 14 15  1  1
 15 16  1  0
 16 17  1  0
 17 18  2  0
 17 19  1  0
 19 20  2  0
 20 21  1  0
 19 22  1  0
 22 23  1  0
 14 24  1  0
 24  8  1  0
 24 11  1  1
M  END
>  <id>  (8) 
SANC00117_minRM1.pdb

>  <SMILES>  (8) 
C/C=C(/C)C(=O)O[C@@H]1CCN2CC[C@H](COC(=O)/C(=C/C)CO)[C@H]12

>  <warheads>  (8) 
ab_unsat_carbonyl:2

>  <n_warheads>  (8) 
2

>  <max_tier>  (8) 
1

>  <pains_flag>  (8) 


>  <MW>  (8) 
337.4

>  <cLogP>  (8) 
1.44

>  <HBD>  (8) 
1

>  <HBA>  (8) 
6

>  <TPSA>  (8) 
76.1

>  <ArRings>  (8) 
0

$$$$
SANC00118_minRM1.pdb
     RDKit          2D

 25 27  0  0  0  0  0  0  0  0999 V2000
   -6.3604    4.8234    0.0000 C   0  0  0  0  0  0  0  0  0  0  0  0
   -5.1024    5.6404    0.0000 C   0  0  0  0  0  0  0  0  0  0  0  0
   -3.7659    4.9594    0.0000 C   0  0  0  0  0  0  0  0  0  0  0  0
   -2.7622    6.0741    0.0000 C   0  0  0  0  0  0  0  0  0  0  0  0
   -1.3356    6.5376    0.0000 C   0  0  0  0  0  0  0  0  0  0  0  0
   -1.4141    8.0356    0.0000 C   0  0  0  0  0  0  0  0  0  0  0  0
    0.1316    6.2257    0.0000 C   0  0  0  0  0  0  0  0  0  0  0  0
    1.4560    6.9300    0.0000 O   0  0  0  0  0  0  0  0  0  0  0  0
   -0.0771    7.7111    0.0000 C   0  0  0  0  0  0  0  0  0  0  0  0
    1.1049    8.6346    0.0000 O   0  0  0  0  0  0  0  0  0  0  0  0
    1.2463    5.2220    0.0000 C   0  0  0  0  0  0  0  0  0  0  0  0
    2.5043    6.0390    0.0000 O   0  0  0  0  0  0  0  0  0  0  0  0
    1.7099    3.7955    0.0000 O   0  0  0  0  0  0  0  0  0  0  0  0
    1.3980    2.3282    0.0000 C   0  0  0  0  0  0  0  0  0  0  0  0
    0.3943    1.2135    0.0000 C   0  0  0  0  0  0  0  0  0  0  0  0
    1.2760    0.0000    0.0000 C   0  0  0  0  0  0  0  0  0  0  0  0
    0.3943   -1.2135    0.0000 C   0  0  0  0  0  0  0  0  0  0  0  0
   -1.0323   -0.7500    0.0000 N   0  0  0  0  0  0  0  0  0  0  0  0
   -2.4327   -1.2876    0.0000 C   0  0  0  0  0  0  0  0  0  0  0  0
   -3.3766   -0.1218    0.0000 C   0  0  0  0  0  0  0  0  0  0  0  0
   -2.4995    1.0619    0.0000 C   0  0  0  0  0  0  0  0  0  0  0  0
   -3.6142    2.0656    0.0000 O   0  0  0  0  0  0  0  0  0  0  0  0
   -4.0778    3.4921    0.0000 C   0  0  0  0  0  0  0  0  0  0  0  0
   -5.5757    3.4136    0.0000 O   0  0  0  0  0  0  0  0  0  0  0  0
   -1.0323    0.7500    0.0000 C   0  0  0  0  0  0  0  0  0  0  0  0
  1  2  1  0
  2  3  2  0
  3  4  1  0
  4  5  1  0
  5  6  1  1
  5  7  1  0
  7  8  1  1
  7  9  1  0
  9 10  1  0
  7 11  1  0
 11 12  2  0
 11 13  1  0
 13 14  1  0
 14 15  1  0
 15 16  2  0
 16 17  1  0
 17 18  1  0
 18 19  1  0
 19 20  1  0
 21 20  1  1
 21 22  1  0
 22 23  1  0
 23 24  2  0
 21 25  1  0
 23  3  1  0
 25 15  1  0
 25 18  1  1
M  END
>  <id>  (9) 
SANC00118_minRM1.pdb

>  <SMILES>  (9) 
C/C=C1/C[C@@H](C)[C@](O)(CO)C(=O)OCC2=CCN3CC[C@@H](OC1=O)[C@@H]23

>  <warheads>  (9) 
ab_unsat_carbonyl:1

>  <n_warheads>  (9) 
1

>  <max_tier>  (9) 
1

>  <pains_flag>  (9) 


>  <MW>  (9) 
351.4

>  <cLogP>  (9) 
0.17

>  <HBD>  (9) 
2

>  <HBA>  (9) 
7

>  <TPSA>  (9) 
96.3

>  <ArRings>  (9) 
0

$$$$
SANC00119_minRM1.pdb
     RDKit          2D

 26 30  0  0  0  0  0  0  0  0999 V2000
    3.0000   -5.1962    0.0000 O   0  0  0  0  0  0  0  0  0  0  0  0
    2.2500   -3.8971    0.0000 C   0  0  0  0  0  0  0  0  0  0  0  0
    0.7500   -3.8971    0.0000 C   0  0  0  0  0  0  0  0  0  0  0  0
   -0.0000   -5.1962    0.0000 Br  0  0  0  0  0  0  0  0  0  0  0  0
   -0.0000   -2.5981    0.0000 C   0  0  0  0  0  0  0  0  0  0  0  0
    0.7500   -1.2990    0.0000 C   0  0  0  0  0  0  0  0  0  0  0  0
    2.2500   -1.2990    0.0000 C   0  0  0  0  0  0  0  0  0  0  0  0
    3.0000   -2.5981    0.0000 C   0  0  0  0  0  0  0  0  0  0  0  0
    4.5000   -2.5981    0.0000 Br  0  0  0  0  0  0  0  0  0  0  0  0
    1.5000    0.0000    0.0000 C   0  0  0  0  0  0  0  0  0  0  0  0
    0.7500    1.2990    0.0000 C   0  0  0  0  0  0  0  0  0  0  0  0
   -0.7500    1.2990    0.0000 N   0  0  0  0  0  0  0  0  0  0  0  0
   -1.5000    0.0000    0.0000 C   0  0  0  0  0  0  0  0  0  0  0  0
   -0.7500   -1.2990    0.0000 C   0  0  0  0  0  0  0  0  0  0  0  0
   -1.5000   -2.5981    0.0000 C   0  0  0  0  0  0  0  0  0  0  0  0
   -0.7500   -3.8971    0.0000 N   0  0  0  0  0  0  0  0  0  0  0  0
   -1.5000   -5.1962    0.0000 C   0  0  0  0  0  0  0  0  0  0  0  0
   -3.0000   -5.1962    0.0000 C   0  0  0  0  0  0  0  0  0  0  0  0
   -3.7500   -3.8971    0.0000 C   0  0  0  0  0  0  0  0  0  0  0  0
   -5.1766   -3.4336    0.0000 C   0  0  0  0  0  0  0  0  0  0  0  0
   -6.3901   -4.3153    0.0000 Br  0  0  0  0  0  0  0  0  0  0  0  0
   -5.1766   -1.9336    0.0000 N   0  0  0  0  0  0  0  0  0  0  0  0
   -3.7500   -1.2990    0.0000 C   0  0  0  0  0  0  0  0  0  0  0  0
   -3.0000   -2.5981    0.0000 C   0  0  0  0  0  0  0  0  0  0  0  0
   -3.0000    0.0000    0.0000 C   0  0  0  0  0  0  0  0  0  0  0  0
   -3.7500    1.2990    0.0000 O   0  0  0  0  0  0  0  0  0  0  0  0
  1  2  2  0
  2  3  1  0
  3  4  1  0
  3  5  2  0
  5  6  1  0
  6  7  1  0
  7  8  2  0
  8  9  1  0
  6 10  1  0
 10 11  1  0
 11 12  1  0
 12 13  1  0
 13 14  2  0
 14 15  1  0
 15 16  2  0
 16 17  1  0
 17 18  1  0
 18 19  1  0
 19 20  2  0
 20 21  1  0
 20 22  1  0
 22 23  1  0
 23 24  2  0
 23 25  1  0
 25 26  2  0
  8  2  1  0
 25 13  1  0
 14  6  1  0
 24 15  1  0
 24 19  1  0
M  END
>  <id>  (10) 
SANC00119_minRM1.pdb

>  <SMILES>  (10) 
O=C1C(Br)=CC2(C=C1Br)CCNC1=C2C2=NCCc3c(Br)[nH]c(c32)C1=O

>  <warheads>  (10) 
ab_unsat_carbonyl:3

>  <n_warheads>  (10) 
3

>  <max_tier>  (10) 
1

>  <pains_flag>  (10) 
quinone_A(370)

>  <MW>  (10) 
542.0

>  <cLogP>  (10) 
3.69

>  <HBD>  (10) 
2

>  <HBA>  (10) 
4

>  <TPSA>  (10) 
74.3

>  <ArRings>  (10) 
1

$$$$
SANC00120_minRM1.pdb
     RDKit          2D

 26 30  0  0  0  0  0  0  0  0999 V2000
   -1.5000   -5.1962    0.0000 O   0  0  0  0  0  0  0  0  0  0  0  0
   -0.7500   -3.8971    0.0000 C   0  0  0  0  0  0  0  0  0  0  0  0
    0.7500   -3.8971    0.0000 C   0  0  0  0  0  0  0  0  0  0  0  0
    1.5000   -2.5981    0.0000 C   0  0  0  0  0  0  0  0  0  0  0  0
    0.7500   -1.2990    0.0000 C   0  0  0  0  0  0  0  0  0  0  0  0
    1.5000    0.0000    0.0000 N   0  0  0  0  0  0  0  0  0  0  0  0
    0.7500    1.2990    0.0000 C   0  0  0  0  0  0  0  0  0  0  0  0
   -0.7500    1.2990    0.0000 C   0  0  0  0  0  0  0  0  0  0  0  0
   -1.5000    0.0000    0.0000 C   0  0  0  0  0  0  0  0  0  0  0  0
   -2.9266   -0.4635    0.0000 C   0  0  0  0  0  0  0  0  0  0  0  0
   -4.1401    0.4182    0.0000 Br  0  0  0  0  0  0  0  0  0  0  0  0
   -2.9266   -1.9635    0.0000 N   0  0  0  0  0  0  0  0  0  0  0  0
   -1.5000   -2.5981    0.0000 C   0  0  0  0  0  0  0  0  0  0  0  0
   -0.7500   -1.2990    0.0000 C   0  0  0  0  0  0  0  0  0  0  0  0
    3.0000   -2.5981    0.0000 C   0  0  0  0  0  0  0  0  0  0  0  0
    4.5000   -2.5981    0.0000 C   0  0  0  0  0  0  0  0  0  0  0  0
    5.2500   -1.2990    0.0000 C   0  0  0  0  0  0  0  0  0  0  0  0
    6.7500   -1.2990    0.0000 Br  0  0  0  0  0  0  0  0  0  0  0  0
    4.5000    0.0000    0.0000 C   0  0  0  0  0  0  0  0  0  0  0  0
    5.2500    1.2990    0.0000 O   0  0  0  0  0  0  0  0  0  0  0  0
    3.0000    0.0000    0.0000 C   0  0  0  0  0  0  0  0  0  0  0  0
    2.2500    1.2990    0.0000 Br  0  0  0  0  0  0  0  0  0  0  0  0
    2.2500   -1.2990    0.0000 C   0  0  0  0  0  0  0  0  0  0  0  0
    3.7500   -3.8971    0.0000 C   0  0  0  0  0  0  0  0  0  0  0  0
    3.0000   -5.1962    0.0000 C   0  0  0  0  0  0  0  0  0  0  0  0
    1.5000   -5.1962    0.0000 N   0  0  0  0  0  0  0  0  0  0  0  0
  1  2  2  0
  2  3  1  0
  3  4  2  0
  4  5  1  0
  5  6  2  0
  6  7  1  0
  7  8  1  0
  8  9  1  0
  9 10  2  0
 10 11  1  0
 10 12  1  0
 12 13  1  0
 13 14  2  0
  4 15  1  0
 15 16  1  0
 16 17  2  0
 17 18  1  0
 17 19  1  0
 19 20  1  6
 19 21  1  0
 21 22  1  0
 21 23  2  0
 15 24  1  1
 24 25  1  0
 25 26  1  0
 13  2  1  0
 23 15  1  0
 26  3  1  0
 14  5  1  0
 14  9  1  0
M  END
>  <id>  (11) 
SANC00120_minRM1.pdb

>  <SMILES>  (11) 
O=C1C2=C(C3=NCCc4c(Br)[nH]c1c43)[C@]1(C=C(Br)[C@@H](O)C(Br)=C1)CCN2

>  <warheads>  (11) 
ab_unsat_carbonyl:1

>  <n_warheads>  (11) 
1

>  <max_tier>  (11) 
1

>  <pains_flag>  (11) 
quinone_A(370)

>  <MW>  (11) 
544.0

>  <cLogP>  (11) 
3.48

>  <HBD>  (11) 
3

>  <HBA>  (11) 
4

>  <TPSA>  (11) 
77.5

>  <ArRings>  (11) 
1

$$$$
SANC00121_minRM1.pdb
     RDKit          2D

 25 29  0  0  0  0  0  0  0  0999 V2000
   -1.5000   -5.1962    0.0000 O   0  0  0  0  0  0  0  0  0  0  0  0
   -0.7500   -3.8971    0.0000 C   0  0  0  0  0  0  0  0  0  0  0  0
    0.7500   -3.8971    0.0000 C   0  0  0  0  0  0  0  0  0  0  0  0
    1.5000   -2.5981    0.0000 C   0  0  0  0  0  0  0  0  0  0  0  0
    0.7500   -1.2990    0.0000 C   0  0  0  0  0  0  0  0  0  0  0  0
    1.5000    0.0000    0.0000 N   0  0  0  0  0  0  0  0  0  0  0  0
    0.7500    1.2990    0.0000 C   0  0  0  0  0  0  0  0  0  0  0  0
   -0.7500    1.2990    0.0000 C   0  0  0  0  0  0  0  0  0  0  0  0
   -1.5000    0.0000    0.0000 C   0  0  0  0  0  0  0  0  0  0  0  0
   -2.9266   -0.4635    0.0000 C   0  0  0  0  0  0  0  0  0  0  0  0
   -2.9266   -1.9635    0.0000 N   0  0  0  0  0  0  0  0  0  0  0  0
   -1.5000   -2.5981    0.0000 C   0  0  0  0  0  0  0  0  0  0  0  0
   -0.7500   -1.2990    0.0000 C   0  0  0  0  0  0  0  0  0  0  0  0
    3.0000   -2.5981    0.0000 C   0  0  0  0  0  0  0  0  0  0  0  0
    4.5000   -2.5981    0.0000 C   0  0  0  0  0  0  0  0  0  0  0  0
    5.2500   -1.2990    0.0000 C   0  0  0  0  0  0  0  0  0  0  0  0
    6.7500   -1.2990    0.0000 Br  0  0  0  0  0  0  0  0  0  0  0  0
    4.5000    0.0000    0.0000 C   0  0  0  0  0  0  0  0  0  0  0  0
    5.2500    1.2990    0.0000 O   0  0  0  0  0  0  0  0  0  0  0  0
    3.0000    0.0000    0.0000 C   0  0  0  0  0  0  0  0  0  0  0  0
    2.2500    1.2990    0.0000 Br  0  0  0  0  0  0  0  0  0  0  0  0
    2.2500   -1.2990    0.0000 C   0  0  0  0  0  0  0  0  0  0  0  0
    3.7500   -3.8971    0.0000 C   0  0  0  0  0  0  0  0  0  0  0  0
    3.0000   -5.1962    0.0000 C   0  0  0  0  0  0  0  0  0  0  0  0
    1.5000   -5.1962    0.0000 N   0  0  0  0  0  0  0  0  0  0  0  0
  1  2  2  0
  2  3  1  0
  3  4  2  0
  4  5  1  0
  5  6  2  0
  6  7  1  0
  7  8  1  0
  8  9  1  0
  9 10  2  0
 10 11  1  0
 11 12  1  0
 12 13  2  0
  4 14  1  0
 14 15  1  0
 15 16  2  0
 16 17  1  0
 16 18  1  0
 18 19  1  1
 18 20  1  0
 20 21  1  0
 20 22  2  0
 14 23  1  1
 23 24  1  0
 24 25  1  0
 12  2  1  0
 22 14  1  0
 25  3  1  0
 13  5  1  0
 13  9  1  0
M  END
>  <id>  (12) 
SANC00121_minRM1.pdb

>  <SMILES>  (12) 
O=C1C2=C(C3=NCCc4c[nH]c1c43)[C@]1(C=C(Br)[C@H](O)C(Br)=C1)CCN2

>  <warheads>  (12) 
ab_unsat_carbonyl:1

>  <n_warheads>  (12) 
1

>  <max_tier>  (12) 
1

>  <pains_flag>  (12) 
quinone_A(370)

>  <MW>  (12) 
465.1

>  <cLogP>  (12) 
2.72

>  <HBD>  (12) 
3

>  <HBA>  (12) 
4

>  <TPSA>  (12) 
77.5

>  <ArRings>  (12) 
1

$$$$
SANC00122_minRM1.pdb
     RDKit          2D

 25 29  0  0  0  0  0  0  0  0999 V2000
   -1.5000   -5.1962    0.0000 O   0  0  0  0  0  0  0  0  0  0  0  0
   -0.7500   -3.8971    0.0000 C   0  0  0  0  0  0  0  0  0  0  0  0
    0.7500   -3.8971    0.0000 C   0  0  0  0  0  0  0  0  0  0  0  0
    1.5000   -2.5981    0.0000 C   0  0  0  0  0  0  0  0  0  0  0  0
    0.7500   -1.2990    0.0000 C   0  0  0  0  0  0  0  0  0  0  0  0
    1.5000    0.0000    0.0000 N   0  0  0  0  0  0  0  0  0  0  0  0
    0.7500    1.2990    0.0000 C   0  0  0  0  0  0  0  0  0  0  0  0
   -0.7500    1.2990    0.0000 C   0  0  0  0  0  0  0  0  0  0  0  0
   -1.5000    0.0000    0.0000 C   0  0  0  0  0  0  0  0  0  0  0  0
   -2.9266   -0.4635    0.0000 C   0  0  0  0  0  0  0  0  0  0  0  0
   -2.9266   -1.9635    0.0000 N   0  0  0  0  0  0  0  0  0  0  0  0
   -1.5000   -2.5981    0.0000 C   0  0  0  0  0  0  0  0  0  0  0  0
   -0.7500   -1.2990    0.0000 C   0  0  0  0  0  0  0  0  0  0  0  0
    3.0000   -2.5981    0.0000 C   0  0  0  0  0  0  0  0  0  0  0  0
    3.7500   -3.8971    0.0000 C   0  0  0  0  0  0  0  0  0  0  0  0
    3.0000   -5.1962    0.0000 C   0  0  0  0  0  0  0  0  0  0  0  0
    1.5000   -5.1962    0.0000 N   0  0  0  0  0  0  0  0  0  0  0  0
    4.5000   -2.5981    0.0000 C   0  0  0  0  0  0  0  0  0  0  0  0
    5.2500   -1.2990    0.0000 C   0  0  0  0  0  0  0  0  0  0  0  0
    6.7500   -1.2990    0.0000 Br  0  0  0  0  0  0  0  0  0  0  0  0
    4.5000    0.0000    0.0000 C   0  0  0  0  0  0  0  0  0  0  0  0
    5.2500    1.2990    0.0000 O   0  0  0  0  0  0  0  0  0  0  0  0
    3.0000    0.0000    0.0000 C   0  0  0  0  0  0  0  0  0  0  0  0
    2.2500    1.2990    0.0000 Br  0  0  0  0  0  0  0  0  0  0  0  0
    2.2500   -1.2990    0.0000 C   0  0  0  0  0  0  0  0  0  0  0  0
  1  2  2  0
  2  3  1  0
  3  4  2  0
  4  5  1  0
  5  6  2  0
  6  7  1  0
  7  8  1  0
  8  9  1  0
  9 10  2  0
 10 11  1  0
 11 12  1  0
 12 13  2  0
  4 14  1  0
 14 15  1  6
 15 16  2  0
 16 17  1  0
 14 18  1  0
 18 19  2  0
 19 20  1  0
 19 21  1  0
 21 22  1  6
 21 23  1  0
 23 24  1  0
 23 25  2  0
 12  2  1  0
 25 14  1  0
 17  3  1  0
 13  5  1  0
 13  9  1  0
M  END
>  <id>  (13) 
SANC00122_minRM1.pdb

>  <SMILES>  (13) 
O=C1C2=C(C3=NCCc4c[nH]c1c43)[C@]1(C=CN2)C=C(Br)[C@@H](O)C(Br)=C1

>  <warheads>  (13) 
ab_unsat_carbonyl:1

>  <n_warheads>  (13) 
1

>  <max_tier>  (13) 
1

>  <pains_flag>  (13) 
quinone_A(370)

>  <MW>  (13) 
463.1

>  <cLogP>  (13) 
2.85

>  <HBD>  (13) 
3

>  <HBA>  (13) 
4

>  <TPSA>  (13) 
77.5

>  <ArRings>  (13) 
1

$$$$
SANC00123_minRM1.pdb
     RDKit          2D

 26 30  0  0  0  0  0  0  0  0999 V2000
   -1.5000   -5.1962    0.0000 O   0  0  0  0  0  0  0  0  0  0  0  0
   -0.7500   -3.8971    0.0000 C   0  0  0  0  0  0  0  0  0  0  0  0
    0.7500   -3.8971    0.0000 C   0  0  0  0  0  0  0  0  0  0  0  0
    1.5000   -2.5981    0.0000 C   0  0  0  0  0  0  0  0  0  0  0  0
    0.7500   -1.2990    0.0000 C   0  0  0  0  0  0  0  0  0  0  0  0
    1.5000    0.0000    0.0000 N   0  0  0  0  0  0  0  0  0  0  0  0
    0.7500    1.2990    0.0000 C   0  0  0  0  0  0  0  0  0  0  0  0
   -0.7500    1.2990    0.0000 C   0  0  0  0  0  0  0  0  0  0  0  0
   -1.5000    0.0000    0.0000 C   0  0  0  0  0  0  0  0  0  0  0  0
   -2.9266   -0.4635    0.0000 C   0  0  0  0  0  0  0  0  0  0  0  0
   -4.1401    0.4182    0.0000 Br  0  0  0  0  0  0  0  0  0  0  0  0
   -2.9266   -1.9635    0.0000 N   0  0  0  0  0  0  0  0  0  0  0  0
   -1.5000   -2.5981    0.0000 C   0  0  0  0  0  0  0  0  0  0  0  0
   -0.7500   -1.2990    0.0000 C   0  0  0  0  0  0  0  0  0  0  0  0
    3.0000   -2.5981    0.0000 C   0  0  0  0  0  0  0  0  0  0  0  0
    3.7500   -3.8971    0.0000 C   0  0  0  0  0  0  0  0  0  0  0  0
    3.0000   -5.1962    0.0000 C   0  0  0  0  0  0  0  0  0  0  0  0
    1.5000   -5.1962    0.0000 N   0  0  0  0  0  0  0  0  0  0  0  0
    4.5000   -2.5981    0.0000 C   0  0  0  0  0  0  0  0  0  0  0  0
    5.2500   -1.2990    0.0000 C   0  0  0  0  0  0  0  0  0  0  0  0
    6.7500   -1.2990    0.0000 Br  0  0  0  0  0  0  0  0  0  0  0  0
    4.5000    0.0000    0.0000 C   0  0  0  0  0  0  0  0  0  0  0  0
    5.2500    1.2990    0.0000 O   0  0  0  0  0  0  0  0  0  0  0  0
    3.0000    0.0000    0.0000 C   0  0  0  0  0  0  0  0  0  0  0  0
    2.2500    1.2990    0.0000 Br  0  0  0  0  0  0  0  0  0  0  0  0
    2.2500   -1.2990    0.0000 C   0  0  0  0  0  0  0  0  0  0  0  0
  1  2  2  0
  2  3  1  0
  3  4  2  0
  4  5  1  0
  5  6  2  0
  6  7  1  0
  7  8  1  0
  8  9  1  0
  9 10  2  0
 10 11  1  0
 10 12  1  0
 12 13  1  0
 13 14  2  0
  4 15  1  0
 15 16  1  6
 16 17  2  0
 17 18  1  0
 15 19  1  0
 19 20  2  0
 20 21  1  0
 20 22  1  0
 22 23  1  6
 22 24  1  0
 24 25  1  0
 24 26  2  0
 13  2  1  0
 26 15  1  0
 18  3  1  0
 14  5  1  0
 14  9  1  0
M  END
>  <id>  (14) 
SANC00123_minRM1.pdb

>  <SMILES>  (14) 
O=C1C2=C(C3=NCCc4c(Br)[nH]c1c43)[C@]1(C=CN2)C=C(Br)[C@@H](O)C(Br)=C1

>  <warheads>  (14) 
ab_unsat_carbonyl:1

>  <n_warheads>  (14) 
1

>  <max_tier>  (14) 
1

>  <pains_flag>  (14) 
quinone_A(370)

>  <MW>  (14) 
542.0

>  <cLogP>  (14) 
3.61

>  <HBD>  (14) 
3

>  <HBA>  (14) 
4

>  <TPSA>  (14) 
77.5

>  <ArRings>  (14) 
1

$$$$
SANC00128_minRM1.pdb
     RDKit          2D

 15 17  0  0  0  0  0  0  0  0999 V2000
   -2.9499    4.2246    0.0000 C   0  0  0  0  0  0  0  0  0  0  0  0
   -1.8351    3.2209    0.0000 N   0  0  0  0  0  0  0  0  0  0  0  0
   -0.4086    3.6844    0.0000 C   0  0  0  0  0  0  0  0  0  0  0  0
    0.7062    2.6807    0.0000 C   0  0  0  0  0  0  0  0  0  0  0  0
    0.3943    1.2135    0.0000 C   0  0  0  0  0  0  0  0  0  0  0  0
    1.2760    0.0000    0.0000 C   0  0  0  0  0  0  0  0  0  0  0  0
    0.3943   -1.2135    0.0000 N   0  0  0  0  0  0  0  0  0  0  0  0
   -1.0323   -0.7500    0.0000 C   0  0  0  0  0  0  0  0  0  0  0  0
   -2.4606   -1.2299    0.0000 C   0  0  0  0  0  0  0  0  0  0  0  0
   -2.6174   -2.7217    0.0000 O   0  0  0  0  0  0  0  0  0  0  0  0
   -3.6741   -0.3482    0.0000 C   0  0  0  0  0  0  0  0  0  0  0  0
   -5.0444   -0.9583    0.0000 N   0  0  0  0  0  0  0  0  0  0  0  0
   -3.5173    1.1436    0.0000 C   0  0  0  0  0  0  0  0  0  0  0  0
   -2.1470    1.7537    0.0000 C   0  0  0  0  0  0  0  0  0  0  0  0
   -1.0323    0.7500    0.0000 C   0  0  0  0  0  0  0  0  0  0  0  0
  1  2  1  0
  2  3  1  0
  3  4  1  0
  4  5  1  0
  5  6  2  0
  6  7  1  0
  7  8  2  0
  8  9  1  0
  9 10  2  0
  9 11  1  0
 11 12  1  0
 11 13  2  0
 13 14  1  0
 14 15  2  0
 14  2  1  0
 15  5  1  0
 15  8  1  0
M  END
>  <id>  (15) 
SANC00128_minRM1.pdb

>  <SMILES>  (15) 
CN1CCC2=CN=C3C(=O)C(N)=CC1=C23

>  <warheads>  (15) 
ab_unsat_carbonyl:1

>  <n_warheads>  (15) 
1

>  <max_tier>  (15) 
1

>  <pains_flag>  (15) 
quinone_D(2)

>  <MW>  (15) 
201.2

>  <cLogP>  (15) 
0.34

>  <HBD>  (15) 
1

>  <HBA>  (15) 
4

>  <TPSA>  (15) 
58.7

>  <ArRings>  (15) 
0

$$$$
SANC00129_minRM1.pdb
     RDKit          2D

 15 17  0  0  0  0  0  0  0  0999 V2000
   -2.9499    4.2246    0.0000 C   0  0  0  0  0  0  0  0  0  0  0  0
   -1.8351    3.2209    0.0000 N   0  0  0  0  0  0  0  0  0  0  0  0
   -0.4086    3.6844    0.0000 C   0  0  0  0  0  0  0  0  0  0  0  0
    0.7062    2.6807    0.0000 C   0  0  0  0  0  0  0  0  0  0  0  0
    0.3943    1.2135    0.0000 C   0  0  0  0  0  0  0  0  0  0  0  0
    1.2760    0.0000    0.0000 C   0  0  0  0  0  0  0  0  0  0  0  0
    0.3943   -1.2135    0.0000 N   0  0  0  0  0  0  0  0  0  0  0  0
   -1.0323   -0.7500    0.0000 C   0  0  0  0  0  0  0  0  0  0  0  0
   -1.0323    0.7500    0.0000 C   0  0  0  0  0  0  0  0  0  0  0  0
   -2.1470    1.7537    0.0000 C   0  0  0  0  0  0  0  0  0  0  0  0
   -3.4593    1.0134    0.0000 C   0  0  0  0  0  0  0  0  0  0  0  0
   -3.6161   -0.4784    0.0000 C   0  0  0  0  0  0  0  0  0  0  0  0
   -4.9864   -1.0885    0.0000 O   0  0  0  0  0  0  0  0  0  0  0  0
   -2.4026   -1.3601    0.0000 C   0  0  0  0  0  0  0  0  0  0  0  0
   -2.5594   -2.8519    0.0000 O   0  0  0  0  0  0  0  0  0  0  0  0
  1  2  1  0
  2  3  1  0
  3  4  1  0
  4  5  1  0
  5  6  2  0
  6  7  1  0
  7  8  1  0
  8  9  2  0
  9 10  1  0
 10 11  2  0
 11 12  1  0
 12 13  2  0
 12 14  1  0
 14 15  2  0
 10  2  1  0
  9  5  1  0
 14  8  1  0
M  END
>  <id>  (16) 
SANC00129_minRM1.pdb

>  <SMILES>  (16) 
CN1CCc2c[nH]c3c2C1=CC(=O)C3=O

>  <warheads>  (16) 
ab_unsat_carbonyl:1

>  <n_warheads>  (16) 
1

>  <max_tier>  (16) 
1

>  <pains_flag>  (16) 
imine_one_A(321)

>  <MW>  (16) 
202.2

>  <cLogP>  (16) 
0.61

>  <HBD>  (16) 
1

>  <HBA>  (16) 
3

>  <TPSA>  (16) 
53.2

>  <ArRings>  (16) 
1

$$$$
SANC00131_minRM1.pdb
     RDKit          2D

 24 29  0  0  0  0  0  0  0  0999 V2000
    3.0000    0.0000    0.0000 O   0  0  0  0  0  0  0  0  0  0  0  0
    1.5000    0.0000    0.0000 C   0  0  0  0  0  0  0  0  0  0  0  0
    0.7500   -1.2990    0.0000 C   0  0  0  0  0  0  0  0  0  0  0  0
   -0.7500   -1.2990    0.0000 C   0  0  0  0  0  0  0  0  0  0  0  0
   -1.5000    0.0000    0.0000 C   0  0  0  0  0  0  0  0  0  0  0  0
   -2.9672    0.3119    0.0000 C   0  0  0  0  0  0  0  0  0  0  0  0
   -3.1240    1.8037    0.0000 C   0  0  0  0  0  0  0  0  0  0  0  0
   -4.3532    0.9271    0.0000 N   0  0  0  0  0  0  0  0  0  0  0  0
   -4.0413   -0.5402    0.0000 C   0  0  0  0  0  0  0  0  0  0  0  0
   -2.6147   -1.0037    0.0000 C   0  0  0  0  0  0  0  0  0  0  0  0
   -2.3028   -2.4709    0.0000 C   0  0  0  0  0  0  0  0  0  0  0  0
   -0.8763   -2.9344    0.0000 N   0  0  0  0  0  0  0  0  0  0  0  0
   -0.5644   -4.4017    0.0000 C   0  0  0  0  0  0  0  0  0  0  0  0
   -1.6791   -5.4054    0.0000 C   0  0  0  0  0  0  0  0  0  0  0  0
   -3.1057   -4.9418    0.0000 C   0  0  0  0  0  0  0  0  0  0  0  0
   -4.4760   -5.5519    0.0000 C   0  0  0  0  0  0  0  0  0  0  0  0
   -5.4797   -4.4372    0.0000 N   0  0  0  0  0  0  0  0  0  0  0  0
   -4.8442   -3.0111    0.0000 C   0  0  0  0  0  0  0  0  0  0  0  0
   -3.4176   -3.4746    0.0000 C   0  0  0  0  0  0  0  0  0  0  0  0
   -5.1560   -1.5439    0.0000 C   0  0  0  0  0  0  0  0  0  0  0  0
   -6.5826   -1.0803    0.0000 O   0  0  0  0  0  0  0  0  0  0  0  0
   -1.7537    2.4138    0.0000 S   0  0  0  0  0  0  0  0  0  0  0  0
   -0.7500    1.2990    0.0000 C   0  0  0  0  0  0  0  0  0  0  0  0
    0.7500    1.2990    0.0000 C   0  0  0  0  0  0  0  0  0  0  0  0
  1  2  2  0
  2  3  1  0
  3  4  2  0
  5  4  1  6
  5  6  1  0
  6  7  1  0
  7  8  1  1
  8  9  1  0
  9 10  2  0
 10 11  1  0
 11 12  2  0
 12 13  1  0
 13 14  1  0
 14 15  1  0
 15 16  2  0
 16 17  1  0
 17 18  1  0
 18 19  2  0
 18 20  1  0
 20 21  2  0
  7 22  1  0
 22 23  1  0
 23 24  2  0
 24  2  1  0
 10  5  1  0
 19 11  1  0
 23  5  1  0
 20  9  1  0
 19 15  1  0
M  END
>  <id>  (17) 
SANC00131_minRM1.pdb

>  <SMILES>  (17) 
O=C1C=C[C@@]23C[C@@H](NC4=C2C2=NCCc5c[nH]c(c52)C4=O)SC3=C1

>  <warheads>  (17) 
ab_unsat_carbonyl:3

>  <n_warheads>  (17) 
3

>  <max_tier>  (17) 
1

>  <pains_flag>  (17) 
quinone_A(370)

>  <MW>  (17) 
335.4

>  <cLogP>  (17) 
1.89

>  <HBD>  (17) 
2

>  <HBA>  (17) 
5

>  <TPSA>  (17) 
74.3

>  <ArRings>  (17) 
1

$$$$
SANC00132_minRM1.pdb
     RDKit          2D

 29 35  0  0  0  0  0  0  0  0999 V2000
   -6.4268    0.3631    0.0000 O   0  0  0  0  0  0  0  0  0  0  0  0
   -6.1149    1.8303    0.0000 C   0  0  0  0  0  0  0  0  0  0  0  0
   -7.2296    2.8340    0.0000 O   0  0  0  0  0  0  0  0  0  0  0  0
   -4.6883    2.2939    0.0000 C   0  0  0  0  0  0  0  0  0  0  0  0
   -3.5736    1.2902    0.0000 N   0  0  0  0  0  0  0  0  0  0  0  0
   -2.1470    1.7537    0.0000 C   0  0  0  0  0  0  0  0  0  0  0  0
   -1.8351    3.2209    0.0000 C   0  0  0  0  0  0  0  0  0  0  0  0
   -0.4086    3.6844    0.0000 C   0  0  0  0  0  0  0  0  0  0  0  0
   -0.0967    5.1517    0.0000 O   0  0  0  0  0  0  0  0  0  0  0  0
    0.7062    2.6807    0.0000 C   0  0  0  0  0  0  0  0  0  0  0  0
    0.3943    1.2135    0.0000 C   0  0  0  0  0  0  0  0  0  0  0  0
    1.2760    0.0000    0.0000 S   0  0  0  0  0  0  0  0  0  0  0  0
    0.3943   -1.2135    0.0000 C   0  0  0  0  0  0  0  0  0  0  0  0
   -1.0323   -0.7500    0.0000 C   0  0  0  0  0  0  0  0  0  0  0  0
   -1.0323    0.7500    0.0000 C   0  0  0  0  0  0  0  0  0  0  0  0
   -2.4589    0.2865    0.0000 C   0  0  0  0  0  0  0  0  0  0  0  0
   -3.5736    1.2902    0.0000 C   0  0  0  0  0  0  0  0  0  0  0  0
   -5.0002    0.8266    0.0000 C   0  0  0  0  0  0  0  0  0  0  0  0
   -6.2992    1.5766    0.0000 C   0  0  0  0  0  0  0  0  0  0  0  0
   -7.4139    0.5729    0.0000 C   0  0  0  0  0  0  0  0  0  0  0  0
   -6.8038   -0.7974    0.0000 N   0  0  0  0  0  0  0  0  0  0  0  0
   -5.3120   -0.6406    0.0000 C   0  0  0  0  0  0  0  0  0  0  0  0
   -4.1973   -1.6443    0.0000 C   0  0  0  0  0  0  0  0  0  0  0  0
   -4.5092   -3.1115    0.0000 O   0  0  0  0  0  0  0  0  0  0  0  0
   -2.7707   -1.1807    0.0000 C   0  0  0  0  0  0  0  0  0  0  0  0
   -0.9124   -1.9500    0.0000 N   0  0  0  0  0  0  0  0  0  0  0  0
   -5.8295    3.1530    0.0000 C   0  0  0  0  0  0  0  0  0  0  0  0
   -4.4314    3.6964    0.0000 C   0  0  0  0  0  0  0  0  0  0  0  0
   -3.2617    2.7574    0.0000 N   0  0  0  0  0  0  0  0  0  0  0  0
  1  2  2  0
  2  3  1  0
  2  4  1  0
  4  5  1  0
  6  5  1  6
  6  7  1  0
  7  8  1  0
  8  9  2  0
  8 10  1  0
 10 11  2  0
 11 12  1  0
 12 13  1  0
 13 14  1  0
 15 14  1  1
 15 16  1  0
 16 17  2  0
 17 18  1  0
 18 19  1  0
 19 20  2  0
 20 21  1  0
 21 22  1  0
 22 23  1  0
 23 24  2  0
 23 25  1  0
 25 26  1  0
 19 27  1  0
 27 28  1  0
 28 29  1  0
 15  6  1  0
 25 16  1  0
  7 29  1  6
 15 11  1  0
 29 17  1  0
 13 26  1  6
 22 18  2  0
M  END
>  <id>  (18) 
SANC00132_minRM1.pdb

>  <SMILES>  (18) 
O=C(O)CN[C@@H]1[C@H]2C(=O)C=C3S[C@H]4C[C@]31C1=C3c5c(c[nH]c5C(=O)C1N4)CCN32

>  <warheads>  (18) 
ab_unsat_carbonyl:1

>  <n_warheads>  (18) 
1

>  <max_tier>  (18) 
1

>  <pains_flag>  (18) 


>  <MW>  (18) 
410.5

>  <cLogP>  (18) 
0.09

>  <HBD>  (18) 
4

>  <HBA>  (18) 
7

>  <TPSA>  (18) 
114.5

>  <ArRings>  (18) 
1

$$$$
SANC00133_minRM1.pdb
     RDKit          2D

 25 31  0  0  0  0  0  0  0  0999 V2000
   -2.9422    1.6981    0.0000 N   0  0  0  0  0  0  0  0  0  0  0  0
   -2.1470    1.7537    0.0000 C   0  0  0  0  0  0  0  0  0  0  0  0
   -1.8351    3.2209    0.0000 C   0  0  0  0  0  0  0  0  0  0  0  0
   -0.4086    3.6844    0.0000 C   0  0  0  0  0  0  0  0  0  0  0  0
   -0.0967    5.1517    0.0000 O   0  0  0  0  0  0  0  0  0  0  0  0
    0.7062    2.6807    0.0000 C   0  0  0  0  0  0  0  0  0  0  0  0
    0.3943    1.2135    0.0000 C   0  0  0  0  0  0  0  0  0  0  0  0
    1.2760    0.0000    0.0000 S   0  0  0  0  0  0  0  0  0  0  0  0
    0.3943   -1.2135    0.0000 C   0  0  0  0  0  0  0  0  0  0  0  0
   -1.0323   -0.7500    0.0000 C   0  0  0  0  0  0  0  0  0  0  0  0
   -1.0323    0.7500    0.0000 C   0  0  0  0  0  0  0  0  0  0  0  0
   -2.4589    0.2865    0.0000 C   0  0  0  0  0  0  0  0  0  0  0  0
   -3.5736    1.2902    0.0000 C   0  0  0  0  0  0  0  0  0  0  0  0
   -5.0002    0.8266    0.0000 C   0  0  0  0  0  0  0  0  0  0  0  0
   -6.2992    1.5766    0.0000 C   0  0  0  0  0  0  0  0  0  0  0  0
   -7.4139    0.5729    0.0000 C   0  0  0  0  0  0  0  0  0  0  0  0
   -6.8038   -0.7974    0.0000 N   0  0  0  0  0  0  0  0  0  0  0  0
   -5.3120   -0.6406    0.0000 C   0  0  0  0  0  0  0  0  0  0  0  0
   -4.1973   -1.6443    0.0000 C   0  0  0  0  0  0  0  0  0  0  0  0
   -4.5092   -3.1115    0.0000 O   0  0  0  0  0  0  0  0  0  0  0  0
   -2.7707   -1.1807    0.0000 C   0  0  0  0  0  0  0  0  0  0  0  0
   -0.9124   -1.9500    0.0000 N   0  0  0  0  0  0  0  0  0  0  0  0
   -5.8295    3.1530    0.0000 C   0  0  0  0  0  0  0  0  0  0  0  0
   -4.4314    3.6964    0.0000 C   0  0  0  0  0  0  0  0  0  0  0  0
   -3.2617    2.7574    0.0000 N   0  0  0  0  0  0  0  0  0  0  0  0
  2  1  1  1
  2  3  1  0
  3  4  1  0
  4  5  2  0
  4  6  1  0
  6  7  2  0
  7  8  1  0
  8  9  1  0
  9 10  1  0
 11 10  1  1
 11 12  1  0
 12 13  2  0
 13 14  1  0
 14 15  1  0
 15 16  2  0
 16 17  1  0
 17 18  1  0
 18 19  1  0
 19 20  2  0
 19 21  1  0
 21 22  1  0
 15 23  1  0
 23 24  1  0
 24 25  1  0
 11  2  1  0
 21 12  1  0
  3 25  1  6
 11  7  1  0
 25 13  1  0
  9 22  1  6
 18 14  2  0
M  END
>  <id>  (19) 
SANC00133_minRM1.pdb

>  <SMILES>  (19) 
N[C@H]1[C@H]2C(=O)C=C3S[C@H]4C[C@]31C1=C3c5c(c[nH]c5C(=O)C1N4)CCN32

>  <warheads>  (19) 
ab_unsat_carbonyl:1

>  <n_warheads>  (19) 
1

>  <max_tier>  (19) 
1

>  <pains_flag>  (19) 


>  <MW>  (19) 
352.4

>  <cLogP>  (19) 
0.38

>  <HBD>  (19) 
3

>  <HBA>  (19) 
6

>  <TPSA>  (19) 
91.2

>  <ArRings>  (19) 
1

$$$$
SANC00134_minRM1.pdb
     RDKit          2D

 26 32  0  0  0  0  0  0  0  0999 V2000
   -4.6883    2.2939    0.0000 C   0  0  0  0  0  0  0  0  0  0  0  0
   -3.5736    1.2902    0.0000 O   0  0  0  0  0  0  0  0  0  0  0  0
   -2.1470    1.7537    0.0000 C   0  0  0  0  0  0  0  0  0  0  0  0
   -1.8351    3.2209    0.0000 C   0  0  0  0  0  0  0  0  0  0  0  0
   -0.4086    3.6844    0.0000 C   0  0  0  0  0  0  0  0  0  0  0  0
   -0.0967    5.1517    0.0000 O   0  0  0  0  0  0  0  0  0  0  0  0
    0.7062    2.6807    0.0000 C   0  0  0  0  0  0  0  0  0  0  0  0
    0.3943    1.2135    0.0000 C   0  0  0  0  0  0  0  0  0  0  0  0
    1.2760    0.0000    0.0000 S   0  0  0  0  0  0  0  0  0  0  0  0
    0.3943   -1.2135    0.0000 C   0  0  0  0  0  0  0  0  0  0  0  0
   -1.0323   -0.7500    0.0000 C   0  0  0  0  0  0  0  0  0  0  0  0
   -1.0323    0.7500    0.0000 C   0  0  0  0  0  0  0  0  0  0  0  0
   -2.4589    0.2865    0.0000 C   0  0  0  0  0  0  0  0  0  0  0  0
   -3.5736    1.2902    0.0000 C   0  0  0  0  0  0  0  0  0  0  0  0
   -5.0002    0.8266    0.0000 C   0  0  0  0  0  0  0  0  0  0  0  0
   -6.2992    1.5766    0.0000 C   0  0  0  0  0  0  0  0  0  0  0  0
   -7.4139    0.5729    0.0000 C   0  0  0  0  0  0  0  0  0  0  0  0
   -6.8038   -0.7974    0.0000 N   0  0  0  0  0  0  0  0  0  0  0  0
   -5.3120   -0.6406    0.0000 C   0  0  0  0  0  0  0  0  0  0  0  0
   -4.1973   -1.6443    0.0000 C   0  0  0  0  0  0  0  0  0  0  0  0
   -4.5092   -3.1115    0.0000 O   0  0  0  0  0  0  0  0  0  0  0  0
   -2.7707   -1.1807    0.0000 C   0  0  0  0  0  0  0  0  0  0  0  0
   -0.9124   -1.9500    0.0000 N   0  0  0  0  0  0  0  0  0  0  0  0
   -5.8295    3.1530    0.0000 C   0  0  0  0  0  0  0  0  0  0  0  0
   -4.4314    3.6964    0.0000 C   0  0  0  0  0  0  0  0  0  0  0  0
   -3.2617    2.7574    0.0000 N   0  0  0  0  0  0  0  0  0  0  0  0
  1  2  1  0
  3  2  1  1
  3  4  1  0
  4  5  1  0
  5  6  2  0
  5  7  1  0
  7  8  2  0
  8  9  1  0
  9 10  1  0
 10 11  1  0
 12 11  1  1
 12 13  1  0
 13 14  2  0
 14 15  1  0
 15 16  1  0
 16 17  2  0
 17 18  1  0
 18 19  1  0
 19 20  1  0
 20 21  2  0
 20 22  1  0
 22 23  1  0
 16 24  1  0
 24 25  1  0
 25 26  1  0
 12  3  1  0
 22 13  1  0
  4 26  1  6
 12  8  1  0
 26 14  1  0
 10 23  1  6
 19 15  2  0
M  END
>  <id>  (20) 
SANC00134_minRM1.pdb

>  <SMILES>  (20) 
CO[C@H]1[C@H]2C(=O)C=C3S[C@H]4C[C@]31C1=C3c5c(c[nH]c5C(=O)C1N4)CCN32

>  <warheads>  (20) 
ab_unsat_carbonyl:1

>  <n_warheads>  (20) 
1

>  <max_tier>  (20) 
1

>  <pains_flag>  (20) 


>  <MW>  (20) 
367.4

>  <cLogP>  (20) 
1.07

>  <HBD>  (20) 
2

>  <HBA>  (20) 
6

>  <TPSA>  (20) 
74.4

>  <ArRings>  (20) 
1

$$$$
SANC00135_minRM1.pdb
     RDKit          2D

 30 36  0  0  0  0  0  0  0  0999 V2000
   -4.7407    3.7929    0.0000 N   0  0  0  0  0  0  0  0  0  0  0  0
   -4.6883    2.2939    0.0000 C   0  0  0  0  0  0  0  0  0  0  0  0
   -3.5736    1.2902    0.0000 C   0  0  0  0  0  0  0  0  0  0  0  0
   -2.1470    1.7537    0.0000 C   0  0  0  0  0  0  0  0  0  0  0  0
   -1.8351    3.2209    0.0000 C   0  0  0  0  0  0  0  0  0  0  0  0
   -0.4086    3.6844    0.0000 C   0  0  0  0  0  0  0  0  0  0  0  0
   -0.0967    5.1517    0.0000 O   0  0  0  0  0  0  0  0  0  0  0  0
    0.7062    2.6807    0.0000 C   0  0  0  0  0  0  0  0  0  0  0  0
    0.3943    1.2135    0.0000 C   0  0  0  0  0  0  0  0  0  0  0  0
    1.2760    0.0000    0.0000 S   0  0  0  0  0  0  0  0  0  0  0  0
    0.3943   -1.2135    0.0000 C   0  0  0  0  0  0  0  0  0  0  0  0
   -1.0323   -0.7500    0.0000 C   0  0  0  0  0  0  0  0  0  0  0  0
   -1.0323    0.7500    0.0000 C   0  0  0  0  0  0  0  0  0  0  0  0
   -2.4589    0.2865    0.0000 C   0  0  0  0  0  0  0  0  0  0  0  0
   -3.5736    1.2902    0.0000 C   0  0  0  0  0  0  0  0  0  0  0  0
   -5.0002    0.8266    0.0000 C   0  0  0  0  0  0  0  0  0  0  0  0
   -6.2992    1.5766    0.0000 C   0  0  0  0  0  0  0  0  0  0  0  0
   -7.4139    0.5729    0.0000 C   0  0  0  0  0  0  0  0  0  0  0  0
   -6.8038   -0.7974    0.0000 N   0  0  0  0  0  0  0  0  0  0  0  0
   -5.3120   -0.6406    0.0000 C   0  0  0  0  0  0  0  0  0  0  0  0
   -4.1973   -1.6443    0.0000 C   0  0  0  0  0  0  0  0  0  0  0  0
   -4.5092   -3.1115    0.0000 O   0  0  0  0  0  0  0  0  0  0  0  0
   -2.7707   -1.1807    0.0000 C   0  0  0  0  0  0  0  0  0  0  0  0
   -0.9124   -1.9500    0.0000 N   0  0  0  0  0  0  0  0  0  0  0  0
   -5.8295    3.1530    0.0000 C   0  0  0  0  0  0  0  0  0  0  0  0
   -4.4314    3.6964    0.0000 C   0  0  0  0  0  0  0  0  0  0  0  0
   -3.2617    2.7574    0.0000 N   0  0  0  0  0  0  0  0  0  0  0  0
   -6.1149    1.8303    0.0000 C   0  0  0  0  0  0  0  0  0  0  0  0
   -6.4268    0.3631    0.0000 O   0  0  0  0  0  0  0  0  0  0  0  0
   -7.2296    2.8340    0.0000 O   0  0  0  0  0  0  0  0  0  0  0  0
  2  1  1  1
  2  3  1  0
  4  3  1  1
  4  5  1  0
  5  6  1  0
  6  7  2  0
  6  8  1  0
  8  9  2  0
  9 10  1  0
 10 11  1  0
 11 12  1  0
 13 12  1  1
 13 14  1  0
 14 15  2  0
 15 16  1  0
 16 17  1  0
 17 18  2  0
 18 19  1  0
 19 20  1  0
 20 21  1  0
 21 22  2  0
 21 23  1  0
 23 24  1  0
 17 25  1  0
 25 26  1  0
 26 27  1  0
  2 28  1  0
 28 29  2  0
 28 30  1  0
 13  4  1  0
 23 14  1  0
  5 27  1  6
 13  9  1  0
 27 15  1  0
 11 24  1  6
 20 16  2  0
M  END
>  <id>  (21) 
SANC00135_minRM1.pdb

>  <SMILES>  (21) 
N[C@@H](C[C@H]1[C@H]2C(=O)C=C3S[C@H]4C[C@]31C1=C3c5c(c[nH]c5C(=O)C1N4)CCN32)C(=O)O

>  <warheads>  (21) 
ab_unsat_carbonyl:1

>  <n_warheads>  (21) 
1

>  <max_tier>  (21) 
1

>  <pains_flag>  (21) 


>  <MW>  (21) 
424.5

>  <cLogP>  (21) 
0.47

>  <HBD>  (21) 
4

>  <HBA>  (21) 
7

>  <TPSA>  (21) 
128.5

>  <ArRings>  (21) 
1

$$$$
SANC00140_minRM1.pdb
     RDKit          2D

 25 30  0  0  0  0  0  0  0  0999 V2000
    6.3442    0.4130    0.0000 O   0  0  0  0  0  0  0  0  0  0  0  0
    5.2294   -0.5907    0.0000 C   0  0  0  0  0  0  0  0  0  0  0  0
    5.5413   -2.0579    0.0000 C   0  0  0  0  0  0  0  0  0  0  0  0
    4.4266   -3.0616    0.0000 C   0  0  0  0  0  0  0  0  0  0  0  0
    4.4266   -4.5616    0.0000 S   0  0  0  0  0  0  0  0  0  0  0  0
    3.0000   -5.1962    0.0000 C   0  0  0  0  0  0  0  0  0  0  0  0
    3.7500   -3.8971    0.0000 C   0  0  0  0  0  0  0  0  0  0  0  0
    3.0000   -2.5981    0.0000 C   0  0  0  0  0  0  0  0  0  0  0  0
    2.6881   -1.1309    0.0000 C   0  0  0  0  0  0  0  0  0  0  0  0
    3.8028   -0.1272    0.0000 C   0  0  0  0  0  0  0  0  0  0  0  0
    3.4910    1.3401    0.0000 Br  0  0  0  0  0  0  0  0  0  0  0  0
    1.5000   -2.5981    0.0000 C   0  0  0  0  0  0  0  0  0  0  0  0
    0.7500   -3.8971    0.0000 C   0  0  0  0  0  0  0  0  0  0  0  0
    1.5000   -5.1962    0.0000 N   0  0  0  0  0  0  0  0  0  0  0  0
   -0.7500   -3.8971    0.0000 C   0  0  0  0  0  0  0  0  0  0  0  0
   -1.5000   -5.1962    0.0000 O   0  0  0  0  0  0  0  0  0  0  0  0
   -1.5000   -2.5981    0.0000 C   0  0  0  0  0  0  0  0  0  0  0  0
   -2.9266   -2.1346    0.0000 N   0  0  0  0  0  0  0  0  0  0  0  0
   -2.9266   -0.6346    0.0000 C   0  0  0  0  0  0  0  0  0  0  0  0
   -1.5000    0.0000    0.0000 C   0  0  0  0  0  0  0  0  0  0  0  0
   -0.7500   -1.2990    0.0000 C   0  0  0  0  0  0  0  0  0  0  0  0
    0.7500   -1.2990    0.0000 C   0  0  0  0  0  0  0  0  0  0  0  0
    1.5000    0.0000    0.0000 N   0  0  0  0  0  0  0  0  0  0  0  0
    0.7500    1.2990    0.0000 C   0  0  0  0  0  0  0  0  0  0  0  0
   -0.7500    1.2990    0.0000 C   0  0  0  0  0  0  0  0  0  0  0  0
  1  2  2  0
  2  3  1  0
  4  3  1  1
  4  5  1  0
  5  6  1  0
  6  7  1  0
  7  8  1  0
  8  9  1  1
  9 10  2  0
 10 11  1  0
  8 12  1  0
 12 13  2  0
 13 14  1  0
 13 15  1  0
 15 16  2  0
 15 17  1  0
 17 18  1  0
 18 19  1  0
 19 20  2  0
 20 21  1  0
 21 22  1  0
 22 23  2  0
 23 24  1  0
 24 25  1  0
 10  2  1  0
 22 12  1  0
  8  4  1  0
 21 17  2  0
  6 14  1  6
 25 20  1  0
M  END
>  <id>  (22) 
SANC00140_minRM1.pdb

>  <SMILES>  (22) 
O=C1C[C@H]2S[C@H]3C[C@]2(C=C1Br)C1=C(N3)C(=O)c2[nH]cc3c2C1=NCC3

>  <warheads>  (22) 
ab_unsat_carbonyl:2

>  <n_warheads>  (22) 
2

>  <max_tier>  (22) 
1

>  <pains_flag>  (22) 
quinone_A(370)

>  <MW>  (22) 
416.3

>  <cLogP>  (22) 
2.48

>  <HBD>  (22) 
2

>  <HBA>  (22) 
5

>  <TPSA>  (22) 
74.3

>  <ArRings>  (22) 
1

$$$$
SANC00141_minRM1.pdb
     RDKit          2D

 24 30  0  0  0  0  0  0  0  0999 V2000
    2.1328    3.1443    0.0000 O   0  0  0  0  0  0  0  0  0  0  0  0
    0.7062    2.6807    0.0000 C   0  0  0  0  0  0  0  0  0  0  0  0
    0.3943    1.2135    0.0000 C   0  0  0  0  0  0  0  0  0  0  0  0
    1.2760    0.0000    0.0000 N   0  0  0  0  0  0  0  0  0  0  0  0
    0.3943   -1.2135    0.0000 C   0  0  0  0  0  0  0  0  0  0  0  0
   -1.0323   -0.7500    0.0000 C   0  0  0  0  0  0  0  0  0  0  0  0
   -1.0323    0.7500    0.0000 C   0  0  0  0  0  0  0  0  0  0  0  0
   -2.1470    1.7537    0.0000 C   0  0  0  0  0  0  0  0  0  0  0  0
   -1.8351    3.2209    0.0000 C   0  0  0  0  0  0  0  0  0  0  0  0
   -0.4086    3.6844    0.0000 C   0  0  0  0  0  0  0  0  0  0  0  0
   -0.0967    5.1517    0.0000 N   0  0  0  0  0  0  0  0  0  0  0  0
   -1.2114    6.1554    0.0000 C   0  0  0  0  0  0  0  0  0  0  0  0
   -2.6380    5.6918    0.0000 C   0  0  0  0  0  0  0  0  0  0  0  0
   -2.9499    4.2246    0.0000 C   0  0  0  0  0  0  0  0  0  0  0  0
   -4.3764    3.7611    0.0000 C   0  0  0  0  0  0  0  0  0  0  0  0
   -4.6883    2.2939    0.0000 C   0  0  0  0  0  0  0  0  0  0  0  0
   -5.6005    3.7523    0.0000 C   0  0  0  0  0  0  0  0  0  0  0  0
   -7.0621    3.4153    0.0000 O   0  0  0  0  0  0  0  0  0  0  0  0
   -5.1615    5.1866    0.0000 C   0  0  0  0  0  0  0  0  0  0  0  0
   -3.6999    5.5237    0.0000 C   0  0  0  0  0  0  0  0  0  0  0  0
   -2.6962    6.6384    0.0000 S   0  0  0  0  0  0  0  0  0  0  0  0
   -3.5736    1.2902    0.0000 N   0  0  0  0  0  0  0  0  0  0  0  0
   -3.6001   -0.3544    0.0000 C   0  0  0  0  0  0  0  0  0  0  0  0
   -2.4304   -1.2935    0.0000 C   0  0  0  0  0  0  0  0  0  0  0  0
  1  2  2  0
  2  3  1  0
  3  4  1  0
  4  5  1  0
  5  6  2  0
  6  7  1  0
  7  8  1  0
  8  9  2  0
  9 10  1  0
 10 11  1  0
 12 11  1  6
 12 13  1  0
 14 13  1  1
 14 15  1  0
 15 16  1  0
 16 17  1  0
 17 18  2  0
 17 19  1  0
 19 20  2  0
 20 21  1  0
 16 22  1  6
 22 23  1  0
 23 24  1  0
 10  2  1  0
 21 12  1  0
  7  3  2  0
 22  8  1  0
 24  6  1  0
 14  9  1  0
 20 14  1  0
M  END
>  <id>  (23) 
SANC00141_minRM1.pdb

>  <SMILES>  (23) 
O=C1c2[nH]cc3c2C2=C4C1N[C@@H]1C[C@]45C[C@@H](C(=O)C=C5S1)N2CC3

>  <warheads>  (23) 
ab_unsat_carbonyl:1

>  <n_warheads>  (23) 
1

>  <max_tier>  (23) 
1

>  <pains_flag>  (23) 


>  <MW>  (23) 
337.4

>  <cLogP>  (23) 
1.44

>  <HBD>  (23) 
2

>  <HBA>  (23) 
5

>  <TPSA>  (23) 
65.2

>  <ArRings>  (23) 
1

$$$$
SANC00146_minRM1.pdb
     RDKit          2D

 22 25  0  0  0  0  0  0  0  0999 V2000
   -5.2020   -8.5535    0.0000 C   0  0  0  0  0  0  0  0  0  0  0  0
   -4.8901   -7.0863    0.0000 C   0  0  0  0  0  0  0  0  0  0  0  0
   -3.4635   -6.6227    0.0000 C   0  0  0  0  0  0  0  0  0  0  0  0
   -2.2500   -7.5044    0.0000 C   0  0  0  0  0  0  0  0  0  0  0  0
   -1.0365   -6.6227    0.0000 C   0  0  0  0  0  0  0  0  0  0  0  0
   -1.5000   -5.1962    0.0000 C   0  0  0  0  0  0  0  0  0  0  0  0
   -0.7500   -3.8971    0.0000 C   0  0  0  0  0  0  0  0  0  0  0  0
    0.7500   -3.8971    0.0000 C   0  0  0  0  0  0  0  0  0  0  0  0
    1.5000   -2.5981    0.0000 C   0  0  0  0  0  0  0  0  0  0  0  0
    0.7500   -1.2990    0.0000 C   0  0  0  0  0  0  0  0  0  0  0  0
    1.5000    0.0000    0.0000 C   0  0  0  0  0  0  0  0  0  0  0  0
    0.7500    1.2990    0.0000 C   0  0  0  0  0  0  0  0  0  0  0  0
    1.5000    2.5981    0.0000 O   0  0  0  0  0  0  0  0  0  0  0  0
   -0.7500    1.2990    0.0000 C   0  0  0  0  0  0  0  0  0  0  0  0
   -1.5000    0.0000    0.0000 C   0  0  0  0  0  0  0  0  0  0  0  0
   -0.7500   -1.2990    0.0000 C   0  0  0  0  0  0  0  0  0  0  0  0
   -2.2500   -1.2990    0.0000 C   0  0  0  0  0  0  0  0  0  0  0  0
   -1.5000   -2.5981    0.0000 C   0  0  0  0  0  0  0  0  0  0  0  0
   -3.0000   -2.5981    0.0000 C   0  0  0  0  0  0  0  0  0  0  0  0
   -3.7500   -3.8971    0.0000 C   0  0  0  0  0  0  0  0  0  0  0  0
   -3.0000   -5.1962    0.0000 C   0  0  0  0  0  0  0  0  0  0  0  0
   -4.4918   -5.3529    0.0000 C   0  0  0  0  0  0  0  0  0  0  0  0
  1  2  2  0
  3  2  1  6
  3  4  1  0
  4  5  1  0
  6  5  1  6
  6  7  1  0
  7  8  1  1
  8  9  1  0
 10  9  1  6
 10 11  1  0
 11 12  1  0
 12 13  2  0
 12 14  1  0
 14 15  2  0
 15 16  1  0
 16 17  1  6
 16 18  1  0
 18 19  1  6
 19 20  1  0
 20 21  1  0
 21 22  1  6
 21  3  1  0
 21  6  1  0
 18  7  1  0
 16 10  1  0
M  END
>  <id>  (24) 
SANC00146_minRM1.pdb

>  <SMILES>  (24) 
C=C[C@H]1CC[C@H]2[C@@H]3CC[C@H]4CC(=O)C=C[C@]4(C)[C@H]3CC[C@]12C

>  <warheads>  (24) 
ab_unsat_carbonyl:1

>  <n_warheads>  (24) 
1

>  <max_tier>  (24) 
1

>  <pains_flag>  (24) 


>  <MW>  (24) 
298.5

>  <cLogP>  (24) 
5.18

>  <HBD>  (24) 
0

>  <HBA>  (24) 
1

>  <TPSA>  (24) 
17.1

>  <ArRings>  (24) 
0

$$$$
SANC00147_minRM1.pdb
     RDKit          2D

 26 29  0  0  0  0  0  0  0  0999 V2000
   -5.2020   -8.5535    0.0000 C   0  0  0  0  0  0  0  0  0  0  0  0
   -4.8901   -7.0863    0.0000 C   0  0  0  0  0  0  0  0  0  0  0  0
   -3.4635   -6.6227    0.0000 C   0  0  0  0  0  0  0  0  0  0  0  0
   -2.2500   -7.5044    0.0000 C   0  0  0  0  0  0  0  0  0  0  0  0
   -2.2500   -9.0044    0.0000 O   0  0  0  0  0  0  0  0  0  0  0  0
   -0.9510   -9.7544    0.0000 C   0  0  0  0  0  0  0  0  0  0  0  0
   -0.9510  -11.2544    0.0000 C   0  0  0  0  0  0  0  0  0  0  0  0
    0.3481   -9.0044    0.0000 O   0  0  0  0  0  0  0  0  0  0  0  0
   -1.0365   -6.6227    0.0000 C   0  0  0  0  0  0  0  0  0  0  0  0
   -1.5000   -5.1962    0.0000 C   0  0  0  0  0  0  0  0  0  0  0  0
   -0.7500   -3.8971    0.0000 C   0  0  0  0  0  0  0  0  0  0  0  0
    0.7500   -3.8971    0.0000 C   0  0  0  0  0  0  0  0  0  0  0  0
    1.5000   -2.5981    0.0000 C   0  0  0  0  0  0  0  0  0  0  0  0
    0.7500   -1.2990    0.0000 C   0  0  0  0  0  0  0  0  0  0  0  0
    1.5000    0.0000    0.0000 C   0  0  0  0  0  0  0  0  0  0  0  0
    0.7500    1.2990    0.0000 C   0  0  0  0  0  0  0  0  0  0  0  0
    1.5000    2.5981    0.0000 O   0  0  0  0  0  0  0  0  0  0  0  0
   -0.7500    1.2990    0.0000 C   0  0  0  0  0  0  0  0  0  0  0  0
   -1.5000    0.0000    0.0000 C   0  0  0  0  0  0  0  0  0  0  0  0
   -0.7500   -1.2990    0.0000 C   0  0  0  0  0  0  0  0  0  0  0  0
   -2.2500   -1.2990    0.0000 C   0  0  0  0  0  0  0  0  0  0  0  0
   -1.5000   -2.5981    0.0000 C   0  0  0  0  0  0  0  0  0  0  0  0
   -3.0000   -2.5981    0.0000 C   0  0  0  0  0  0  0  0  0  0  0  0
   -3.7500   -3.8971    0.0000 C   0  0  0  0  0  0  0  0  0  0  0  0
   -3.0000   -5.1962    0.0000 C   0  0  0  0  0  0  0  0  0  0  0  0
   -4.4918   -5.3529    0.0000 C   0  0  0  0  0  0  0  0  0  0  0  0
  1  2  2  0
  3  2  1  6
  3  4  1  0
  4  5  1  6
  5  6  1  0
  6  7  1  0
  6  8  2  0
  4  9  1  0
 10  9  1  6
 10 11  1  0
 11 12  1  1
 12 13  1  0
 14 13  1  6
 14 15  1  0
 15 16  1  0
 16 17  2  0
 16 18  1  0
 18 19  2  0
 19 20  1  0
 20 21  1  6
 20 22  1  0
 22 23  1  6
 23 24  1  0
 24 25  1  0
 25 26  1  6
 25  3  1  0
 25 10  1  0
 22 11  1  0
 20 14  1  0
M  END
>  <id>  (25) 
SANC00147_minRM1.pdb

>  <SMILES>  (25) 
C=C[C@H]1[C@@H](OC(C)=O)C[C@H]2[C@@H]3CC[C@H]4CC(=O)C=C[C@]4(C)[C@H]3CC[C@]12C

>  <warheads>  (25) 
ab_unsat_carbonyl:1

>  <n_warheads>  (25) 
1

>  <max_tier>  (25) 
1

>  <pains_flag>  (25) 


>  <MW>  (25) 
356.5

>  <cLogP>  (25) 
4.72

>  <HBD>  (25) 
0

>  <HBA>  (25) 
3

>  <TPSA>  (25) 
43.4

>  <ArRings>  (25) 
0

$$$$
SANC00151_minRM1.pdb
     RDKit          2D

 31 32  0  0  0  0  0  0  0  0999 V2000
    3.6929    0.0000    0.0000 C   0  0  0  0  0  0  0  0  0  0  0  0
    2.1929    0.0000    0.0000 C   0  0  0  0  0  0  0  0  0  0  0  0
    1.6798    1.4095    0.0000 C   0  0  0  0  0  0  0  0  0  0  0  0
    0.3808    2.1595    0.0000 C   0  0  0  0  0  0  0  0  0  0  0  0
   -1.0964    1.8991    0.0000 C   0  0  0  0  0  0  0  0  0  0  0  0
   -2.0606    0.7500    0.0000 C   0  0  0  0  0  0  0  0  0  0  0  0
   -3.4976    0.3198    0.0000 C   0  0  0  0  0  0  0  0  0  0  0  0
   -2.8849    2.0032    0.0000 O   0  0  0  0  0  0  0  0  0  0  0  0
   -4.3823    1.9160    0.0000 C   0  0  0  0  0  0  0  0  0  0  0  0
   -5.2066    3.1692    0.0000 C   0  0  0  0  0  0  0  0  0  0  0  0
   -5.0555    0.5756    0.0000 O   0  0  0  0  0  0  0  0  0  0  0  0
   -2.0606   -0.7500    0.0000 C   0  0  0  0  0  0  0  0  0  0  0  0
   -1.0964   -1.8991    0.0000 C   0  0  0  0  0  0  0  0  0  0  0  0
    0.3808   -2.1595    0.0000 C   0  0  0  0  0  0  0  0  0  0  0  0
    0.3808   -3.6595    0.0000 C   0  0  0  0  0  0  0  0  0  0  0  0
   -0.9183   -4.4095    0.0000 C   0  0  0  0  0  0  0  0  0  0  0  0
   -2.2173   -3.6595    0.0000 O   0  0  0  0  0  0  0  0  0  0  0  0
   -0.9183   -5.9095    0.0000 C   0  0  0  0  0  0  0  0  0  0  0  0
   -2.2173   -6.6595    0.0000 C   0  0  0  0  0  0  0  0  0  0  0  0
   -2.2173   -8.1595    0.0000 C   0  0  0  0  0  0  0  0  0  0  0  0
   -0.7173   -8.1595    0.0000 C   0  0  0  0  0  0  0  0  0  0  0  0
   -3.7173   -8.1595    0.0000 C   0  0  0  0  0  0  0  0  0  0  0  0
   -2.2173   -9.6595    0.0000 O   0  0  0  0  0  0  0  0  0  0  0  0
    1.6798   -4.4095    0.0000 C   0  0  0  0  0  0  0  0  0  0  0  0
    2.9789   -3.6595    0.0000 O   0  0  0  0  0  0  0  0  0  0  0  0
    2.9789   -2.1595    0.0000 C   0  0  0  0  0  0  0  0  0  0  0  0
    4.2779   -1.4095    0.0000 O   0  0  0  0  0  0  0  0  0  0  0  0
    5.5769   -2.1595    0.0000 C   0  0  0  0  0  0  0  0  0  0  0  0
    6.8760   -1.4095    0.0000 C   0  0  0  0  0  0  0  0  0  0  0  0
    5.5769   -3.6595    0.0000 O   0  0  0  0  0  0  0  0  0  0  0  0
    1.6798   -1.4095    0.0000 C   0  0  0  0  0  0  0  0  0  0  0  0
  1  2  2  0
  2  3  1  0
  3  4  1  0
  4  5  2  0
  5  6  1  0
  6  7  1  1
  6  8  1  0
  8  9  1  0
  9 10  1  0
  9 11  2  0
  6 12  1  0
 12 13  1  0
 14 13  1  1
 14 15  1  0
 15 16  1  0
 16 17  2  0
 16 18  1  0
 18 19  2  0
 19 20  1  0
 20 21  1  0
 20 22  1  0
 20 23  1  0
 15 24  2  0
 24 25  1  0
 25 26  1  0
 26 27  1  6
 27 28  1  0
 28 29  1  0
 28 30  2  0
 26 31  1  0
 31  2  1  6
 31 14  1  0
M  END
>  <id>  (26) 
SANC00151_minRM1.pdb

>  <SMILES>  (26) 
C=C1C/C=C\[C@@](C)(OC(C)=O)CC[C@@H]2C(C(=O)/C=C/C(C)(C)O)=CO[C@@H](OC(C)=O)[C@@H]12

>  <warheads>  (26) 
ab_unsat_carbonyl:2

>  <n_warheads>  (26) 
2

>  <max_tier>  (26) 
1

>  <pains_flag>  (26) 


>  <MW>  (26) 
432.5

>  <cLogP>  (26) 
3.54

>  <HBD>  (26) 
1

>  <HBA>  (26) 
7

>  <TPSA>  (26) 
99.1

>  <ArRings>  (26) 
0

$$$$
SANC00152_minRM1.pdb
     RDKit          2D

 30 31  0  0  0  0  0  0  0  0999 V2000
    3.6929    0.0000    0.0000 C   0  0  0  0  0  0  0  0  0  0  0  0
    2.1929    0.0000    0.0000 C   0  0  0  0  0  0  0  0  0  0  0  0
    1.6798    1.4095    0.0000 C   0  0  0  0  0  0  0  0  0  0  0  0
    0.3808    2.1595    0.0000 C   0  0  0  0  0  0  0  0  0  0  0  0
   -1.0964    1.8991    0.0000 C   0  0  0  0  0  0  0  0  0  0  0  0
   -2.0606    0.7500    0.0000 C   0  0  0  0  0  0  0  0  0  0  0  0
   -3.4976    0.3198    0.0000 C   0  0  0  0  0  0  0  0  0  0  0  0
   -2.8849    2.0032    0.0000 O   0  0  0  0  0  0  0  0  0  0  0  0
   -4.3823    1.9160    0.0000 C   0  0  0  0  0  0  0  0  0  0  0  0
   -5.2066    3.1692    0.0000 C   0  0  0  0  0  0  0  0  0  0  0  0
   -5.0555    0.5756    0.0000 O   0  0  0  0  0  0  0  0  0  0  0  0
   -2.0606   -0.7500    0.0000 C   0  0  0  0  0  0  0  0  0  0  0  0
   -1.0964   -1.8991    0.0000 C   0  0  0  0  0  0  0  0  0  0  0  0
    0.3808   -2.1595    0.0000 C   0  0  0  0  0  0  0  0  0  0  0  0
    0.3808   -3.6595    0.0000 C   0  0  0  0  0  0  0  0  0  0  0  0
   -0.9183   -4.4095    0.0000 C   0  0  0  0  0  0  0  0  0  0  0  0
   -2.2173   -3.6595    0.0000 O   0  0  0  0  0  0  0  0  0  0  0  0
   -0.9183   -5.9095    0.0000 C   0  0  0  0  0  0  0  0  0  0  0  0
   -2.2173   -6.6595    0.0000 C   0  0  0  0  0  0  0  0  0  0  0  0
   -2.2173   -8.1595    0.0000 C   0  0  0  0  0  0  0  0  0  0  0  0
   -3.5163   -8.9095    0.0000 C   0  0  0  0  0  0  0  0  0  0  0  0
   -0.9183   -8.9095    0.0000 C   0  0  0  0  0  0  0  0  0  0  0  0
    1.6798   -4.4095    0.0000 C   0  0  0  0  0  0  0  0  0  0  0  0
    2.9789   -3.6595    0.0000 O   0  0  0  0  0  0  0  0  0  0  0  0
    2.9789   -2.1595    0.0000 C   0  0  0  0  0  0  0  0  0  0  0  0
    4.2779   -1.4095    0.0000 O   0  0  0  0  0  0  0  0  0  0  0  0
    5.5769   -2.1595    0.0000 C   0  0  0  0  0  0  0  0  0  0  0  0
    6.8760   -1.4095    0.0000 C   0  0  0  0  0  0  0  0  0  0  0  0
    5.5769   -3.6595    0.0000 O   0  0  0  0  0  0  0  0  0  0  0  0
    1.6798   -1.4095    0.0000 C   0  0  0  0  0  0  0  0  0  0  0  0
  1  2  2  0
  2  3  1  0
  3  4  1  0
  4  5  2  0
  5  6  1  0
  6  7  1  1
  6  8  1  0
  8  9  1  0
  9 10  1  0
  9 11  2  0
  6 12  1  0
 12 13  1  0
 14 13  1  6
 14 15  1  0
 15 16  1  0
 16 17  2  0
 16 18  1  0
 18 19  1  0
 19 20  2  0
 20 21  1  0
 20 22  1  0
 15 23  2  0
 23 24  1  0
 24 25  1  0
 25 26  1  6
 26 27  1  0
 27 28  1  0
 27 29  2  0
 25 30  1  0
 30  2  1  1
 30 14  1  0
M  END
>  <id>  (27) 
SANC00152_minRM1.pdb

>  <SMILES>  (27) 
C=C1C/C=C\[C@@](C)(OC(C)=O)CC[C@H]2C(C(=O)CC=C(C)C)=CO[C@@H](OC(C)=O)[C@H]12

>  <warheads>  (27) 
ab_unsat_carbonyl:1

>  <n_warheads>  (27) 
1

>  <max_tier>  (27) 
1

>  <pains_flag>  (27) 


>  <MW>  (27) 
416.5

>  <cLogP>  (27) 
4.57

>  <HBD>  (27) 
0

>  <HBA>  (27) 
6

>  <TPSA>  (27) 
78.9

>  <ArRings>  (27) 
0

$$$$
SANC00158_minRM1.pdb
     RDKit          2D

 26 27  0  0  0  0  0  0  0  0999 V2000
   -4.8154    2.1595    0.0000 C   0  0  0  0  0  0  0  0  0  0  0  0
   -4.8154    3.6595    0.0000 C   0  0  0  0  0  0  0  0  0  0  0  0
   -6.1144    4.4095    0.0000 C   0  0  0  0  0  0  0  0  0  0  0  0
   -3.5163    4.4095    0.0000 C   0  0  0  0  0  0  0  0  0  0  0  0
   -2.2173    3.6595    0.0000 C   0  0  0  0  0  0  0  0  0  0  0  0
   -0.9183    4.4095    0.0000 C   0  0  0  0  0  0  0  0  0  0  0  0
    0.3808    3.6595    0.0000 C   0  0  0  0  0  0  0  0  0  0  0  0
    1.6798    4.4095    0.0000 C   0  0  0  0  0  0  0  0  0  0  0  0
    1.6798    5.9095    0.0000 O   0  0  0  0  0  0  0  0  0  0  0  0
    2.9789    3.6595    0.0000 O   0  0  0  0  0  0  0  0  0  0  0  0
    2.9789    2.1595    0.0000 C   0  0  0  0  0  0  0  0  0  0  0  0
    1.6798    1.4095    0.0000 C   0  0  0  0  0  0  0  0  0  0  0  0
    2.1929    0.0000    0.0000 C   0  0  0  0  0  0  0  0  0  0  0  0
    3.6929    0.0000    0.0000 C   0  0  0  0  0  0  0  0  0  0  0  0
    1.6798   -1.4095    0.0000 C   0  0  0  0  0  0  0  0  0  0  0  0
    0.3808   -2.1595    0.0000 C   0  0  0  0  0  0  0  0  0  0  0  0
   -1.0964   -1.8991    0.0000 C   0  0  0  0  0  0  0  0  0  0  0  0
   -2.0606   -0.7500    0.0000 C   0  0  0  0  0  0  0  0  0  0  0  0
   -3.4701   -1.2630    0.0000 C   0  0  0  0  0  0  0  0  0  0  0  0
   -2.0606    0.7500    0.0000 C   0  0  0  0  0  0  0  0  0  0  0  0
   -1.0964    1.8991    0.0000 C   0  0  0  0  0  0  0  0  0  0  0  0
    0.3808    2.1595    0.0000 C   0  0  0  0  0  0  0  0  0  0  0  0
   -3.5163    5.9095    0.0000 O   0  0  0  0  0  0  0  0  0  0  0  0
   -4.8154    6.6595    0.0000 C   0  0  0  0  0  0  0  0  0  0  0  0
   -4.8154    8.1595    0.0000 C   0  0  0  0  0  0  0  0  0  0  0  0
   -6.1144    5.9095    0.0000 O   0  0  0  0  0  0  0  0  0  0  0  0
  1  2  2  0
  2  3  1  0
  2  4  1  0
  4  5  1  6
  5  6  1  0
  6  7  2  0
  7  8  1  0
  8  9  2  0
  8 10  1  0
 10 11  1  0
 12 11  1  1
 12 13  1  0
 13 14  2  0
 13 15  1  0
 15 16  1  0
 16 17  1  0
 17 18  2  0
 18 19  1  0
 18 20  1  0
 20 21  1  0
 22 21  1  6
  4 23  1  0
 23 24  1  0
 24 25  1  0
 24 26  2  0
 22  7  1  0
 22 12  1  0
M  END
>  <id>  (28) 
SANC00158_minRM1.pdb

>  <SMILES>  (28) 
C=C(C)[C@@H](C/C=C1/C(=O)OC[C@H]2C(=C)CC/C=C(/C)CC[C@H]12)OC(C)=O

>  <warheads>  (28) 
ab_unsat_carbonyl:1

>  <n_warheads>  (28) 
1

>  <max_tier>  (28) 
1

>  <pains_flag>  (28) 


>  <MW>  (28) 
358.5

>  <cLogP>  (28) 
4.68

>  <HBD>  (28) 
0

>  <HBA>  (28) 
4

>  <TPSA>  (28) 
52.6

>  <ArRings>  (28) 
0

$$$$
SANC00159_minRM1.pdb
     RDKit          2D

 30 30  0  0  0  0  0  0  0  0999 V2000
    6.0000   -2.5981    0.0000 C   0  0  0  0  0  0  0  0  0  0  0  0
    5.2500   -1.2990    0.0000 O   0  0  0  0  0  0  0  0  0  0  0  0
    3.7500   -1.2990    0.0000 C   0  0  0  0  0  0  0  0  0  0  0  0
    3.0000   -2.5981    0.0000 O   0  0  0  0  0  0  0  0  0  0  0  0
    3.0000    0.0000    0.0000 C   0  0  0  0  0  0  0  0  0  0  0  0
    1.5000    0.0000    0.0000 C   0  0  0  0  0  0  0  0  0  0  0  0
    0.7500   -1.2990    0.0000 C   0  0  0  0  0  0  0  0  0  0  0  0
   -0.7500   -1.2990    0.0000 C   0  0  0  0  0  0  0  0  0  0  0  0
   -1.5000   -2.5981    0.0000 O   0  0  0  0  0  0  0  0  0  0  0  0
   -1.5000    0.0000    0.0000 C   0  0  0  0  0  0  0  0  0  0  0  0
   -3.0000    0.0000    0.0000 C   0  0  0  0  0  0  0  0  0  0  0  0
   -3.7500    1.2990    0.0000 C   0  0  0  0  0  0  0  0  0  0  0  0
   -5.2500    1.2990    0.0000 C   0  0  0  0  0  0  0  0  0  0  0  0
   -6.0000    0.0000    0.0000 C   0  0  0  0  0  0  0  0  0  0  0  0
   -6.0000    2.5981    0.0000 C   0  0  0  0  0  0  0  0  0  0  0  0
   -5.2500    3.8971    0.0000 C   0  0  0  0  0  0  0  0  0  0  0  0
   -6.0000    5.1962    0.0000 C   0  0  0  0  0  0  0  0  0  0  0  0
   -5.2500    6.4952    0.0000 C   0  0  0  0  0  0  0  0  0  0  0  0
   -3.7500    6.4952    0.0000 C   0  0  0  0  0  0  0  0  0  0  0  0
   -6.0000    7.7942    0.0000 C   0  0  0  0  0  0  0  0  0  0  0  0
   -7.5000    7.7942    0.0000 O   0  0  0  0  0  0  0  0  0  0  0  0
   -5.2500    9.0933    0.0000 C   0  0  0  0  0  0  0  0  0  0  0  0
   -3.7500    9.0933    0.0000 O   0  0  0  0  0  0  0  0  0  0  0  0
   -6.0000   10.3923    0.0000 C   0  0  0  0  0  0  0  0  0  0  0  0
   -5.2500   11.6913    0.0000 C   0  0  0  0  0  0  0  0  0  0  0  0
   -6.0000   12.9904    0.0000 C   0  0  0  0  0  0  0  0  0  0  0  0
   -3.7500   11.6913    0.0000 C   0  0  0  0  0  0  0  0  0  0  0  0
   -0.7500    1.2990    0.0000 C   0  0  0  0  0  0  0  0  0  0  0  0
    0.7500    1.2990    0.0000 C   0  0  0  0  0  0  0  0  0  0  0  0
    1.5000    2.5981    0.0000 O   0  0  0  0  0  0  0  0  0  0  0  0
  1  2  1  0
  2  3  1  0
  3  4  2  0
  3  5  1  0
  5  6  1  0
  6  7  2  0
  7  8  1  0
  8  9  1  0
  8 10  2  0
 10 11  1  0
 11 12  1  0
 12 13  2  0
 13 14  1  0
 13 15  1  0
 15 16  1  0
 16 17  1  0
 17 18  2  0
 18 19  1  0
 18 20  1  0
 20 21  1  6
 20 22  1  0
 22 23  2  0
 22 24  1  0
 24 25  2  0
 25 26  1  0
 25 27  1  0
 10 28  1  0
 28 29  2  0
 29 30  1  0
 29  6  1  0
M  END
>  <id>  (29) 
SANC00159_minRM1.pdb

>  <SMILES>  (29) 
COC(=O)Cc1cc(O)c(C/C=C(\C)CC/C=C(\C)[C@H](O)C(=O)C=C(C)C)cc1O

>  <warheads>  (29) 
ab_unsat_carbonyl:1

>  <n_warheads>  (29) 
1

>  <max_tier>  (29) 
1

>  <pains_flag>  (29) 


>  <MW>  (29) 
416.5

>  <cLogP>  (29) 
3.92

>  <HBD>  (29) 
3

>  <HBA>  (29) 
6

>  <TPSA>  (29) 
104.1

>  <ArRings>  (29) 
1

$$$$
SANC00160_minRM1.pdb
     RDKit          2D

 33 33  0  0  0  0  0  0  0  0999 V2000
    6.0000   -2.5981    0.0000 C   0  0  0  0  0  0  0  0  0  0  0  0
    5.2500   -1.2990    0.0000 O   0  0  0  0  0  0  0  0  0  0  0  0
    3.7500   -1.2990    0.0000 C   0  0  0  0  0  0  0  0  0  0  0  0
    3.0000   -2.5981    0.0000 O   0  0  0  0  0  0  0  0  0  0  0  0
    3.0000    0.0000    0.0000 C   0  0  0  0  0  0  0  0  0  0  0  0
    1.5000    0.0000    0.0000 C   0  0  0  0  0  0  0  0  0  0  0  0
    0.7500   -1.2990    0.0000 C   0  0  0  0  0  0  0  0  0  0  0  0
   -0.7500   -1.2990    0.0000 C   0  0  0  0  0  0  0  0  0  0  0  0
   -1.5000   -2.5981    0.0000 O   0  0  0  0  0  0  0  0  0  0  0  0
   -1.5000    0.0000    0.0000 C   0  0  0  0  0  0  0  0  0  0  0  0
   -3.0000    0.0000    0.0000 C   0  0  0  0  0  0  0  0  0  0  0  0
   -3.7500    1.2990    0.0000 C   0  0  0  0  0  0  0  0  0  0  0  0
   -5.2500    1.2990    0.0000 C   0  0  0  0  0  0  0  0  0  0  0  0
   -6.0000    0.0000    0.0000 C   0  0  0  0  0  0  0  0  0  0  0  0
   -6.0000    2.5981    0.0000 C   0  0  0  0  0  0  0  0  0  0  0  0
   -5.2500    3.8971    0.0000 C   0  0  0  0  0  0  0  0  0  0  0  0
   -6.0000    5.1962    0.0000 C   0  0  0  0  0  0  0  0  0  0  0  0
   -5.2500    6.4952    0.0000 C   0  0  0  0  0  0  0  0  0  0  0  0
   -3.7500    6.4952    0.0000 C   0  0  0  0  0  0  0  0  0  0  0  0
   -6.0000    7.7942    0.0000 C   0  0  0  0  0  0  0  0  0  0  0  0
   -7.5000    7.7942    0.0000 O   0  0  0  0  0  0  0  0  0  0  0  0
   -8.2500    9.0933    0.0000 C   0  0  0  0  0  0  0  0  0  0  0  0
   -9.7500    9.0933    0.0000 C   0  0  0  0  0  0  0  0  0  0  0  0
   -7.5000   10.3923    0.0000 O   0  0  0  0  0  0  0  0  0  0  0  0
   -5.2500    9.0933    0.0000 C   0  0  0  0  0  0  0  0  0  0  0  0
   -3.7500    9.0933    0.0000 O   0  0  0  0  0  0  0  0  0  0  0  0
   -6.0000   10.3923    0.0000 C   0  0  0  0  0  0  0  0  0  0  0  0
   -5.2500   11.6913    0.0000 C   0  0  0  0  0  0  0  0  0  0  0  0
   -6.0000   12.9904    0.0000 C   0  0  0  0  0  0  0  0  0  0  0  0
   -3.7500   11.6913    0.0000 C   0  0  0  0  0  0  0  0  0  0  0  0
   -0.7500    1.2990    0.0000 C   0  0  0  0  0  0  0  0  0  0  0  0
    0.7500    1.2990    0.0000 C   0  0  0  0  0  0  0  0  0  0  0  0
    1.5000    2.5981    0.0000 O   0  0  0  0  0  0  0  0  0  0  0  0
  1  2  1  0
  2  3  1  0
  3  4  2  0
  3  5  1  0
  5  6  1  0
  6  7  2  0
  7  8  1  0
  8  9  1  0
  8 10  2  0
 10 11  1  0
 11 12  1  0
 12 13  2  0
 13 14  1  0
 13 15  1  0
 15 16  1  0
 16 17  1  0
 17 18  2  0
 18 19  1  0
 18 20  1  0
 20 21  1  6
 21 22  1  0
 22 23  1  0
 22 24  2  0
 20 25  1  0
 25 26  2  0
 25 27  1  0
 27 28  2  0
 28 29  1  0
 28 30  1  0
 10 31  1  0
 31 32  2  0
 32 33  1  0
 32  6  1  0
M  END
>  <id>  (30) 
SANC00160_minRM1.pdb

>  <SMILES>  (30) 
COC(=O)Cc1cc(O)c(C/C=C(\C)CC/C=C(\C)[C@H](OC(C)=O)C(=O)C=C(C)C)cc1O

>  <warheads>  (30) 
ab_unsat_carbonyl:1

>  <n_warheads>  (30) 
1

>  <max_tier>  (30) 
1

>  <pains_flag>  (30) 


>  <MW>  (30) 
458.6

>  <cLogP>  (30) 
4.5

>  <HBD>  (30) 
2

>  <HBA>  (30) 
7

>  <TPSA>  (30) 
110.1

>  <ArRings>  (30) 
1

$$$$
SANC00161_minRM1.pdb
     RDKit          2D

 29 29  0  0  0  0  0  0  0  0999 V2000
    6.0000   -2.5981    0.0000 C   0  0  0  0  0  0  0  0  0  0  0  0
    5.2500   -1.2990    0.0000 O   0  0  0  0  0  0  0  0  0  0  0  0
    3.7500   -1.2990    0.0000 C   0  0  0  0  0  0  0  0  0  0  0  0
    3.0000   -2.5981    0.0000 O   0  0  0  0  0  0  0  0  0  0  0  0
    3.0000    0.0000    0.0000 C   0  0  0  0  0  0  0  0  0  0  0  0
    1.5000    0.0000    0.0000 C   0  0  0  0  0  0  0  0  0  0  0  0
    0.7500   -1.2990    0.0000 C   0  0  0  0  0  0  0  0  0  0  0  0
   -0.7500   -1.2990    0.0000 C   0  0  0  0  0  0  0  0  0  0  0  0
   -1.5000   -2.5981    0.0000 O   0  0  0  0  0  0  0  0  0  0  0  0
   -1.5000    0.0000    0.0000 C   0  0  0  0  0  0  0  0  0  0  0  0
   -3.0000    0.0000    0.0000 C   0  0  0  0  0  0  0  0  0  0  0  0
   -3.7500    1.2990    0.0000 C   0  0  0  0  0  0  0  0  0  0  0  0
   -5.2500    1.2990    0.0000 C   0  0  0  0  0  0  0  0  0  0  0  0
   -6.0000    0.0000    0.0000 C   0  0  0  0  0  0  0  0  0  0  0  0
   -6.0000    2.5981    0.0000 C   0  0  0  0  0  0  0  0  0  0  0  0
   -5.2500    3.8971    0.0000 C   0  0  0  0  0  0  0  0  0  0  0  0
   -6.0000    5.1962    0.0000 C   0  0  0  0  0  0  0  0  0  0  0  0
   -5.2500    6.4952    0.0000 C   0  0  0  0  0  0  0  0  0  0  0  0
   -3.7500    6.4952    0.0000 C   0  0  0  0  0  0  0  0  0  0  0  0
   -6.0000    7.7942    0.0000 C   0  0  0  0  0  0  0  0  0  0  0  0
   -5.2500    9.0933    0.0000 C   0  0  0  0  0  0  0  0  0  0  0  0
   -3.7500    9.0933    0.0000 O   0  0  0  0  0  0  0  0  0  0  0  0
   -6.0000   10.3923    0.0000 C   0  0  0  0  0  0  0  0  0  0  0  0
   -5.2500   11.6913    0.0000 C   0  0  0  0  0  0  0  0  0  0  0  0
   -6.0000   12.9904    0.0000 C   0  0  0  0  0  0  0  0  0  0  0  0
   -3.7500   11.6913    0.0000 C   0  0  0  0  0  0  0  0  0  0  0  0
   -0.7500    1.2990    0.0000 C   0  0  0  0  0  0  0  0  0  0  0  0
    0.7500    1.2990    0.0000 C   0  0  0  0  0  0  0  0  0  0  0  0
    1.5000    2.5981    0.0000 O   0  0  0  0  0  0  0  0  0  0  0  0
  1  2  1  0
  2  3  1  0
  3  4  2  0
  3  5  1  0
  5  6  1  0
  6  7  2  0
  7  8  1  0
  8  9  1  0
  8 10  2  0
 10 11  1  0
 11 12  1  0
 12 13  2  0
 13 14  1  0
 13 15  1  0
 15 16  1  0
 16 17  1  0
 17 18  2  0
 18 19  1  0
 18 20  1  0
 20 21  1  0
 21 22  2  0
 21 23  1  0
 23 24  2  0
 24 25  1  0
 24 26  1  0
 10 27  1  0
 27 28  2  0
 28 29  1  0
 28  6  1  0
M  END
>  <id>  (31) 
SANC00161_minRM1.pdb

>  <SMILES>  (31) 
COC(=O)Cc1cc(O)c(C/C=C(\C)CC/C=C(\C)CC(=O)C=C(C)C)cc1O

>  <warheads>  (31) 
ab_unsat_carbonyl:1

>  <n_warheads>  (31) 
1

>  <max_tier>  (31) 
1

>  <pains_flag>  (31) 


>  <MW>  (31) 
400.5

>  <cLogP>  (31) 
4.95

>  <HBD>  (31) 
2

>  <HBA>  (31) 
5

>  <TPSA>  (31) 
83.8

>  <ArRings>  (31) 
1

$$$$
SANC00162_minRM1.pdb
     RDKit          2D

 23 23  0  0  0  0  0  0  0  0999 V2000
   12.5260    1.2990    0.0000 C   0  0  0  0  0  0  0  0  0  0  0  0
   11.7760    0.0000    0.0000 C   0  0  0  0  0  0  0  0  0  0  0  0
   10.2760    0.0000    0.0000 C   0  0  0  0  0  0  0  0  0  0  0  0
    9.5260   -1.2990    0.0000 C   0  0  0  0  0  0  0  0  0  0  0  0
   10.2760   -2.5981    0.0000 C   0  0  0  0  0  0  0  0  0  0  0  0
    8.0260   -1.2990    0.0000 C   0  0  0  0  0  0  0  0  0  0  0  0
    7.2760    0.0000    0.0000 C   0  0  0  0  0  0  0  0  0  0  0  0
    8.0260    1.2990    0.0000 C   0  0  0  0  0  0  0  0  0  0  0  0
    5.7760    0.0000    0.0000 C   0  0  0  0  0  0  0  0  0  0  0  0
    5.0260   -1.2990    0.0000 C   0  0  0  0  0  0  0  0  0  0  0  0
    5.7760   -2.5981    0.0000 C   0  0  0  0  0  0  0  0  0  0  0  0
    3.5260   -1.2990    0.0000 C   0  0  0  0  0  0  0  0  0  0  0  0
    2.7760    0.0000    0.0000 C   0  0  0  0  0  0  0  0  0  0  0  0
    3.5260    1.2990    0.0000 C   0  0  0  0  0  0  0  0  0  0  0  0
    1.2760    0.0000    0.0000 C   0  0  0  0  0  0  0  0  0  0  0  0
    0.3943    1.2135    0.0000 C   0  0  0  0  0  0  0  0  0  0  0  0
    0.8578    2.6401    0.0000 C   0  0  0  0  0  0  0  0  0  0  0  0
   -1.0323    0.7500    0.0000 C   0  0  0  0  0  0  0  0  0  0  0  0
   -2.2458    1.6317    0.0000 O   0  0  0  0  0  0  0  0  0  0  0  0
   -1.0323   -0.7500    0.0000 C   0  0  0  0  0  0  0  0  0  0  0  0
   -1.3442   -2.2172    0.0000 C   0  0  0  0  0  0  0  0  0  0  0  0
   -2.5241   -0.5932    0.0000 O   0  0  0  0  0  0  0  0  0  0  0  0
    0.3943   -1.2135    0.0000 O   0  0  0  0  0  0  0  0  0  0  0  0
  1  2  1  0
  2  3  1  0
  3  4  1  0
  4  5  1  6
  4  6  1  0
  6  7  1  0
  7  8  1  1
  7  9  1  0
  9 10  1  0
 10 11  1  6
 10 12  1  0
 12 13  2  0
 13 14  1  0
 13 15  1  0
 15 16  2  0
 16 17  1  0
 16 18  1  0
 18 19  2  0
 18 20  1  0
 20 21  1  1
 20 22  1  0
 20 23  1  0
 23 15  1  0
M  END
>  <id>  (32) 
SANC00162_minRM1.pdb

>  <SMILES>  (32) 
CCC[C@H](C)C[C@H](C)C[C@H](C)/C=C(\C)C1=C(C)C(=O)[C@@](C)(O)O1

>  <warheads>  (32) 
ab_unsat_carbonyl:1

>  <n_warheads>  (32) 
1

>  <max_tier>  (32) 
1

>  <pains_flag>  (32) 


>  <MW>  (32) 
322.5

>  <cLogP>  (32) 
5.0

>  <HBD>  (32) 
1

>  <HBA>  (32) 
3

>  <TPSA>  (32) 
46.5

>  <ArRings>  (32) 
0

$$$$
SANC00163_minRM1.pdb
     RDKit          2D

 23 23  0  0  0  0  0  0  0  0999 V2000
   -3.2240   -7.7942    0.0000 C   0  0  0  0  0  0  0  0  0  0  0  0
   -1.7240   -7.7942    0.0000 C   0  0  0  0  0  0  0  0  0  0  0  0
   -0.9740   -6.4952    0.0000 C   0  0  0  0  0  0  0  0  0  0  0  0
    0.5260   -6.4952    0.0000 C   0  0  0  0  0  0  0  0  0  0  0  0
    1.2760   -7.7942    0.0000 C   0  0  0  0  0  0  0  0  0  0  0  0
    1.2760   -5.1962    0.0000 C   0  0  0  0  0  0  0  0  0  0  0  0
    0.5260   -3.8971    0.0000 C   0  0  0  0  0  0  0  0  0  0  0  0
   -0.9740   -3.8971    0.0000 C   0  0  0  0  0  0  0  0  0  0  0  0
    1.2760   -2.5981    0.0000 C   0  0  0  0  0  0  0  0  0  0  0  0
    2.7760   -2.5981    0.0000 C   0  0  0  0  0  0  0  0  0  0  0  0
    3.5260   -3.8971    0.0000 C   0  0  0  0  0  0  0  0  0  0  0  0
    3.5260   -1.2990    0.0000 C   0  0  0  0  0  0  0  0  0  0  0  0
    2.7760    0.0000    0.0000 C   0  0  0  0  0  0  0  0  0  0  0  0
    3.5260    1.2990    0.0000 C   0  0  0  0  0  0  0  0  0  0  0  0
    1.2760    0.0000    0.0000 C   0  0  0  0  0  0  0  0  0  0  0  0
    0.3943    1.2135    0.0000 C   0  0  0  0  0  0  0  0  0  0  0  0
    0.8578    2.6401    0.0000 C   0  0  0  0  0  0  0  0  0  0  0  0
   -1.0323    0.7500    0.0000 C   0  0  0  0  0  0  0  0  0  0  0  0
   -2.2458    1.6317    0.0000 O   0  0  0  0  0  0  0  0  0  0  0  0
   -1.0323   -0.7500    0.0000 C   0  0  0  0  0  0  0  0  0  0  0  0
   -1.3442   -2.2172    0.0000 C   0  0  0  0  0  0  0  0  0  0  0  0
   -2.5241   -0.5932    0.0000 O   0  0  0  0  0  0  0  0  0  0  0  0
    0.3943   -1.2135    0.0000 O   0  0  0  0  0  0  0  0  0  0  0  0
  1  2  1  0
  2  3  1  0
  3  4  1  0
  4  5  1  1
  4  6  1  0
  6  7  1  0
  7  8  1  6
  7  9  1  0
  9 10  1  0
 10 11  1  1
 10 12  1  0
 12 13  2  0
 13 14  1  0
 13 15  1  0
 15 16  2  0
 16 17  1  0
 16 18  1  0
 18 19  2  0
 18 20  1  0
 20 21  1  1
 20 22  1  0
 20 23  1  0
 23 15  1  0
M  END
>  <id>  (33) 
SANC00163_minRM1.pdb

>  <SMILES>  (33) 
CCC[C@H](C)C[C@H](C)C[C@H](C)/C=C(/C)C1=C(C)C(=O)[C@@](C)(O)O1

>  <warheads>  (33) 
ab_unsat_carbonyl:1

>  <n_warheads>  (33) 
1

>  <max_tier>  (33) 
1

>  <pains_flag>  (33) 


>  <MW>  (33) 
322.5

>  <cLogP>  (33) 
5.0

>  <HBD>  (33) 
1

>  <HBA>  (33) 
3

>  <TPSA>  (33) 
46.5

>  <ArRings>  (33) 
0

$$$$
SANC00164_minRM1.pdb
     RDKit          2D

 21 21  0  0  0  0  0  0  0  0999 V2000
   10.2760    2.5981    0.0000 C   0  0  0  0  0  0  0  0  0  0  0  0
    9.5260    1.2990    0.0000 C   0  0  0  0  0  0  0  0  0  0  0  0
    8.0260    1.2990    0.0000 C   0  0  0  0  0  0  0  0  0  0  0  0
    7.2760   -0.0000    0.0000 C   0  0  0  0  0  0  0  0  0  0  0  0
    8.0260   -1.2990    0.0000 C   0  0  0  0  0  0  0  0  0  0  0  0
    5.7760   -0.0000    0.0000 C   0  0  0  0  0  0  0  0  0  0  0  0
    5.0260    1.2990    0.0000 C   0  0  0  0  0  0  0  0  0  0  0  0
    5.7760    2.5981    0.0000 C   0  0  0  0  0  0  0  0  0  0  0  0
    3.5260    1.2990    0.0000 C   0  0  0  0  0  0  0  0  0  0  0  0
    2.7760    0.0000    0.0000 C   0  0  0  0  0  0  0  0  0  0  0  0
    3.5260   -1.2990    0.0000 C   0  0  0  0  0  0  0  0  0  0  0  0
    1.2760    0.0000    0.0000 C   0  0  0  0  0  0  0  0  0  0  0  0
    0.3943    1.2135    0.0000 C   0  0  0  0  0  0  0  0  0  0  0  0
    0.8578    2.6401    0.0000 C   0  0  0  0  0  0  0  0  0  0  0  0
   -1.0323    0.7500    0.0000 C   0  0  0  0  0  0  0  0  0  0  0  0
   -2.2458    1.6317    0.0000 C   0  0  0  0  0  0  0  0  0  0  0  0
   -1.0323   -0.7500    0.0000 C   0  0  0  0  0  0  0  0  0  0  0  0
   -2.2458   -1.6317    0.0000 O   0  0  0  0  0  0  0  0  0  0  0  0
    0.3943   -1.2135    0.0000 C   0  0  0  0  0  0  0  0  0  0  0  0
    1.6933   -1.9635    0.0000 C   0  0  0  0  0  0  0  0  0  0  0  0
   -0.2158   -2.5838    0.0000 O   0  0  0  0  0  0  0  0  0  0  0  0
  1  2  1  0
  2  3  1  0
  3  4  1  0
  4  5  1  6
  4  6  1  0
  6  7  1  0
  7  8  1  1
  7  9  1  0
  9 10  1  0
 10 11  1  6
 10 12  1  0
 12 13  1  1
 13 14  1  0
 13 15  2  0
 15 16  1  0
 15 17  1  0
 17 18  2  0
 17 19  1  0
 19 20  1  1
 19 21  1  0
 19 12  1  0
M  END
>  <id>  (34) 
SANC00164_minRM1.pdb

>  <SMILES>  (34) 
CCC[C@H](C)C[C@H](C)C[C@H](C)[C@@H]1C(C)=C(C)C(=O)[C@@]1(C)O

>  <warheads>  (34) 
ab_unsat_carbonyl:1

>  <n_warheads>  (34) 
1

>  <max_tier>  (34) 
1

>  <pains_flag>  (34) 


>  <MW>  (34) 
294.5

>  <cLogP>  (34) 
4.76

>  <HBD>  (34) 
1

>  <HBA>  (34) 
2

>  <TPSA>  (34) 
37.3

>  <ArRings>  (34) 
0

$$$$
SANC00165_minRM1.pdb
     RDKit          2D

 19 19  0  0  0  0  0  0  0  0999 V2000
   10.2760   -2.5981    0.0000 C   0  0  0  0  0  0  0  0  0  0  0  0
    9.5260   -1.2990    0.0000 C   0  0  0  0  0  0  0  0  0  0  0  0
    8.0260   -1.2990    0.0000 C   0  0  0  0  0  0  0  0  0  0  0  0
    7.2760    0.0000    0.0000 C   0  0  0  0  0  0  0  0  0  0  0  0
    8.0260    1.2990    0.0000 C   0  0  0  0  0  0  0  0  0  0  0  0
    5.7760    0.0000    0.0000 C   0  0  0  0  0  0  0  0  0  0  0  0
    5.0260   -1.2990    0.0000 C   0  0  0  0  0  0  0  0  0  0  0  0
    5.7760   -2.5981    0.0000 C   0  0  0  0  0  0  0  0  0  0  0  0
    3.5260   -1.2990    0.0000 C   0  0  0  0  0  0  0  0  0  0  0  0
    2.7760    0.0000    0.0000 C   0  0  0  0  0  0  0  0  0  0  0  0
    3.5260    1.2990    0.0000 C   0  0  0  0  0  0  0  0  0  0  0  0
    1.2760    0.0000    0.0000 C   0  0  0  0  0  0  0  0  0  0  0  0
    0.3943    1.2135    0.0000 O   0  0  0  0  0  0  0  0  0  0  0  0
   -1.0323    0.7500    0.0000 C   0  0  0  0  0  0  0  0  0  0  0  0
   -2.2458    1.6317    0.0000 O   0  0  0  0  0  0  0  0  0  0  0  0
   -1.0323   -0.7500    0.0000 C   0  0  0  0  0  0  0  0  0  0  0  0
   -2.2458   -1.6317    0.0000 C   0  0  0  0  0  0  0  0  0  0  0  0
    0.3943   -1.2135    0.0000 C   0  0  0  0  0  0  0  0  0  0  0  0
    0.8578   -2.6401    0.0000 C   0  0  0  0  0  0  0  0  0  0  0  0
  1  2  1  0
  2  3  1  0
  3  4  1  0
  4  5  1  1
  4  6  1  0
  6  7  1  0
  7  8  1  6
  7  9  1  0
  9 10  1  0
 10 11  1  1
 10 12  1  0
 12 13  1  6
 13 14  1  0
 14 15  2  0
 14 16  1  0
 16 17  1  0
 16 18  2  0
 18 19  1  0
 18 12  1  0
M  END
>  <id>  (35) 
SANC00165_minRM1.pdb

>  <SMILES>  (35) 
CCC[C@H](C)C[C@H](C)C[C@H](C)[C@H]1OC(=O)C(C)=C1C

>  <warheads>  (35) 
ab_unsat_carbonyl:1

>  <n_warheads>  (35) 
1

>  <max_tier>  (35) 
1

>  <pains_flag>  (35) 


>  <MW>  (35) 
266.4

>  <cLogP>  (35) 
4.74

>  <HBD>  (35) 
0

>  <HBA>  (35) 
2

>  <TPSA>  (35) 
26.3

>  <ArRings>  (35) 
0

$$$$
SANC00166_minRM1.pdb
     RDKit          2D

 17 16  0  0  0  0  0  0  0  0999 V2000
   -2.2500   -9.0933    0.0000 C   0  0  0  0  0  0  0  0  0  0  0  0
   -3.0000   -7.7942    0.0000 C   0  0  0  0  0  0  0  0  0  0  0  0
   -2.2500   -6.4952    0.0000 C   0  0  0  0  0  0  0  0  0  0  0  0
   -3.0000   -5.1962    0.0000 C   0  0  0  0  0  0  0  0  0  0  0  0
   -4.5000   -5.1962    0.0000 C   0  0  0  0  0  0  0  0  0  0  0  0
   -2.2500   -3.8971    0.0000 C   0  0  0  0  0  0  0  0  0  0  0  0
   -0.7500   -3.8971    0.0000 C   0  0  0  0  0  0  0  0  0  0  0  0
    0.0000   -5.1962    0.0000 C   0  0  0  0  0  0  0  0  0  0  0  0
    0.0000   -2.5981    0.0000 C   0  0  0  0  0  0  0  0  0  0  0  0
   -0.7500   -1.2990    0.0000 C   0  0  0  0  0  0  0  0  0  0  0  0
   -2.2500   -1.2990    0.0000 C   0  0  0  0  0  0  0  0  0  0  0  0
    0.0000    0.0000    0.0000 C   0  0  0  0  0  0  0  0  0  0  0  0
    1.5000    0.0000    0.0000 C   0  0  0  0  0  0  0  0  0  0  0  0
    2.2500   -1.2990    0.0000 C   0  0  0  0  0  0  0  0  0  0  0  0
    2.2500    1.2990    0.0000 C   0  0  0  0  0  0  0  0  0  0  0  0
    1.5000    2.5981    0.0000 O   0  0  0  0  0  0  0  0  0  0  0  0
    3.7500    1.2990    0.0000 O   0  0  0  0  0  0  0  0  0  0  0  0
  1  2  1  0
  2  3  1  0
  3  4  1  0
  4  5  1  6
  4  6  1  0
  6  7  1  0
  7  8  1  1
  7  9  1  0
  9 10  1  0
 10 11  1  6
 10 12  1  0
 12 13  2  0
 13 14  1  0
 13 15  1  0
 15 16  2  0
 15 17  1  0
M  END
>  <id>  (36) 
SANC00166_minRM1.pdb

>  <SMILES>  (36) 
CCC[C@H](C)C[C@H](C)C[C@H](C)/C=C(\C)C(=O)O

>  <warheads>  (36) 
ab_unsat_carbonyl:1

>  <n_warheads>  (36) 
1

>  <max_tier>  (36) 
1

>  <pains_flag>  (36) 


>  <MW>  (36) 
240.4

>  <cLogP>  (36) 
4.51

>  <HBD>  (36) 
1

>  <HBA>  (36) 
1

>  <TPSA>  (36) 
37.3

>  <ArRings>  (36) 
0

$$$$
SANC00176_minRM1.pdb
     RDKit          2D

 12 12  0  0  0  0  0  0  0  0999 V2000
    3.0000    0.0000    0.0000 C   0  0  0  0  0  0  0  0  0  0  0  0
    1.5000    0.0000    0.0000 C   0  0  0  0  0  0  0  0  0  0  0  0
    0.7500   -1.2990    0.0000 C   0  0  0  0  0  0  0  0  0  0  0  0
    1.5000   -2.5981    0.0000 O   0  0  0  0  0  0  0  0  0  0  0  0
   -0.7500   -1.2990    0.0000 C   0  0  0  0  0  0  0  0  0  0  0  0
   -1.5000   -2.5981    0.0000 O   0  0  0  0  0  0  0  0  0  0  0  0
   -1.5000    0.0000    0.0000 C   0  0  0  0  0  0  0  0  0  0  0  0
   -3.0000    0.0000    0.0000 C   0  0  0  0  0  0  0  0  0  0  0  0
   -3.7500    1.2990    0.0000 C   0  0  0  0  0  0  0  0  0  0  0  0
   -3.7500   -1.2990    0.0000 C   0  0  0  0  0  0  0  0  0  0  0  0
   -0.7500    1.2990    0.0000 C   0  0  0  0  0  0  0  0  0  0  0  0
    0.7500    1.2990    0.0000 C   0  0  0  0  0  0  0  0  0  0  0  0
  1  2  1  0
  2  3  2  0
  3  4  1  0
  3  5  1  0
  5  6  2  0
  5  7  1  0
  7  8  1  1
  8  9  1  0
  8 10  1  0
  7 11  1  0
 11 12  1  0
 12  2  1  0
M  END
>  <id>  (37) 
SANC00176_minRM1.pdb

>  <SMILES>  (37) 
CC1=C(O)C(=O)[C@@H](C(C)C)CC1

>  <warheads>  (37) 
ab_unsat_carbonyl:1

>  <n_warheads>  (37) 
1

>  <max_tier>  (37) 
1

>  <pains_flag>  (37) 


>  <MW>  (37) 
168.2

>  <cLogP>  (37) 
2.45

>  <HBD>  (37) 
1

>  <HBA>  (37) 
2

>  <TPSA>  (37) 
37.3

>  <ArRings>  (37) 
0

$$$$
SANC00180_minRM1.pdb
     RDKit          2D

 29 30  0  0  0  0  0  0  0  0999 V2000
    2.7760    0.0000    0.0000 C   0  0  0  0  0  0  0  0  0  0  0  0
    1.2760    0.0000    0.0000 C   0  0  0  0  0  0  0  0  0  0  0  0
    0.3943    1.2135    0.0000 C   0  0  0  0  0  0  0  0  0  0  0  0
    0.8578    2.6401    0.0000 O   0  0  0  0  0  0  0  0  0  0  0  0
   -1.0323    0.7500    0.0000 C   0  0  0  0  0  0  0  0  0  0  0  0
   -2.2458    1.6317    0.0000 C   0  0  0  0  0  0  0  0  0  0  0  0
   -3.6161    1.0216    0.0000 C   0  0  0  0  0  0  0  0  0  0  0  0
   -4.8297    1.9033    0.0000 C   0  0  0  0  0  0  0  0  0  0  0  0
   -3.7729   -0.4702    0.0000 C   0  0  0  0  0  0  0  0  0  0  0  0
   -5.1432   -1.0803    0.0000 C   0  0  0  0  0  0  0  0  0  0  0  0
   -5.3000   -2.5721    0.0000 C   0  0  0  0  0  0  0  0  0  0  0  0
   -6.6704   -3.1822    0.0000 C   0  0  0  0  0  0  0  0  0  0  0  0
   -7.8839   -2.3005    0.0000 C   0  0  0  0  0  0  0  0  0  0  0  0
   -6.8271   -4.6740    0.0000 C   0  0  0  0  0  0  0  0  0  0  0  0
   -8.1975   -5.2841    0.0000 C   0  0  0  0  0  0  0  0  0  0  0  0
   -8.3543   -6.7759    0.0000 C   0  0  0  0  0  0  0  0  0  0  0  0
   -9.7246   -7.3860    0.0000 C   0  0  0  0  0  0  0  0  0  0  0  0
  -10.9381   -6.5043    0.0000 C   0  0  0  0  0  0  0  0  0  0  0  0
   -9.8814   -8.8778    0.0000 C   0  0  0  0  0  0  0  0  0  0  0  0
  -11.2517   -9.4879    0.0000 C   0  0  0  0  0  0  0  0  0  0  0  0
  -11.4085  -10.9796    0.0000 C   0  0  0  0  0  0  0  0  0  0  0  0
  -12.7788  -11.5898    0.0000 C   0  0  0  0  0  0  0  0  0  0  0  0
  -13.0907  -13.0570    0.0000 C   0  0  0  0  0  0  0  0  0  0  0  0
  -14.5824  -13.2138    0.0000 C   0  0  0  0  0  0  0  0  0  0  0  0
  -15.1926  -11.8434    0.0000 O   0  0  0  0  0  0  0  0  0  0  0  0
  -14.0778  -10.8398    0.0000 C   0  0  0  0  0  0  0  0  0  0  0  0
   -1.0323   -0.7500    0.0000 O   0  0  0  0  0  0  0  0  0  0  0  0
    0.3943   -1.2135    0.0000 C   0  0  0  0  0  0  0  0  0  0  0  0
    0.8578   -2.6401    0.0000 O   0  0  0  0  0  0  0  0  0  0  0  0
  1  2  1  0
  2  3  2  0
  3  4  1  0
  3  5  1  0
  5  6  2  0
  6  7  1  0
  7  8  1  6
  7  9  1  0
  9 10  1  0
 10 11  1  0
 11 12  1  0
 12 13  1  0
 12 14  2  0
 14 15  1  0
 15 16  1  0
 16 17  1  0
 17 18  1  0
 17 19  2  0
 19 20  1  0
 20 21  1  0
 21 22  1  0
 22 23  1  0
 23 24  2  0
 24 25  1  0
 25 26  1  0
  5 27  1  0
 27 28  1  0
 28 29  2  0
 28  2  1  0
 26 22  2  0
M  END
>  <id>  (38) 
SANC00180_minRM1.pdb

>  <SMILES>  (38) 
CC1=C(O)/C(=C/[C@@H](C)CCC/C(C)=C/CC/C(C)=C/CCc2ccoc2)OC1=O

>  <warheads>  (38) 
ab_unsat_carbonyl:1

>  <n_warheads>  (38) 
1

>  <max_tier>  (38) 
1

>  <pains_flag>  (38) 


>  <MW>  (38) 
398.5

>  <cLogP>  (38) 
6.96

>  <HBD>  (38) 
1

>  <HBA>  (38) 
4

>  <TPSA>  (38) 
59.7

>  <ArRings>  (38) 
1

$$$$
SANC00183_minRM1.pdb
     RDKit          2D

 29 31  0  0  0  0  0  0  0  0999 V2000
    6.3469   -5.1097    0.0000 C   0  0  0  0  0  0  0  0  0  0  0  0
    5.7729   -3.7239    0.0000 C   0  0  0  0  0  0  0  0  0  0  0  0
    4.3017   -4.0165    0.0000 C   0  0  0  0  0  0  0  0  0  0  0  0
    2.8306   -3.7239    0.0000 C   0  0  0  0  0  0  0  0  0  0  0  0
    2.2565   -5.1097    0.0000 O   0  0  0  0  0  0  0  0  0  0  0  0
    1.5834   -2.8905    0.0000 O   0  0  0  0  0  0  0  0  0  0  0  0
    0.7500   -1.2990    0.0000 C   0  0  0  0  0  0  0  0  0  0  0  0
    1.5000    0.0000    0.0000 C   0  0  0  0  0  0  0  0  0  0  0  0
    0.7500    1.2990    0.0000 C   0  0  0  0  0  0  0  0  0  0  0  0
    1.5834    2.5462    0.0000 C   0  0  0  0  0  0  0  0  0  0  0  0
    2.8306    3.3796    0.0000 C   0  0  0  0  0  0  0  0  0  0  0  0
    4.3017    3.6722    0.0000 C   0  0  0  0  0  0  0  0  0  0  0  0
    4.3017    5.1722    0.0000 C   0  0  0  0  0  0  0  0  0  0  0  0
    5.7729    3.3796    0.0000 C   0  0  0  0  0  0  0  0  0  0  0  0
    7.0201    2.5462    0.0000 C   0  0  0  0  0  0  0  0  0  0  0  0
    7.8535    1.2990    0.0000 C   0  0  0  0  0  0  0  0  0  0  0  0
    7.5608   -0.1721    0.0000 C   0  0  0  0  0  0  0  0  0  0  0  0
    7.8535   -1.6433    0.0000 C   0  0  0  0  0  0  0  0  0  0  0  0
    7.0201   -2.8905    0.0000 C   0  0  0  0  0  0  0  0  0  0  0  0
   -0.7500    1.2990    0.0000 O   0  0  0  0  0  0  0  0  0  0  0  0
   -1.5000    0.0000    0.0000 C   0  0  0  0  0  0  0  0  0  0  0  0
   -2.6491    0.9642    0.0000 O   0  0  0  0  0  0  0  0  0  0  0  0
   -2.6491   -0.9642    0.0000 C   0  0  0  0  0  0  0  0  0  0  0  0
   -2.5444   -2.4605    0.0000 C   0  0  0  0  0  0  0  0  0  0  0  0
   -3.9352   -3.0224    0.0000 S   0  0  0  0  0  0  0  0  0  0  0  0
   -4.8994   -1.8734    0.0000 C   0  0  0  0  0  0  0  0  0  0  0  0
   -6.3957   -1.9780    0.0000 O   0  0  0  0  0  0  0  0  0  0  0  0
   -4.1045   -0.6013    0.0000 N   0  0  0  0  0  0  0  0  0  0  0  0
   -0.7500   -1.2990    0.0000 C   0  0  0  0  0  0  0  0  0  0  0  0
  1  2  1  0
  2  3  2  0
  3  4  1  0
  4  5  2  0
  4  6  1  0
  6  7  1  0
  7  8  1  0
  8  9  1  0
  9 10  1  6
 10 11  1  0
 11 12  1  0
 12 13  1  6
 12 14  1  0
 14 15  2  0
 15 16  1  0
 16 17  2  0
 17 18  1  0
 18 19  1  0
  9 20  1  0
 20 21  1  0
 21 22  1  1
 21 23  1  0
 23 24  1  6
 24 25  1  0
 25 26  1  0
 26 27  2  0
 26 28  1  0
 21 29  1  0
 19  2  1  0
 28 23  1  0
  7 29  1  1
M  END
>  <id>  (39) 
SANC00183_minRM1.pdb

>  <SMILES>  (39) 
C/C1=C/C(=O)O[C@@H]2C[C@@H](CC[C@H](C)/C=C\C=C\CC1)O[C@@](O)([C@@H]1CSC(=O)N1)C2

>  <warheads>  (39) 
ab_unsat_carbonyl:1

>  <n_warheads>  (39) 
1

>  <max_tier>  (39) 
1

>  <pains_flag>  (39) 


>  <MW>  (39) 
421.6

>  <cLogP>  (39) 
3.86

>  <HBD>  (39) 
2

>  <HBA>  (39) 
6

>  <TPSA>  (39) 
84.9

>  <ArRings>  (39) 
0

$$$$
SANC00184_minRM1.pdb
     RDKit          2D

 27 29  0  0  0  0  0  0  0  0999 V2000
    6.8234   -3.9712    0.0000 C   0  0  0  0  0  0  0  0  0  0  0  0
    5.8881   -2.7985    0.0000 C   0  0  0  0  0  0  0  0  0  0  0  0
    4.5367   -3.4493    0.0000 C   0  0  0  0  0  0  0  0  0  0  0  0
    3.0367   -3.4493    0.0000 C   0  0  0  0  0  0  0  0  0  0  0  0
    2.7029   -4.9117    0.0000 O   0  0  0  0  0  0  0  0  0  0  0  0
    1.6852   -2.7985    0.0000 O   0  0  0  0  0  0  0  0  0  0  0  0
    0.7500   -1.2990    0.0000 C   0  0  0  0  0  0  0  0  0  0  0  0
    1.5000    0.0000    0.0000 C   0  0  0  0  0  0  0  0  0  0  0  0
    0.7500    1.2990    0.0000 C   0  0  0  0  0  0  0  0  0  0  0  0
    1.6852    2.4718    0.0000 C   0  0  0  0  0  0  0  0  0  0  0  0
    3.0367    3.1226    0.0000 C   0  0  0  0  0  0  0  0  0  0  0  0
    4.5367    3.1226    0.0000 C   0  0  0  0  0  0  0  0  0  0  0  0
    4.8705    4.5850    0.0000 C   0  0  0  0  0  0  0  0  0  0  0  0
    5.8881    2.4718    0.0000 C   0  0  0  0  0  0  0  0  0  0  0  0
    6.8234    1.2990    0.0000 C   0  0  0  0  0  0  0  0  0  0  0  0
    7.1572   -0.1634    0.0000 C   0  0  0  0  0  0  0  0  0  0  0  0
    6.8234   -1.6257    0.0000 C   0  0  0  0  0  0  0  0  0  0  0  0
   -0.7500    1.2990    0.0000 O   0  0  0  0  0  0  0  0  0  0  0  0
   -1.5000    0.0000    0.0000 C   0  0  0  0  0  0  0  0  0  0  0  0
   -2.6491    0.9642    0.0000 O   0  0  0  0  0  0  0  0  0  0  0  0
   -2.6491   -0.9642    0.0000 C   0  0  0  0  0  0  0  0  0  0  0  0
   -2.5444   -2.4605    0.0000 C   0  0  0  0  0  0  0  0  0  0  0  0
   -3.9352   -3.0224    0.0000 S   0  0  0  0  0  0  0  0  0  0  0  0
   -4.8994   -1.8734    0.0000 C   0  0  0  0  0  0  0  0  0  0  0  0
   -6.3957   -1.9780    0.0000 O   0  0  0  0  0  0  0  0  0  0  0  0
   -4.1045   -0.6013    0.0000 N   0  0  0  0  0  0  0  0  0  0  0  0
   -0.7500   -1.2990    0.0000 C   0  0  0  0  0  0  0  0  0  0  0  0
  1  2  1  0
  2  3  2  0
  3  4  1  0
  4  5  2  0
  4  6  1  0
  6  7  1  0
  7  8  1  0
  8  9  1  0
  9 10  1  6
 10 11  1  0
 11 12  1  0
 12 13  1  6
 12 14  1  0
 14 15  2  0
 15 16  1  0
 16 17  1  0
  9 18  1  0
 18 19  1  0
 19 20  1  1
 19 21  1  0
 21 22  1  6
 22 23  1  0
 23 24  1  0
 24 25  2  0
 24 26  1  0
 19 27  1  0
 17  2  1  0
 26 21  1  0
  7 27  1  1
M  END
>  <id>  (40) 
SANC00184_minRM1.pdb

>  <SMILES>  (40) 
C/C1=C/C(=O)O[C@@H]2C[C@@H](CC[C@H](C)/C=C\CC1)O[C@@](O)([C@@H]1CSC(=O)N1)C2

>  <warheads>  (40) 
ab_unsat_carbonyl:1

>  <n_warheads>  (40) 
1

>  <max_tier>  (40) 
1

>  <pains_flag>  (40) 


>  <MW>  (40) 
395.5

>  <cLogP>  (40) 
3.3

>  <HBD>  (40) 
2

>  <HBA>  (40) 
6

>  <TPSA>  (40) 
84.9

>  <ArRings>  (40) 
0

$$$$
SANC00187_minRM1.pdb
     RDKit          2D

 25 26  0  0  0  0  0  0  0  0999 V2000
    3.5377    0.8075    0.0000 C   0  0  0  0  0  0  0  0  0  0  0  0
    4.9472    0.2945    0.0000 C   0  0  0  0  0  0  0  0  0  0  0  0
    6.0963    1.2586    0.0000 C   0  0  0  0  0  0  0  0  0  0  0  0
    5.2077   -1.1827    0.0000 C   0  0  0  0  0  0  0  0  0  0  0  0
    6.6172   -1.6958    0.0000 C   0  0  0  0  0  0  0  0  0  0  0  0
    4.0586   -2.1469    0.0000 C   0  0  0  0  0  0  0  0  0  0  0  0
    2.6491   -1.6339    0.0000 C   0  0  0  0  0  0  0  0  0  0  0  0
    1.5000   -2.5981    0.0000 C   0  0  0  0  0  0  0  0  0  0  0  0
    2.6491   -3.5623    0.0000 C   0  0  0  0  0  0  0  0  0  0  0  0
    0.7500   -1.2990    0.0000 C   0  0  0  0  0  0  0  0  0  0  0  0
    1.5000    0.0000    0.0000 C   0  0  0  0  0  0  0  0  0  0  0  0
    0.7500    1.2990    0.0000 C   0  0  0  0  0  0  0  0  0  0  0  0
   -0.7500    1.2990    0.0000 C   0  0  0  0  0  0  0  0  0  0  0  0
   -1.5000    2.5981    0.0000 C   0  0  0  0  0  0  0  0  0  0  0  0
   -0.7500    3.8971    0.0000 O   0  0  0  0  0  0  0  0  0  0  0  0
   -1.5000    0.0000    0.0000 C   0  0  0  0  0  0  0  0  0  0  0  0
   -3.0000    0.0000    0.0000 C   0  0  0  0  0  0  0  0  0  0  0  0
   -3.7500    1.2990    0.0000 O   0  0  0  0  0  0  0  0  0  0  0  0
   -0.7500   -1.2990    0.0000 C   0  0  0  0  0  0  0  0  0  0  0  0
   -2.2500   -1.2990    0.0000 C   0  0  0  0  0  0  0  0  0  0  0  0
   -1.5000   -2.5981    0.0000 C   0  0  0  0  0  0  0  0  0  0  0  0
   -0.7500   -3.8971    0.0000 C   0  0  0  0  0  0  0  0  0  0  0  0
   -1.5000   -5.1962    0.0000 O   0  0  0  0  0  0  0  0  0  0  0  0
    0.7500   -3.8971    0.0000 C   0  0  0  0  0  0  0  0  0  0  0  0
    1.5000   -5.1962    0.0000 Cl  0  0  0  0  0  0  0  0  0  0  0  0
  1  2  2  0
  2  3  1  0
  2  4  1  0
  4  5  1  1
  4  6  1  0
  6  7  1  0
  7  8  1  0
  8  9  1  6
  8 10  1  0
 10 11  1  1
 11 12  1  0
 12 13  2  0
 13 14  1  0
 14 15  2  0
 13 16  1  0
 16 17  1  1
 17 18  2  0
 16 19  1  0
 19 20  1  1
 19 21  1  0
 21 22  1  0
 22 23  1  1
 22 24  1  0
 24 25  1  1
 24  8  1  0
 19 10  1  0
M  END
>  <id>  (41) 
SANC00187_minRM1.pdb

>  <SMILES>  (41) 
C=C(C)[C@@H](C)CC[C@]1(C)[C@@H]2CC=C(C=O)[C@H](C=O)[C@@]2(C)C[C@H](O)[C@@H]1Cl

>  <warheads>  (41) 
ab_unsat_carbonyl:1

>  <n_warheads>  (41) 
1

>  <max_tier>  (41) 
1

>  <pains_flag>  (41) 


>  <MW>  (41) 
366.9

>  <cLogP>  (41) 
4.32

>  <HBD>  (41) 
1

>  <HBA>  (41) 
3

>  <TPSA>  (41) 
54.4

>  <ArRings>  (41) 
0

$$$$
SANC00188_minRM1.pdb
     RDKit          2D

 26 28  0  0  0  0  0  0  0  0999 V2000
   -3.8897    3.9843    0.0000 C   0  0  0  0  0  0  0  0  0  0  0  0
   -4.5939    5.3087    0.0000 C   0  0  0  0  0  0  0  0  0  0  0  0
   -6.0930    5.3611    0.0000 C   0  0  0  0  0  0  0  0  0  0  0  0
   -3.7991    6.5808    0.0000 C   0  0  0  0  0  0  0  0  0  0  0  0
   -4.5033    7.9052    0.0000 C   0  0  0  0  0  0  0  0  0  0  0  0
   -2.3000    6.5284    0.0000 C   0  0  0  0  0  0  0  0  0  0  0  0
   -1.5958    5.2040    0.0000 C   0  0  0  0  0  0  0  0  0  0  0  0
   -0.0967    5.1517    0.0000 C   0  0  0  0  0  0  0  0  0  0  0  0
   -0.3054    6.6371    0.0000 C   0  0  0  0  0  0  0  0  0  0  0  0
   -0.4086    3.6844    0.0000 C   0  0  0  0  0  0  0  0  0  0  0  0
   -1.8351    3.2209    0.0000 C   0  0  0  0  0  0  0  0  0  0  0  0
   -2.1470    1.7537    0.0000 C   0  0  0  0  0  0  0  0  0  0  0  0
   -3.5736    1.2902    0.0000 O   0  0  0  0  0  0  0  0  0  0  0  0
   -1.0323    0.7500    0.0000 C   0  0  0  0  0  0  0  0  0  0  0  0
    0.3943    1.2135    0.0000 C   0  0  0  0  0  0  0  0  0  0  0  0
    1.2760    0.0000    0.0000 C   0  0  0  0  0  0  0  0  0  0  0  0
    2.7760    0.0000    0.0000 O   0  0  0  0  0  0  0  0  0  0  0  0
    0.3943   -1.2135    0.0000 O   0  0  0  0  0  0  0  0  0  0  0  0
   -1.0323   -0.7500    0.0000 C   0  0  0  0  0  0  0  0  0  0  0  0
    0.7062    2.6807    0.0000 C   0  0  0  0  0  0  0  0  0  0  0  0
    1.8209    1.6771    0.0000 C   0  0  0  0  0  0  0  0  0  0  0  0
    2.1328    3.1443    0.0000 C   0  0  0  0  0  0  0  0  0  0  0  0
    2.4446    4.6115    0.0000 C   0  0  0  0  0  0  0  0  0  0  0  0
    3.8712    5.0750    0.0000 O   0  0  0  0  0  0  0  0  0  0  0  0
    1.3299    5.6152    0.0000 C   0  0  0  0  0  0  0  0  0  0  0  0
    1.6418    7.0824    0.0000 Cl  0  0  0  0  0  0  0  0  0  0  0  0
  1  2  2  0
  2  3  1  0
  2  4  1  0
  4  5  1  1
  4  6  1  0
  6  7  1  0
  7  8  1  0
  8  9  1  6
  8 10  1  0
 10 11  1  6
 11 12  1  0
 12 13  2  0
 12 14  1  0
 14 15  2  0
 15 16  1  0
 16 17  2  0
 16 18  1  0
 18 19  1  0
 15 20  1  0
 20 21  1  6
 20 22  1  0
 22 23  1  0
 23 24  1  1
 23 25  1  0
 25 26  1  1
 25  8  1  0
 20 10  1  0
 19 14  1  0
M  END
>  <id>  (42) 
SANC00188_minRM1.pdb

>  <SMILES>  (42) 
C=C(C)[C@@H](C)CC[C@]1(C)[C@H]2CC(=O)C3=C(C(=O)OC3)[C@]2(C)C[C@H](O)[C@@H]1Cl

>  <warheads>  (42) 
ab_unsat_carbonyl:2

>  <n_warheads>  (42) 
2

>  <max_tier>  (42) 
1

>  <pains_flag>  (42) 


>  <MW>  (42) 
380.9

>  <cLogP>  (42) 
3.81

>  <HBD>  (42) 
1

>  <HBA>  (42) 
4

>  <TPSA>  (42) 
63.6

>  <ArRings>  (42) 
0

$$$$
SANC00189_minRM1.pdb
     RDKit          2D

 28 31  0  0  0  0  0  0  0  0999 V2000
   -3.7500   -6.4952    0.0000 C   0  0  0  0  0  0  0  0  0  0  0  0
   -3.0000   -5.1962    0.0000 C   0  0  0  0  0  0  0  0  0  0  0  0
   -3.7500   -3.8971    0.0000 C   0  0  0  0  0  0  0  0  0  0  0  0
   -3.0000   -2.5981    0.0000 C   0  0  0  0  0  0  0  0  0  0  0  0
   -1.5000   -2.5981    0.0000 C   0  0  0  0  0  0  0  0  0  0  0  0
   -0.7500   -3.8971    0.0000 C   0  0  0  0  0  0  0  0  0  0  0  0
   -0.0000   -5.1962    0.0000 C   0  0  0  0  0  0  0  0  0  0  0  0
    0.7500   -3.8971    0.0000 C   0  0  0  0  0  0  0  0  0  0  0  0
    1.5000   -2.5981    0.0000 C   0  0  0  0  0  0  0  0  0  0  0  0
    0.7500   -1.2990    0.0000 C   0  0  0  0  0  0  0  0  0  0  0  0
    1.5000    0.0000    0.0000 C   0  0  0  0  0  0  0  0  0  0  0  0
    2.6491    0.9642    0.0000 C   0  0  0  0  0  0  0  0  0  0  0  0
    2.6491   -0.9642    0.0000 C   0  0  0  0  0  0  0  0  0  0  0  0
    0.7500    1.2990    0.0000 C   0  0  0  0  0  0  0  0  0  0  0  0
   -0.7500    1.2990    0.0000 C   0  0  0  0  0  0  0  0  0  0  0  0
   -1.5000    0.0000    0.0000 C   0  0  0  0  0  0  0  0  0  0  0  0
   -0.7500   -1.2990    0.0000 C   0  0  0  0  0  0  0  0  0  0  0  0
   -2.2500   -1.2990    0.0000 C   0  0  0  0  0  0  0  0  0  0  0  0
   -1.5000   -5.1962    0.0000 C   0  0  0  0  0  0  0  0  0  0  0  0
   -0.7500   -6.4952    0.0000 C   0  0  0  0  0  0  0  0  0  0  0  0
   -1.5000   -7.7942    0.0000 C   0  0  0  0  0  0  0  0  0  0  0  0
   -3.0000   -7.7942    0.0000 O   0  0  0  0  0  0  0  0  0  0  0  0
   -0.7500   -9.0933    0.0000 C   0  0  0  0  0  0  0  0  0  0  0  0
    0.7418   -9.2501    0.0000 C   0  0  0  0  0  0  0  0  0  0  0  0
    1.0537  -10.7173    0.0000 C   0  0  0  0  0  0  0  0  0  0  0  0
    2.4240  -11.3274    0.0000 O   0  0  0  0  0  0  0  0  0  0  0  0
   -0.2454  -11.4673    0.0000 O   0  0  0  0  0  0  0  0  0  0  0  0
   -1.3601  -10.4636    0.0000 C   0  0  0  0  0  0  0  0  0  0  0  0
  1  2  2  0
  2  3  1  0
  3  4  1  0
  5  4  1  6
  5  6  1  0
  6  7  1  6
  6  8  1  0
  8  9  1  0
 10  9  1  6
 10 11  1  0
 11 12  1  0
 11 13  1  0
 11 14  1  0
 14 15  1  0
 15 16  1  0
 16 17  1  0
 17 18  1  6
  6 19  1  0
 19 20  1  6
 20 21  1  0
 21 22  1  6
 21 23  1  0
 23 24  2  0
 24 25  1  0
 25 26  2  0
 25 27  1  0
 27 28  1  0
 19  2  1  0
 28 23  1  0
 17  5  1  0
 17 10  1  0
M  END
>  <id>  (43) 
SANC00189_minRM1.pdb

>  <SMILES>  (43) 
C=C1CC[C@H]2[C@@](C)(CC[C@H]3C(C)(C)CCC[C@]23C)[C@@H]1C[C@@H](O)C1=CC(=O)OC1

>  <warheads>  (43) 
ab_unsat_carbonyl:1

>  <n_warheads>  (43) 
1

>  <max_tier>  (43) 
1

>  <pains_flag>  (43) 


>  <MW>  (43) 
386.6

>  <cLogP>  (43) 
5.44

>  <HBD>  (43) 
1

>  <HBA>  (43) 
3

>  <TPSA>  (43) 
46.5

>  <ArRings>  (43) 
0

$$$$
SANC00190_minRM1.pdb
     RDKit          2D

 16 17  0  0  0  0  0  0  0  0999 V2000
   -3.8230    3.5974    0.0000 C   0  0  0  0  0  0  0  0  0  0  0  0
   -2.4186    3.0703    0.0000 C   0  0  0  0  0  0  0  0  0  0  0  0
   -1.3344    4.1069    0.0000 C   0  0  0  0  0  0  0  0  0  0  0  0
    0.1520    3.9056    0.0000 C   0  0  0  0  0  0  0  0  0  0  0  0
    0.9214    2.6179    0.0000 C   0  0  0  0  0  0  0  0  0  0  0  0
    0.3943    1.2135    0.0000 C   0  0  0  0  0  0  0  0  0  0  0  0
    1.8807    1.4149    0.0000 C   0  0  0  0  0  0  0  0  0  0  0  0
    1.2760    0.0000    0.0000 C   0  0  0  0  0  0  0  0  0  0  0  0
    0.3943   -1.2135    0.0000 C   0  0  0  0  0  0  0  0  0  0  0  0
   -1.0323   -0.7500    0.0000 C   0  0  0  0  0  0  0  0  0  0  0  0
   -2.2458   -1.6317    0.0000 C   0  0  0  0  0  0  0  0  0  0  0  0
   -2.0890   -3.1235    0.0000 C   0  0  0  0  0  0  0  0  0  0  0  0
   -3.6161   -1.0216    0.0000 C   0  0  0  0  0  0  0  0  0  0  0  0
   -1.0323    0.7500    0.0000 C   0  0  0  0  0  0  0  0  0  0  0  0
   -2.2841    1.5763    0.0000 C   0  0  0  0  0  0  0  0  0  0  0  0
   -3.5718    0.8070    0.0000 O   0  0  0  0  0  0  0  0  0  0  0  0
  1  2  2  0
  2  3  1  0
  3  4  1  0
  4  5  1  0
  5  6  1  0
  6  7  1  6
  6  8  1  0
  8  9  1  0
  9 10  1  0
 10 11  1  1
 11 12  1  0
 11 13  1  0
 10 14  1  0
 14 15  1  1
 15 16  2  0
 15  2  1  0
 14  6  1  0
M  END
>  <id>  (44) 
SANC00190_minRM1.pdb

>  <SMILES>  (44) 
C=C1CCC[C@@]2(C)CC[C@@H](C(C)C)[C@H]2C1=O

>  <warheads>  (44) 
ab_unsat_carbonyl:1;exo_methylene_carbonyl:1

>  <n_warheads>  (44) 
2

>  <max_tier>  (44) 
1

>  <pains_flag>  (44) 


>  <MW>  (44) 
220.4

>  <cLogP>  (44) 
3.98

>  <HBD>  (44) 
0

>  <HBA>  (44) 
1

>  <TPSA>  (44) 
17.1

>  <ArRings>  (44) 
0

$$$$
SANC00191_minRM1.pdb
     RDKit          2D

 16 18  0  0  0  0  0  0  0  0999 V2000
    2.4153    2.7523    0.0000 C   0  0  0  0  0  0  0  0  0  0  0  0
    0.9214    2.6179    0.0000 C   0  0  0  0  0  0  0  0  0  0  0  0
    0.3943    1.2135    0.0000 C   0  0  0  0  0  0  0  0  0  0  0  0
    1.2760    0.0000    0.0000 C   0  0  0  0  0  0  0  0  0  0  0  0
    0.3943   -1.2135    0.0000 C   0  0  0  0  0  0  0  0  0  0  0  0
   -1.0323   -0.7500    0.0000 C   0  0  0  0  0  0  0  0  0  0  0  0
   -2.2458   -1.6317    0.0000 C   0  0  0  0  0  0  0  0  0  0  0  0
   -1.0323    0.7500    0.0000 C   0  0  0  0  0  0  0  0  0  0  0  0
   -2.2841    1.5763    0.0000 C   0  0  0  0  0  0  0  0  0  0  0  0
   -2.4186    3.0703    0.0000 C   0  0  0  0  0  0  0  0  0  0  0  0
   -1.3344    4.1069    0.0000 C   0  0  0  0  0  0  0  0  0  0  0  0
    0.1520    3.9056    0.0000 C   0  0  0  0  0  0  0  0  0  0  0  0
    0.9784    5.1574    0.0000 O   0  0  0  0  0  0  0  0  0  0  0  0
   -3.6452    2.2069    0.0000 C   0  0  0  0  0  0  0  0  0  0  0  0
   -4.7085    3.2649    0.0000 C   0  0  0  0  0  0  0  0  0  0  0  0
   -4.5025    0.9760    0.0000 C   0  0  0  0  0  0  0  0  0  0  0  0
  1  2  1  0
  2  3  2  0
  3  4  1  0
  4  5  1  0
  5  6  1  0
  6  7  1  6
  6  8  1  0
  8  9  1  0
  9 10  1  0
 10 11  1  1
 11 12  1  0
 12 13  2  0
 10 14  1  0
 14 15  1  0
 14 16  1  0
 12  2  1  0
  8  3  1  6
  9 14  1  1
M  END
>  <id>  (45) 
SANC00191_minRM1.pdb

>  <SMILES>  (45) 
CC1=C2CC[C@H](C)[C@@H]2[C@@H]2[C@H](CC1=O)C2(C)C

>  <warheads>  (45) 
ab_unsat_carbonyl:1

>  <n_warheads>  (45) 
1

>  <max_tier>  (45) 
1

>  <pains_flag>  (45) 


>  <MW>  (45) 
218.3

>  <cLogP>  (45) 
3.59

>  <HBD>  (45) 
0

>  <HBA>  (45) 
1

>  <TPSA>  (45) 
17.1

>  <ArRings>  (45) 
0

$$$$
SANC00195_minRM1.pdb
     RDKit          2D

 16 18  0  0  0  0  0  0  0  0999 V2000
   -1.1248   -3.3319    0.0000 C   0  0  0  0  0  0  0  0  0  0  0  0
   -0.1211   -2.2172    0.0000 C   0  0  0  0  0  0  0  0  0  0  0  0
    1.3706   -2.3740    0.0000 C   0  0  0  0  0  0  0  0  0  0  0  0
    1.9807   -1.0037    0.0000 C   0  0  0  0  0  0  0  0  0  0  0  0
    3.4750   -0.8730    0.0000 O   0  0  0  0  0  0  0  0  0  0  0  0
    0.8660    0.0000    0.0000 C   0  0  0  0  0  0  0  0  0  0  0  0
   -0.4330    0.7500    0.0000 C   0  0  0  0  0  0  0  0  0  0  0  0
   -0.4330    2.2500    0.0000 C   0  0  0  0  0  0  0  0  0  0  0  0
   -1.7321    3.0000    0.0000 C   0  0  0  0  0  0  0  0  0  0  0  0
   -1.7321    4.5000    0.0000 C   0  0  0  0  0  0  0  0  0  0  0  0
   -3.0311    2.2500    0.0000 C   0  0  0  0  0  0  0  0  0  0  0  0
    0.8660    3.0000    0.0000 C   0  0  0  0  0  0  0  0  0  0  0  0
    2.1651    2.2500    0.0000 C   0  0  0  0  0  0  0  0  0  0  0  0
    2.1651    0.7500    0.0000 C   0  0  0  0  0  0  0  0  0  0  0  0
    3.5458    0.1639    0.0000 C   0  0  0  0  0  0  0  0  0  0  0  0
   -0.4330   -0.7500    0.0000 C   0  0  0  0  0  0  0  0  0  0  0  0
  1  2  1  0
  2  3  2  0
  3  4  1  0
  4  5  2  0
  6  4  1  1
  6  7  1  0
  7  8  1  6
  8  9  1  1
  9 10  1  0
  9 11  1  0
  8 12  1  0
 12 13  1  0
 13 14  1  0
 14 15  1  6
  7 16  1  0
 16  2  1  1
 14  6  1  0
 16  6  1  0
M  END
>  <id>  (46) 
SANC00195_minRM1.pdb

>  <SMILES>  (46) 
CC1=CC(=O)[C@@]23[C@@H]([C@@H](C(C)C)CC[C@@H]2C)[C@H]13

>  <warheads>  (46) 
ab_unsat_carbonyl:1

>  <n_warheads>  (46) 
1

>  <max_tier>  (46) 
1

>  <pains_flag>  (46) 


>  <MW>  (46) 
218.3

>  <cLogP>  (46) 
3.45

>  <HBD>  (46) 
0

>  <HBA>  (46) 
1

>  <TPSA>  (46) 
17.1

>  <ArRings>  (46) 
0

$$$$
SANC00200_minRM1.pdb
     RDKit          2D

 29 30  0  0  0  0  0  0  0  0999 V2000
   -7.2058   -0.8999    0.0000 C   0  0  0  0  0  0  0  0  0  0  0  0
   -5.7140   -1.0567    0.0000 C   0  0  0  0  0  0  0  0  0  0  0  0
   -5.1039   -2.4271    0.0000 C   0  0  0  0  0  0  0  0  0  0  0  0
   -5.9856   -3.6406    0.0000 O   0  0  0  0  0  0  0  0  0  0  0  0
   -4.8323    0.1568    0.0000 C   0  0  0  0  0  0  0  0  0  0  0  0
   -5.4424    1.5271    0.0000 O   0  0  0  0  0  0  0  0  0  0  0  0
   -3.3405    0.0000    0.0000 O   0  0  0  0  0  0  0  0  0  0  0  0
   -2.4589    1.2135    0.0000 C   0  0  0  0  0  0  0  0  0  0  0  0
   -3.3405    2.4271    0.0000 C   0  0  0  0  0  0  0  0  0  0  0  0
   -3.3405    3.9271    0.0000 C   0  0  0  0  0  0  0  0  0  0  0  0
   -4.7671    4.3906    0.0000 C   0  0  0  0  0  0  0  0  0  0  0  0
   -5.0790    5.8578    0.0000 O   0  0  0  0  0  0  0  0  0  0  0  0
   -6.5056    6.3213    0.0000 C   0  0  0  0  0  0  0  0  0  0  0  0
   -6.8175    7.7885    0.0000 C   0  0  0  0  0  0  0  0  0  0  0  0
   -7.6203    5.3176    0.0000 O   0  0  0  0  0  0  0  0  0  0  0  0
   -2.4589    5.1406    0.0000 C   0  0  0  0  0  0  0  0  0  0  0  0
   -1.0323    5.6041    0.0000 C   0  0  0  0  0  0  0  0  0  0  0  0
    0.3943    5.1406    0.0000 C   0  0  0  0  0  0  0  0  0  0  0  0
    1.2760    3.9271    0.0000 C   0  0  0  0  0  0  0  0  0  0  0  0
    2.7026    4.3906    0.0000 C   0  0  0  0  0  0  0  0  0  0  0  0
    3.8173    3.3869    0.0000 O   0  0  0  0  0  0  0  0  0  0  0  0
    1.2760    2.4271    0.0000 C   0  0  0  0  0  0  0  0  0  0  0  0
    0.3943    1.2135    0.0000 C   0  0  0  0  0  0  0  0  0  0  0  0
    1.2760    0.0000    0.0000 O   0  0  0  0  0  0  0  0  0  0  0  0
    0.3943   -1.2135    0.0000 C   0  0  0  0  0  0  0  0  0  0  0  0
    0.8578   -2.6401    0.0000 O   0  0  0  0  0  0  0  0  0  0  0  0
   -1.0323   -0.7500    0.0000 C   0  0  0  0  0  0  0  0  0  0  0  0
   -2.2458   -1.6317    0.0000 C   0  0  0  0  0  0  0  0  0  0  0  0
   -1.0323    0.7500    0.0000 C   0  0  0  0  0  0  0  0  0  0  0  0
  1  2  2  0
  2  3  1  0
  3  4  1  0
  2  5  1  0
  5  6  2  0
  5  7  1  0
  8  7  1  1
  8  9  1  0
  9 10  1  0
 10 11  1  0
 11 12  1  0
 12 13  1  0
 13 14  1  0
 13 15  2  0
 10 16  2  0
 16 17  1  0
 17 18  1  0
 18 19  1  0
 19 20  1  0
 20 21  2  0
 19 22  2  0
 22 23  1  0
 23 24  1  1
 24 25  1  0
 25 26  2  0
 25 27  1  0
 27 28  2  0
 29 27  1  6
 29  8  1  0
 29 23  1  0
M  END
>  <id>  (47) 
SANC00200_minRM1.pdb

>  <SMILES>  (47) 
C=C(CO)C(=O)O[C@H]1C/C(COC(C)=O)=C\CC/C(C=O)=C\[C@H]2OC(=O)C(=C)[C@H]12

>  <warheads>  (47) 
ab_unsat_carbonyl:3;exo_methylene_carbonyl:2

>  <n_warheads>  (47) 
5

>  <max_tier>  (47) 
1

>  <pains_flag>  (47) 


>  <MW>  (47) 
404.4

>  <cLogP>  (47) 
1.34

>  <HBD>  (47) 
1

>  <HBA>  (47) 
8

>  <TPSA>  (47) 
116.2

>  <ArRings>  (47) 
0

$$$$
SANC00201_minRM1.pdb
     RDKit          2D

 29 30  0  0  0  0  0  0  0  0999 V2000
   -4.0384    4.5977    0.0000 C   0  0  0  0  0  0  0  0  0  0  0  0
   -3.3342    3.2733    0.0000 C   0  0  0  0  0  0  0  0  0  0  0  0
   -1.8351    3.2209    0.0000 C   0  0  0  0  0  0  0  0  0  0  0  0
   -2.0439    4.7063    0.0000 C   0  0  0  0  0  0  0  0  0  0  0  0
   -0.8619    5.6298    0.0000 O   0  0  0  0  0  0  0  0  0  0  0  0
   -1.0706    7.1152    0.0000 C   0  0  0  0  0  0  0  0  0  0  0  0
    0.1114    8.0387    0.0000 C   0  0  0  0  0  0  0  0  0  0  0  0
   -2.4614    7.6771    0.0000 O   0  0  0  0  0  0  0  0  0  0  0  0
   -0.4086    3.6844    0.0000 C   0  0  0  0  0  0  0  0  0  0  0  0
    0.7062    2.6807    0.0000 C   0  0  0  0  0  0  0  0  0  0  0  0
    2.1328    3.1443    0.0000 O   0  0  0  0  0  0  0  0  0  0  0  0
    2.4446    4.6115    0.0000 C   0  0  0  0  0  0  0  0  0  0  0  0
    1.3299    5.6152    0.0000 O   0  0  0  0  0  0  0  0  0  0  0  0
    3.8712    5.0750    0.0000 C   0  0  0  0  0  0  0  0  0  0  0  0
    4.1831    6.5422    0.0000 C   0  0  0  0  0  0  0  0  0  0  0  0
    4.9859    4.0713    0.0000 C   0  0  0  0  0  0  0  0  0  0  0  0
    6.4125    4.5348    0.0000 O   0  0  0  0  0  0  0  0  0  0  0  0
    0.3943    1.2135    0.0000 C   0  0  0  0  0  0  0  0  0  0  0  0
    1.2760    0.0000    0.0000 C   0  0  0  0  0  0  0  0  0  0  0  0
    2.7760    0.0000    0.0000 C   0  0  0  0  0  0  0  0  0  0  0  0
    0.3943   -1.2135    0.0000 C   0  0  0  0  0  0  0  0  0  0  0  0
    0.8578   -2.6401    0.0000 O   0  0  0  0  0  0  0  0  0  0  0  0
   -1.0323   -0.7500    0.0000 O   0  0  0  0  0  0  0  0  0  0  0  0
   -1.0323    0.7500    0.0000 C   0  0  0  0  0  0  0  0  0  0  0  0
   -2.1470    1.7537    0.0000 C   0  0  0  0  0  0  0  0  0  0  0  0
   -3.5736    1.2902    0.0000 C   0  0  0  0  0  0  0  0  0  0  0  0
   -4.6883    2.2939    0.0000 C   0  0  0  0  0  0  0  0  0  0  0  0
   -3.8855   -0.1771    0.0000 C   0  0  0  0  0  0  0  0  0  0  0  0
   -5.3120   -0.6406    0.0000 O   0  0  0  0  0  0  0  0  0  0  0  0
  1  2  2  0
  2  3  1  0
  3  4  1  1
  4  5  1  0
  5  6  1  0
  6  7  1  0
  6  8  2  0
  3  9  1  0
  9 10  1  0
 10 11  1  6
 11 12  1  0
 12 13  2  0
 12 14  1  0
 14 15  2  0
 14 16  1  0
 16 17  1  0
 10 18  1  0
 18 19  1  1
 19 20  2  0
 19 21  1  0
 21 22  2  0
 21 23  1  0
 24 23  1  6
 24 25  1  0
 25 26  1  1
 26 27  2  0
 26 28  1  0
 28 29  2  0
 25  3  1  0
 24 18  1  0
M  END
>  <id>  (48) 
SANC00201_minRM1.pdb

>  <SMILES>  (48) 
C=C[C@]1(COC(C)=O)C[C@H](OC(=O)C(=C)CO)[C@H]2C(=C)C(=O)O[C@@H]2[C@H]1C(=C)C=O

>  <warheads>  (48) 
ab_unsat_carbonyl:3;exo_methylene_carbonyl:3

>  <n_warheads>  (48) 
6

>  <max_tier>  (48) 
1

>  <pains_flag>  (48) 


>  <MW>  (48) 
404.4

>  <cLogP>  (48) 
1.05

>  <HBD>  (48) 
1

>  <HBA>  (48) 
8

>  <TPSA>  (48) 
116.2

>  <ArRings>  (48) 
0

$$$$
SANC00202_minRM1.pdb
     RDKit          2D

 13 12  0  0  0  0  0  0  0  0999 V2000
   -5.2500   -1.2990    0.0000 C   0  0  0  0  0  0  0  0  0  0  0  0
   -4.5000   -2.5981    0.0000 C   0  0  0  0  0  0  0  0  0  0  0  0
   -5.2500   -3.8971    0.0000 C   0  0  0  0  0  0  0  0  0  0  0  0
   -3.0000   -2.5981    0.0000 C   0  0  0  0  0  0  0  0  0  0  0  0
   -2.2500   -3.8971    0.0000 Br  0  0  0  0  0  0  0  0  0  0  0  0
   -2.2500   -1.2990    0.0000 C   0  0  0  0  0  0  0  0  0  0  0  0
   -0.7500   -1.2990    0.0000 C   0  0  0  0  0  0  0  0  0  0  0  0
    0.0000   -2.5981    0.0000 Br  0  0  0  0  0  0  0  0  0  0  0  0
    0.0000    0.0000    0.0000 C   0  0  0  0  0  0  0  0  0  0  0  0
   -0.7500    1.2990    0.0000 C   0  0  0  0  0  0  0  0  0  0  0  0
    1.5000    0.0000    0.0000 C   0  0  0  0  0  0  0  0  0  0  0  0
    2.2500    1.2990    0.0000 C   0  0  0  0  0  0  0  0  0  0  0  0
    3.7500    1.2990    0.0000 O   0  0  0  0  0  0  0  0  0  0  0  0
  1  2  2  0
  2  3  1  0
  2  4  1  0
  4  5  1  6
  4  6  1  0
  6  7  1  0
  7  8  1  6
  7  9  1  0
  9 10  1  0
  9 11  2  0
 11 12  1  0
 12 13  2  0
M  END
>  <id>  (49) 
SANC00202_minRM1.pdb

>  <SMILES>  (49) 
C=C(C)[C@@H](Br)C[C@@H](Br)/C(C)=C/C=O

>  <warheads>  (49) 
ab_unsat_carbonyl:1

>  <n_warheads>  (49) 
1

>  <max_tier>  (49) 
1

>  <pains_flag>  (49) 


>  <MW>  (49) 
310.0

>  <cLogP>  (49) 
3.62

>  <HBD>  (49) 
0

>  <HBA>  (49) 
1

>  <TPSA>  (49) 
17.1

>  <ArRings>  (49) 
0

$$$$
SANC00203_minRM1.pdb
     RDKit          2D

 13 12  0  0  0  0  0  0  0  0999 V2000
   -0.7500    1.2990    0.0000 C   0  0  0  0  0  0  0  0  0  0  0  0
    0.0000    0.0000    0.0000 C   0  0  0  0  0  0  0  0  0  0  0  0
    1.5000    0.0000    0.0000 C   0  0  0  0  0  0  0  0  0  0  0  0
    2.2500    1.2990    0.0000 C   0  0  0  0  0  0  0  0  0  0  0  0
    3.7500    1.2990    0.0000 C   0  0  0  0  0  0  0  0  0  0  0  0
    4.5000    0.0000    0.0000 Cl  0  0  0  0  0  0  0  0  0  0  0  0
    4.5000    2.5981    0.0000 C   0  0  0  0  0  0  0  0  0  0  0  0
    3.7500    3.8971    0.0000 C   0  0  0  0  0  0  0  0  0  0  0  0
    6.0000    2.5981    0.0000 C   0  0  0  0  0  0  0  0  0  0  0  0
    6.7500    3.8971    0.0000 C   0  0  0  0  0  0  0  0  0  0  0  0
    8.2500    3.8971    0.0000 O   0  0  0  0  0  0  0  0  0  0  0  0
   -0.7500   -1.2990    0.0000 C   0  0  0  0  0  0  0  0  0  0  0  0
   -2.2500   -1.2990    0.0000 Cl  0  0  0  0  0  0  0  0  0  0  0  0
  1  2  1  0
  2  3  2  0
  3  4  1  0
  4  5  2  0
  5  6  1  0
  5  7  1  0
  7  8  1  0
  7  9  2  0
  9 10  1  0
 10 11  2  0
  2 12  1  0
 12 13  1  0
M  END
>  <id>  (50) 
SANC00203_minRM1.pdb

>  <SMILES>  (50) 
C\C(=C/C=C(Cl)/C(C)=C/C=O)CCl

>  <warheads>  (50) 
ab_unsat_carbonyl:1

>  <n_warheads>  (50) 
1

>  <max_tier>  (50) 
1

>  <pains_flag>  (50) 


>  <MW>  (50) 
219.1

>  <cLogP>  (50) 
3.44

>  <HBD>  (50) 
0

>  <HBA>  (50) 
1

>  <TPSA>  (50) 
17.1

>  <ArRings>  (50) 
0

$$$$
SANC00204_minRM1.pdb
     RDKit          2D

 14 13  0  0  0  0  0  0  0  0999 V2000
    0.0000   -2.5981    0.0000 C   0  0  0  0  0  0  0  0  0  0  0  0
   -0.7500   -1.2990    0.0000 C   0  0  0  0  0  0  0  0  0  0  0  0
    0.0000    0.0000    0.0000 C   0  0  0  0  0  0  0  0  0  0  0  0
    1.5000    0.0000    0.0000 C   0  0  0  0  0  0  0  0  0  0  0  0
    2.2500    1.2990    0.0000 C   0  0  0  0  0  0  0  0  0  0  0  0
    1.5000    2.5981    0.0000 Cl  0  0  0  0  0  0  0  0  0  0  0  0
    3.7500    1.2990    0.0000 C   0  0  0  0  0  0  0  0  0  0  0  0
    5.2500    1.2990    0.0000 C   0  0  0  0  0  0  0  0  0  0  0  0
    3.7500    2.7990    0.0000 Cl  0  0  0  0  0  0  0  0  0  0  0  0
    3.7500   -0.2010    0.0000 C   0  0  0  0  0  0  0  0  0  0  0  0
    5.0490   -0.9510    0.0000 Br  0  0  0  0  0  0  0  0  0  0  0  0
   -2.2500   -1.2990    0.0000 C   0  0  0  0  0  0  0  0  0  0  0  0
   -3.0000   -2.5981    0.0000 C   0  0  0  0  0  0  0  0  0  0  0  0
   -4.5000   -2.5981    0.0000 O   0  0  0  0  0  0  0  0  0  0  0  0
  1  2  1  0
  2  3  1  0
  3  4  2  0
  4  5  1  0
  5  6  1  1
  5  7  1  0
  7  8  1  6
  7  9  1  0
  7 10  1  0
 10 11  1  0
  2 12  2  0
 12 13  1  0
 13 14  2  0
M  END
>  <id>  (51) 
SANC00204_minRM1.pdb

>  <SMILES>  (51) 
CC(/C=C/[C@@H](Cl)[C@@](C)(Cl)CBr)=C\C=O

>  <warheads>  (51) 
ab_unsat_carbonyl:1

>  <n_warheads>  (51) 
1

>  <max_tier>  (51) 
1

>  <pains_flag>  (51) 


>  <MW>  (51) 
300.0

>  <cLogP>  (51) 
3.69

>  <HBD>  (51) 
0

>  <HBA>  (51) 
1

>  <TPSA>  (51) 
17.1

>  <ArRings>  (51) 
0

$$$$
SANC00205_minRM1.pdb
     RDKit          2D

 13 12  0  0  0  0  0  0  0  0999 V2000
   -0.7500    1.2990    0.0000 C   0  0  0  0  0  0  0  0  0  0  0  0
    0.0000    0.0000    0.0000 C   0  0  0  0  0  0  0  0  0  0  0  0
    1.5000    0.0000    0.0000 C   0  0  0  0  0  0  0  0  0  0  0  0
    2.2500    1.2990    0.0000 C   0  0  0  0  0  0  0  0  0  0  0  0
    3.7500    1.2990    0.0000 C   0  0  0  0  0  0  0  0  0  0  0  0
    4.5000   -0.0000    0.0000 Br  0  0  0  0  0  0  0  0  0  0  0  0
    4.5000    2.5981    0.0000 C   0  0  0  0  0  0  0  0  0  0  0  0
    3.7500    3.8971    0.0000 C   0  0  0  0  0  0  0  0  0  0  0  0
    6.0000    2.5981    0.0000 C   0  0  0  0  0  0  0  0  0  0  0  0
    6.7500    3.8971    0.0000 C   0  0  0  0  0  0  0  0  0  0  0  0
    8.2500    3.8971    0.0000 O   0  0  0  0  0  0  0  0  0  0  0  0
   -0.7500   -1.2990    0.0000 C   0  0  0  0  0  0  0  0  0  0  0  0
   -2.2500   -1.2990    0.0000 Cl  0  0  0  0  0  0  0  0  0  0  0  0
  1  2  1  0
  2  3  2  0
  3  4  1  0
  4  5  1  0
  5  6  1  6
  5  7  1  0
  7  8  1  0
  7  9  2  0
  9 10  1  0
 10 11  2  0
  2 12  1  0
 12 13  1  0
M  END
>  <id>  (52) 
SANC00205_minRM1.pdb

>  <SMILES>  (52) 
C/C(=C\C[C@@H](Br)/C(C)=C/C=O)CCl

>  <warheads>  (52) 
ab_unsat_carbonyl:1

>  <n_warheads>  (52) 
1

>  <max_tier>  (52) 
1

>  <pains_flag>  (52) 


>  <MW>  (52) 
265.6

>  <cLogP>  (52) 
3.47

>  <HBD>  (52) 
0

>  <HBA>  (52) 
1

>  <TPSA>  (52) 
17.1

>  <ArRings>  (52) 
0

$$$$
SANC00218_minRM1.pdb
     RDKit          2D

 37 44  0  0  0  0  0  0  0  0999 V2000
   -6.2137    5.8630    0.0000 C   0  0  0  0  0  0  0  0  0  0  0  0
   -5.9018    4.3958    0.0000 N   0  0  0  0  0  0  0  0  0  0  0  0
   -6.9055    3.2810    0.0000 C   0  0  0  0  0  0  0  0  0  0  0  0
   -6.1555    1.9820    0.0000 N   0  0  0  0  0  0  0  0  0  0  0  0
   -4.6883    2.2939    0.0000 C   0  0  0  0  0  0  0  0  0  0  0  0
   -3.5736    1.2902    0.0000 S   0  0  0  0  0  0  0  0  0  0  0  0
   -2.1470    1.7537    0.0000 C   0  0  0  0  0  0  0  0  0  0  0  0
   -1.8351    3.2209    0.0000 C   0  0  0  0  0  0  0  0  0  0  0  0
   -0.4086    3.6844    0.0000 C   0  0  0  0  0  0  0  0  0  0  0  0
   -0.0967    5.1517    0.0000 O   0  0  0  0  0  0  0  0  0  0  0  0
    0.7062    2.6807    0.0000 C   0  0  0  0  0  0  0  0  0  0  0  0
    0.3943    1.2135    0.0000 C   0  0  0  0  0  0  0  0  0  0  0  0
    1.2760    0.0000    0.0000 S   0  0  0  0  0  0  0  0  0  0  0  0
    0.3943   -1.2135    0.0000 C   0  0  0  0  0  0  0  0  0  0  0  0
   -1.0323   -0.7500    0.0000 C   0  0  0  0  0  0  0  0  0  0  0  0
   -1.0323    0.7500    0.0000 C   0  0  0  0  0  0  0  0  0  0  0  0
   -2.3463    0.0067    0.0000 C   0  0  0  0  0  0  0  0  0  0  0  0
   -3.7167    0.6168    0.0000 C   0  0  0  0  0  0  0  0  0  0  0  0
   -4.9302   -0.2649    0.0000 C   0  0  0  0  0  0  0  0  0  0  0  0
   -6.3974    0.0470    0.0000 C   0  0  0  0  0  0  0  0  0  0  0  0
   -7.1474   -1.2521    0.0000 C   0  0  0  0  0  0  0  0  0  0  0  0
   -6.1437   -2.3668    0.0000 N   0  0  0  0  0  0  0  0  0  0  0  0
   -4.7734   -1.7567    0.0000 C   0  0  0  0  0  0  0  0  0  0  0  0
   -3.4031   -2.3668    0.0000 C   0  0  0  0  0  0  0  0  0  0  0  0
   -3.2463   -3.8586    0.0000 O   0  0  0  0  0  0  0  0  0  0  0  0
   -2.1895   -1.4851    0.0000 C   0  0  0  0  0  0  0  0  0  0  0  0
   -0.8192   -2.0952    0.0000 N   0  0  0  0  0  0  0  0  0  0  0  0
   -5.7719    2.2134    0.0000 C   0  0  0  0  0  0  0  0  0  0  0  0
   -4.6016    3.1516    0.0000 C   0  0  0  0  0  0  0  0  0  0  0  0
   -3.2038    2.6072    0.0000 N   0  0  0  0  0  0  0  0  0  0  0  0
   -4.5315    3.7856    0.0000 C   0  0  0  0  0  0  0  0  0  0  0  0
   -3.2325    4.5356    0.0000 C   0  0  0  0  0  0  0  0  0  0  0  0
   -3.2325    6.0356    0.0000 C   0  0  0  0  0  0  0  0  0  0  0  0
   -4.5315    6.7856    0.0000 N   0  0  0  0  0  0  0  0  0  0  0  0
   -1.9334    6.7856    0.0000 C   0  0  0  0  0  0  0  0  0  0  0  0
   -0.6344    6.0356    0.0000 O   0  0  0  0  0  0  0  0  0  0  0  0
   -1.9334    8.2856    0.0000 O   0  0  0  0  0  0  0  0  0  0  0  0
  1  2  1  0
  2  3  1  0
  3  4  2  0
  4  5  1  0
  5  6  1  0
  7  6  1  1
  7  8  1  0
  8  9  1  0
  9 10  2  0
  9 11  1  0
 11 12  2  0
 12 13  1  0
 13 14  1  0
 14 15  1  0
 16 15  1  1
 16 17  1  0
 17 18  2  0
 18 19  1  0
 19 20  1  0
 20 21  2  0
 21 22  1  0
 22 23  1  0
 23 24  1  0
 24 25  2  0
 24 26  1  0
 26 27  1  0
 20 28  1  0
 28 29  1  0
 29 30  1  0
  5 31  2  0
 31 32  1  0
 32 33  1  0
 33 34  1  1
 33 35  1  0
 35 36  2  0
 35 37  1  0
 31  2  1  0
 16  7  1  0
 26 17  1  0
  8 30  1  6
 16 12  1  0
 30 18  1  0
 14 27  1  6
 23 19  2  0
M  END
>  <id>  (53) 
SANC00218_minRM1.pdb

>  <SMILES>  (53) 
Cn1cnc(S[C@H]2[C@H]3C(=O)C=C4S[C@H]5C[C@]42C2=C4c6c(c[nH]c6C(=O)C2N5)CCN43)c1C[C@@H](N)C(=O)O

>  <warheads>  (53) 
ab_unsat_carbonyl:1

>  <n_warheads>  (53) 
1

>  <max_tier>  (53) 
1

>  <pains_flag>  (53) 


>  <MW>  (53) 
536.6

>  <cLogP>  (53) 
0.9

>  <HBD>  (53) 
4

>  <HBA>  (53) 
9

>  <TPSA>  (53) 
146.3

>  <ArRings>  (53) 
2

$$$$
SANC00233_minRM1.pdb
     RDKit          2D

 31 33  0  0  0  0  0  0  0  0999 V2000
   -7.8850  -13.1258    0.0000 C   0  0  0  0  0  0  0  0  0  0  0  0
   -7.7282  -11.6340    0.0000 C   0  0  0  0  0  0  0  0  0  0  0  0
   -8.9417  -10.7524    0.0000 C   0  0  0  0  0  0  0  0  0  0  0  0
   -6.3579  -11.0239    0.0000 C   0  0  0  0  0  0  0  0  0  0  0  0
   -6.2011   -9.5322    0.0000 C   0  0  0  0  0  0  0  0  0  0  0  0
   -4.8308   -8.9221    0.0000 C   0  0  0  0  0  0  0  0  0  0  0  0
   -4.6740   -7.4303    0.0000 C   0  0  0  0  0  0  0  0  0  0  0  0
   -5.8875   -6.5486    0.0000 C   0  0  0  0  0  0  0  0  0  0  0  0
   -3.3037   -6.8202    0.0000 C   0  0  0  0  0  0  0  0  0  0  0  0
   -2.0046   -7.5702    0.0000 C   0  0  0  0  0  0  0  0  0  0  0  0
   -0.8899   -6.5665    0.0000 C   0  0  0  0  0  0  0  0  0  0  0  0
   -1.5000   -5.1962    0.0000 C   0  0  0  0  0  0  0  0  0  0  0  0
   -0.7500   -3.8971    0.0000 C   0  0  0  0  0  0  0  0  0  0  0  0
    0.7500   -3.8971    0.0000 C   0  0  0  0  0  0  0  0  0  0  0  0
    1.5000   -2.5981    0.0000 C   0  0  0  0  0  0  0  0  0  0  0  0
    3.0000   -2.5981    0.0000 O   0  0  0  0  0  0  0  0  0  0  0  0
    0.7500   -1.2990    0.0000 C   0  0  0  0  0  0  0  0  0  0  0  0
    1.5000    0.0000    0.0000 C   0  0  0  0  0  0  0  0  0  0  0  0
    0.7500    1.2990    0.0000 C   0  0  0  0  0  0  0  0  0  0  0  0
    1.5000    2.5981    0.0000 O   0  0  0  0  0  0  0  0  0  0  0  0
   -0.7500    1.2990    0.0000 C   0  0  0  0  0  0  0  0  0  0  0  0
   -1.5000    0.0000    0.0000 C   0  0  0  0  0  0  0  0  0  0  0  0
   -0.7500   -1.2990    0.0000 C   0  0  0  0  0  0  0  0  0  0  0  0
   -2.2500   -1.2990    0.0000 C   0  0  0  0  0  0  0  0  0  0  0  0
   -1.5000   -2.5981    0.0000 C   0  0  0  0  0  0  0  0  0  0  0  0
   -3.0000   -2.5981    0.0000 O   0  0  0  0  0  0  0  0  0  0  0  0
   -2.9918   -5.3529    0.0000 C   0  0  0  0  0  0  0  0  0  0  0  0
   -4.4836   -5.1962    0.0000 C   0  0  0  0  0  0  0  0  0  0  0  0
   -2.9918   -3.8529    0.0000 C   0  0  0  0  0  0  0  0  0  0  0  0
   -4.2908   -3.1029    0.0000 C   0  0  0  0  0  0  0  0  0  0  0  0
   -4.2908   -1.6029    0.0000 O   0  0  0  0  0  0  0  0  0  0  0  0
  1  2  1  0
  2  3  1  0
  2  4  1  0
  4  5  1  0
  5  6  1  0
  6  7  1  0
  7  8  1  1
  7  9  1  0
  9 10  1  6
 10 11  1  0
 11 12  1  0
 12 13  1  6
 13 14  2  0
 14 15  1  0
 15 16  2  0
 15 17  1  0
 17 18  2  0
 18 19  1  0
 19 20  1  1
 19 21  1  0
 21 22  1  0
 22 23  1  0
 23 24  1  6
 23 25  1  0
 25 26  2  0
 12 27  1  0
 27 28  1  6
 27 29  1  0
 29 30  1  0
 30 31  1  0
 27  9  1  0
 25 13  1  0
 23 17  1  0
M  END
>  <id>  (54) 
SANC00233_minRM1.pdb

>  <SMILES>  (54) 
CC(C)CCC[C@@H](C)[C@H]1CC[C@@H](C2=CC(=O)C3=C[C@H](O)CC[C@]3(C)C2=O)[C@]1(C)CCO

>  <warheads>  (54) 
ab_unsat_carbonyl:3

>  <n_warheads>  (54) 
3

>  <max_tier>  (54) 
1

>  <pains_flag>  (54) 


>  <MW>  (54) 
430.6

>  <cLogP>  (54) 
5.03

>  <HBD>  (54) 
2

>  <HBA>  (54) 
4

>  <TPSA>  (54) 
74.6

>  <ArRings>  (54) 
0

$$$$
SANC00235_minRM1.pdb
     RDKit          2D

 36 39  0  0  0  0  0  0  0  0999 V2000
    5.4649    0.3501    0.0000 C   0  0  0  0  0  0  0  0  0  0  0  0
    6.4852    1.4497    0.0000 C   0  0  0  0  0  0  0  0  0  0  0  0
    6.0430    2.8830    0.0000 C   0  0  0  0  0  0  0  0  0  0  0  0
    4.5807    3.2168    0.0000 C   0  0  0  0  0  0  0  0  0  0  0  0
    3.5604    2.1172    0.0000 C   0  0  0  0  0  0  0  0  0  0  0  0
    2.0980    2.4510    0.0000 C   0  0  0  0  0  0  0  0  0  0  0  0
    1.0777    1.3515    0.0000 C   0  0  0  0  0  0  0  0  0  0  0  0
    2.5610    1.1279    0.0000 C   0  0  0  0  0  0  0  0  0  0  0  0
    1.7286    0.0000    0.0000 C   0  0  0  0  0  0  0  0  0  0  0  0
    1.0777   -1.3515    0.0000 C   0  0  0  0  0  0  0  0  0  0  0  0
   -0.3846   -1.6852    0.0000 C   0  0  0  0  0  0  0  0  0  0  0  0
   -0.7184   -3.1476    0.0000 O   0  0  0  0  0  0  0  0  0  0  0  0
   -1.5574   -0.7500    0.0000 C   0  0  0  0  0  0  0  0  0  0  0  0
   -2.2082   -2.1015    0.0000 C   0  0  0  0  0  0  0  0  0  0  0  0
   -3.0198   -0.4162    0.0000 C   0  0  0  0  0  0  0  0  0  0  0  0
   -1.5574    0.7500    0.0000 O   0  0  0  0  0  0  0  0  0  0  0  0
   -0.3846    1.6852    0.0000 C   0  0  0  0  0  0  0  0  0  0  0  0
   -0.8268    3.1186    0.0000 C   0  0  0  0  0  0  0  0  0  0  0  0
    0.1935    4.2182    0.0000 C   0  0  0  0  0  0  0  0  0  0  0  0
    1.6559    3.8844    0.0000 C   0  0  0  0  0  0  0  0  0  0  0  0
    3.1442    4.0709    0.0000 C   0  0  0  0  0  0  0  0  0  0  0  0
    1.7306    5.3825    0.0000 O   0  0  0  0  0  0  0  0  0  0  0  0
    7.0633    3.9826    0.0000 C   0  0  0  0  0  0  0  0  0  0  0  0
    5.6009    4.3164    0.0000 C   0  0  0  0  0  0  0  0  0  0  0  0
    6.6212    5.4160    0.0000 C   0  0  0  0  0  0  0  0  0  0  0  0
    7.6414    6.5156    0.0000 C   0  0  0  0  0  0  0  0  0  0  0  0
    9.1038    6.1818    0.0000 C   0  0  0  0  0  0  0  0  0  0  0  0
   10.1241    7.2814    0.0000 O   0  0  0  0  0  0  0  0  0  0  0  0
    9.5460    4.7484    0.0000 C   0  0  0  0  0  0  0  0  0  0  0  0
   10.4517    3.5527    0.0000 C   0  0  0  0  0  0  0  0  0  0  0  0
   10.8808    5.4327    0.0000 C   0  0  0  0  0  0  0  0  0  0  0  0
    8.5257    3.6488    0.0000 C   0  0  0  0  0  0  0  0  0  0  0  0
    8.9678    2.2155    0.0000 C   0  0  0  0  0  0  0  0  0  0  0  0
   10.4302    1.8817    0.0000 O   0  0  0  0  0  0  0  0  0  0  0  0
    7.9476    1.1159    0.0000 C   0  0  0  0  0  0  0  0  0  0  0  0
    8.3897   -0.3175    0.0000 O   0  0  0  0  0  0  0  0  0  0  0  0
  1  2  1  0
  2  3  2  0
  3  4  1  0
  4  5  1  0
  6  5  1  1
  6  7  1  0
  7  8  1  1
  7  9  1  0
  9 10  1  0
 10 11  1  0
 11 12  2  0
 11 13  1  0
 13 14  1  0
 13 15  1  0
 13 16  1  0
 16 17  1  0
 17 18  1  1
 18 19  1  0
 19 20  1  0
 20 21  1  1
 20 22  1  0
  3 23  1  0
 23 24  1  6
 23 25  1  0
 25 26  1  0
 26 27  1  0
 27 28  2  0
 27 29  1  0
 29 30  1  0
 29 31  1  0
 29 32  1  0
 32 33  2  0
 33 34  1  0
 33 35  1  0
 35 36  2  0
 35  2  1  0
 20  6  1  0
 32 23  1  0
 17  7  1  0
M  END
>  <id>  (55) 
SANC00235_minRM1.pdb

>  <SMILES>  (55) 
CC1=C(CC[C@H]2[C@]3(C)CCC(=O)C(C)(C)O[C@H]3CC[C@]2(C)O)[C@@]2(C)CCC(=O)C(C)(C)C2=C(O)C1=O

>  <warheads>  (55) 
ab_unsat_carbonyl:2

>  <n_warheads>  (55) 
2

>  <max_tier>  (55) 
1

>  <pains_flag>  (55) 


>  <MW>  (55) 
500.7

>  <cLogP>  (55) 
5.57

>  <HBD>  (55) 
2

>  <HBA>  (55) 
6

>  <TPSA>  (55) 
100.9

>  <ArRings>  (55) 
0

$$$$
SANC00238_minRM1.pdb
     RDKit          2D

 14 16  0  0  0  0  0  0  0  0999 V2000
    1.5000   -5.1962    0.0000 O   0  0  0  0  0  0  0  0  0  0  0  0
    0.7500   -3.8971    0.0000 C   0  0  0  0  0  0  0  0  0  0  0  0
    1.5000   -2.5981    0.0000 C   0  0  0  0  0  0  0  0  0  0  0  0
    0.7500   -1.2990    0.0000 C   0  0  0  0  0  0  0  0  0  0  0  0
    1.5000    0.0000    0.0000 N   0  0  0  0  0  0  0  0  0  0  0  0
    0.7500    1.2990    0.0000 C   0  0  0  0  0  0  0  0  0  0  0  0
   -0.7500    1.2990    0.0000 C   0  0  0  0  0  0  0  0  0  0  0  0
   -1.5000    0.0000    0.0000 C   0  0  0  0  0  0  0  0  0  0  0  0
   -2.9266   -0.4635    0.0000 C   0  0  0  0  0  0  0  0  0  0  0  0
   -2.9266   -1.9635    0.0000 N   0  0  0  0  0  0  0  0  0  0  0  0
   -1.5000   -2.5981    0.0000 C   0  0  0  0  0  0  0  0  0  0  0  0
   -0.7500   -1.2990    0.0000 C   0  0  0  0  0  0  0  0  0  0  0  0
   -0.7500   -3.8971    0.0000 C   0  0  0  0  0  0  0  0  0  0  0  0
   -1.5000   -5.1962    0.0000 O   0  0  0  0  0  0  0  0  0  0  0  0
  1  2  2  0
  2  3  1  0
  3  4  2  0
  4  5  1  0
  5  6  1  0
  6  7  1  0
  7  8  1  0
  8  9  2  0
  9 10  1  0
 10 11  1  0
 11 12  2  0
 11 13  1  0
 13 14  2  0
 13  2  1  0
 12  4  1  0
 12  8  1  0
M  END
>  <id>  (56) 
SANC00238_minRM1.pdb

>  <SMILES>  (56) 
O=C1C=C2NCCc3c[nH]c(c32)C1=O

>  <warheads>  (56) 
ab_unsat_carbonyl:1

>  <n_warheads>  (56) 
1

>  <max_tier>  (56) 
1

>  <pains_flag>  (56) 
imine_one_A(321)

>  <MW>  (56) 
188.2

>  <cLogP>  (56) 
0.27

>  <HBD>  (56) 
2

>  <HBA>  (56) 
3

>  <TPSA>  (56) 
62.0

>  <ArRings>  (56) 
1

$$$$
SANC00239_minRM1.pdb
     RDKit          2D

 14 16  0  0  0  0  0  0  0  0999 V2000
    1.5000   -5.1962    0.0000 N   0  0  0  0  0  0  0  0  0  0  0  0
    0.7500   -3.8971    0.0000 C   0  0  0  0  0  0  0  0  0  0  0  0
    1.5000   -2.5981    0.0000 C   0  0  0  0  0  0  0  0  0  0  0  0
    0.7500   -1.2990    0.0000 C   0  0  0  0  0  0  0  0  0  0  0  0
    1.5000    0.0000    0.0000 N   0  0  0  0  0  0  0  0  0  0  0  0
    0.7500    1.2990    0.0000 C   0  0  0  0  0  0  0  0  0  0  0  0
   -0.7500    1.2990    0.0000 C   0  0  0  0  0  0  0  0  0  0  0  0
   -1.5000    0.0000    0.0000 C   0  0  0  0  0  0  0  0  0  0  0  0
   -2.9266   -0.4635    0.0000 C   0  0  0  0  0  0  0  0  0  0  0  0
   -2.9266   -1.9635    0.0000 N   0  0  0  0  0  0  0  0  0  0  0  0
   -1.5000   -2.5981    0.0000 C   0  0  0  0  0  0  0  0  0  0  0  0
   -0.7500   -1.2990    0.0000 C   0  0  0  0  0  0  0  0  0  0  0  0
   -0.7500   -3.8971    0.0000 C   0  0  0  0  0  0  0  0  0  0  0  0
   -1.5000   -5.1962    0.0000 O   0  0  0  0  0  0  0  0  0  0  0  0
  1  2  1  0
  2  3  2  0
  3  4  1  0
  4  5  2  0
  5  6  1  0
  6  7  1  0
  7  8  1  0
  8  9  2  0
  9 10  1  0
 10 11  1  0
 11 12  2  0
 11 13  1  0
 13 14  2  0
 13  2  1  0
 12  4  1  0
 12  8  1  0
M  END
>  <id>  (57) 
SANC00239_minRM1.pdb

>  <SMILES>  (57) 
NC1=CC2=NCCc3c[nH]c(c32)C1=O

>  <warheads>  (57) 
ab_unsat_carbonyl:1

>  <n_warheads>  (57) 
1

>  <max_tier>  (57) 
1

>  <pains_flag>  (57) 
quinone_A(370)

>  <MW>  (57) 
187.2

>  <cLogP>  (57) 
0.4

>  <HBD>  (57) 
2

>  <HBA>  (57) 
3

>  <TPSA>  (57) 
71.2

>  <ArRings>  (57) 
1

$$$$
SANC00241_minRM1.pdb
     RDKit          2D

 22 24  0  0  0  0  0  0  0  0999 V2000
    8.2500   -3.8971    0.0000 C   0  0  0  0  0  0  0  0  0  0  0  0
    7.5000   -2.5981    0.0000 O   0  0  0  0  0  0  0  0  0  0  0  0
    6.0000   -2.5981    0.0000 C   0  0  0  0  0  0  0  0  0  0  0  0
    5.2500   -3.8971    0.0000 C   0  0  0  0  0  0  0  0  0  0  0  0
    3.7500   -3.8971    0.0000 C   0  0  0  0  0  0  0  0  0  0  0  0
    3.0000   -2.5981    0.0000 C   0  0  0  0  0  0  0  0  0  0  0  0
    1.5000   -2.5981    0.0000 C   0  0  0  0  0  0  0  0  0  0  0  0
    0.7500   -1.2990    0.0000 C   0  0  0  0  0  0  0  0  0  0  0  0
    1.5000    0.0000    0.0000 C   0  0  0  0  0  0  0  0  0  0  0  0
    0.7500    1.2990    0.0000 O   0  0  0  0  0  0  0  0  0  0  0  0
   -0.7500    1.2990    0.0000 C   0  0  0  0  0  0  0  0  0  0  0  0
   -1.5000    2.5981    0.0000 C   0  0  0  0  0  0  0  0  0  0  0  0
   -3.0000    2.5981    0.0000 C   0  0  0  0  0  0  0  0  0  0  0  0
   -3.7500    3.8971    0.0000 O   0  0  0  0  0  0  0  0  0  0  0  0
   -3.7500    1.2990    0.0000 C   0  0  0  0  0  0  0  0  0  0  0  0
   -3.0000    0.0000    0.0000 C   0  0  0  0  0  0  0  0  0  0  0  0
   -3.7500   -1.2990    0.0000 O   0  0  0  0  0  0  0  0  0  0  0  0
   -1.5000    0.0000    0.0000 C   0  0  0  0  0  0  0  0  0  0  0  0
   -0.7500   -1.2990    0.0000 C   0  0  0  0  0  0  0  0  0  0  0  0
   -1.5000   -2.5981    0.0000 O   0  0  0  0  0  0  0  0  0  0  0  0
    3.7500   -1.2990    0.0000 C   0  0  0  0  0  0  0  0  0  0  0  0
    5.2500   -1.2990    0.0000 C   0  0  0  0  0  0  0  0  0  0  0  0
  1  2  1  0
  2  3  1  0
  3  4  2  0
  4  5  1  0
  5  6  2  0
  6  7  1  0
  7  8  2  0
  8  9  1  0
  9 10  1  0
 10 11  1  0
 11 12  2  0
 12 13  1  0
 13 14  1  0
 13 15  2  0
 15 16  1  0
 16 17  1  0
 16 18  2  0
 18 19  1  0
 19 20  2  0
  6 21  1  0
 21 22  2  0
 22  3  1  0
 19  8  1  0
 18 11  1  0
M  END
>  <id>  (58) 
SANC00241_minRM1.pdb

>  <SMILES>  (58) 
COc1ccc(/C=C2\COc3cc(O)cc(O)c3C2=O)cc1

>  <warheads>  (58) 
ab_unsat_carbonyl:1

>  <n_warheads>  (58) 
1

>  <max_tier>  (58) 
1

>  <pains_flag>  (58) 


>  <MW>  (58) 
298.3

>  <cLogP>  (58) 
2.77

>  <HBD>  (58) 
2

>  <HBA>  (58) 
5

>  <TPSA>  (58) 
76.0

>  <ArRings>  (58) 
2

$$$$
SANC00243_minRM1.pdb
     RDKit          2D

 24 26  0  0  0  0  0  0  0  0999 V2000
    8.2500   -3.8971    0.0000 C   0  0  0  0  0  0  0  0  0  0  0  0
    7.5000   -2.5981    0.0000 O   0  0  0  0  0  0  0  0  0  0  0  0
    6.0000   -2.5981    0.0000 C   0  0  0  0  0  0  0  0  0  0  0  0
    5.2500   -3.8971    0.0000 C   0  0  0  0  0  0  0  0  0  0  0  0
    3.7500   -3.8971    0.0000 C   0  0  0  0  0  0  0  0  0  0  0  0
    3.0000   -2.5981    0.0000 C   0  0  0  0  0  0  0  0  0  0  0  0
    1.5000   -2.5981    0.0000 C   0  0  0  0  0  0  0  0  0  0  0  0
    0.7500   -1.2990    0.0000 C   0  0  0  0  0  0  0  0  0  0  0  0
    1.5000    0.0000    0.0000 C   0  0  0  0  0  0  0  0  0  0  0  0
    0.7500    1.2990    0.0000 O   0  0  0  0  0  0  0  0  0  0  0  0
   -0.7500    1.2990    0.0000 C   0  0  0  0  0  0  0  0  0  0  0  0
   -1.5000    2.5981    0.0000 C   0  0  0  0  0  0  0  0  0  0  0  0
   -0.7500    3.8971    0.0000 O   0  0  0  0  0  0  0  0  0  0  0  0
    0.7500    3.8971    0.0000 C   0  0  0  0  0  0  0  0  0  0  0  0
   -3.0000    2.5981    0.0000 C   0  0  0  0  0  0  0  0  0  0  0  0
   -3.7500    3.8971    0.0000 O   0  0  0  0  0  0  0  0  0  0  0  0
   -3.7500    1.2990    0.0000 C   0  0  0  0  0  0  0  0  0  0  0  0
   -3.0000    0.0000    0.0000 C   0  0  0  0  0  0  0  0  0  0  0  0
   -3.7500   -1.2990    0.0000 O   0  0  0  0  0  0  0  0  0  0  0  0
   -1.5000    0.0000    0.0000 C   0  0  0  0  0  0  0  0  0  0  0  0
   -0.7500   -1.2990    0.0000 C   0  0  0  0  0  0  0  0  0  0  0  0
   -1.5000   -2.5981    0.0000 O   0  0  0  0  0  0  0  0  0  0  0  0
    3.7500   -1.2990    0.0000 C   0  0  0  0  0  0  0  0  0  0  0  0
    5.2500   -1.2990    0.0000 C   0  0  0  0  0  0  0  0  0  0  0  0
  1  2  1  0
  2  3  1  0
  3  4  2  0
  4  5  1  0
  5  6  2  0
  6  7  1  0
  7  8  2  0
  8  9  1  0
  9 10  1  0
 10 11  1  0
 11 12  2  0
 12 13  1  0
 13 14  1  0
 12 15  1  0
 15 16  1  0
 15 17  2  0
 17 18  1  0
 18 19  1  0
 18 20  2  0
 20 21  1  0
 21 22  2  0
  6 23  1  0
 23 24  2  0
 24  3  1  0
 21  8  1  0
 20 11  1  0
M  END
>  <id>  (59) 
SANC00243_minRM1.pdb

>  <SMILES>  (59) 
COc1ccc(/C=C2\COc3c(OC)c(O)cc(O)c3C2=O)cc1

>  <warheads>  (59) 
ab_unsat_carbonyl:1

>  <n_warheads>  (59) 
1

>  <max_tier>  (59) 
1

>  <pains_flag>  (59) 


>  <MW>  (59) 
328.3

>  <cLogP>  (59) 
2.77

>  <HBD>  (59) 
2

>  <HBA>  (59) 
6

>  <TPSA>  (59) 
85.2

>  <ArRings>  (59) 
2

$$$$
SANC00244_minRM1.pdb
     RDKit          2D

 23 25  0  0  0  0  0  0  0  0999 V2000
    0.7500   -6.4952    0.0000 C   0  0  0  0  0  0  0  0  0  0  0  0
    1.5000   -5.1962    0.0000 O   0  0  0  0  0  0  0  0  0  0  0  0
    0.7500   -3.8971    0.0000 C   0  0  0  0  0  0  0  0  0  0  0  0
   -0.7500   -3.8971    0.0000 C   0  0  0  0  0  0  0  0  0  0  0  0
   -1.5000   -5.1962    0.0000 O   0  0  0  0  0  0  0  0  0  0  0  0
   -1.5000   -2.5981    0.0000 C   0  0  0  0  0  0  0  0  0  0  0  0
   -0.7500   -1.2990    0.0000 C   0  0  0  0  0  0  0  0  0  0  0  0
    0.7500   -1.2990    0.0000 C   0  0  0  0  0  0  0  0  0  0  0  0
    1.5000   -2.5981    0.0000 C   0  0  0  0  0  0  0  0  0  0  0  0
    3.0000   -2.5981    0.0000 O   0  0  0  0  0  0  0  0  0  0  0  0
    1.5000    0.0000    0.0000 C   0  0  0  0  0  0  0  0  0  0  0  0
    3.0000    0.0000    0.0000 O   0  0  0  0  0  0  0  0  0  0  0  0
    0.7500    1.2990    0.0000 C   0  0  0  0  0  0  0  0  0  0  0  0
    1.5000    2.5981    0.0000 C   0  0  0  0  0  0  0  0  0  0  0  0
    0.7500    3.8971    0.0000 C   0  0  0  0  0  0  0  0  0  0  0  0
    1.5000    5.1962    0.0000 C   0  0  0  0  0  0  0  0  0  0  0  0
    0.7500    6.4952    0.0000 C   0  0  0  0  0  0  0  0  0  0  0  0
   -0.7500    6.4952    0.0000 C   0  0  0  0  0  0  0  0  0  0  0  0
   -1.5000    7.7942    0.0000 O   0  0  0  0  0  0  0  0  0  0  0  0
   -1.5000    5.1962    0.0000 C   0  0  0  0  0  0  0  0  0  0  0  0
   -0.7500    3.8971    0.0000 C   0  0  0  0  0  0  0  0  0  0  0  0
   -0.7500    1.2990    0.0000 C   0  0  0  0  0  0  0  0  0  0  0  0
   -1.5000    0.0000    0.0000 O   0  0  0  0  0  0  0  0  0  0  0  0
  1  2  1  0
  2  3  1  0
  3  4  2  0
  4  5  1  0
  4  6  1  0
  6  7  2  0
  7  8  1  0
  8  9  2  0
  9 10  1  0
  8 11  1  0
 11 12  2  0
 11 13  1  0
 13 14  2  0
 14 15  1  0
 15 16  2  0
 16 17  1  0
 17 18  2  0
 18 19  1  0
 18 20  1  0
 20 21  2  0
 13 22  1  0
 22 23  1  0
  9  3  1  0
 21 15  1  0
 23  7  1  0
M  END
>  <id>  (60) 
SANC00244_minRM1.pdb

>  <SMILES>  (60) 
COc1c(O)cc2c(c1O)C(=O)/C(=C/c1ccc(O)cc1)CO2

>  <warheads>  (60) 
ab_unsat_carbonyl:1

>  <n_warheads>  (60) 
1

>  <max_tier>  (60) 
1

>  <pains_flag>  (60) 


>  <MW>  (60) 
314.3

>  <cLogP>  (60) 
2.47

>  <HBD>  (60) 
3

>  <HBA>  (60) 
6

>  <TPSA>  (60) 
96.2

>  <ArRings>  (60) 
2

$$$$
SANC00246_minRM1.pdb
     RDKit          2D

 48 50  0  0  0  0  0  0  0  0999 V2000
   28.0670   11.1423    0.0000 C   0  0  0  0  0  0  0  0  0  0  0  0
   26.5670   11.1423    0.0000 C   0  0  0  0  0  0  0  0  0  0  0  0
   25.8170    9.8433    0.0000 O   0  0  0  0  0  0  0  0  0  0  0  0
   25.8170   12.4413    0.0000 O   0  0  0  0  0  0  0  0  0  0  0  0
   24.3170   12.4413    0.0000 C   0  0  0  0  0  0  0  0  0  0  0  0
   23.5670   11.1423    0.0000 C   0  0  0  0  0  0  0  0  0  0  0  0
   22.0670   11.1423    0.0000 C   0  0  0  0  0  0  0  0  0  0  0  0
   22.3275    9.6651    0.0000 C   0  0  0  0  0  0  0  0  0  0  0  0
   20.6574   10.6293    0.0000 C   0  0  0  0  0  0  0  0  0  0  0  0
   21.3170   12.4413    0.0000 C   0  0  0  0  0  0  0  0  0  0  0  0
   19.8170   12.4413    0.0000 C   0  0  0  0  0  0  0  0  0  0  0  0
   18.3170   12.4413    0.0000 C   0  0  0  0  0  0  0  0  0  0  0  0
   17.5670   11.1423    0.0000 C   0  0  0  0  0  0  0  0  0  0  0  0
   18.3170    9.8433    0.0000 C   0  0  0  0  0  0  0  0  0  0  0  0
   16.0670   11.1423    0.0000 C   0  0  0  0  0  0  0  0  0  0  0  0
   15.3170    9.8433    0.0000 C   0  0  0  0  0  0  0  0  0  0  0  0
   13.8170    9.8433    0.0000 C   0  0  0  0  0  0  0  0  0  0  0  0
   13.0670    8.5442    0.0000 C   0  0  0  0  0  0  0  0  0  0  0  0
   13.8170    7.2452    0.0000 C   0  0  0  0  0  0  0  0  0  0  0  0
   11.5670    8.5442    0.0000 C   0  0  0  0  0  0  0  0  0  0  0  0
   10.8170    7.2452    0.0000 C   0  0  0  0  0  0  0  0  0  0  0  0
    9.3170    7.2452    0.0000 C   0  0  0  0  0  0  0  0  0  0  0  0
    8.5670    5.9462    0.0000 C   0  0  0  0  0  0  0  0  0  0  0  0
    7.0670    5.9462    0.0000 C   0  0  0  0  0  0  0  0  0  0  0  0
    6.3170    7.2452    0.0000 C   0  0  0  0  0  0  0  0  0  0  0  0
    6.3170    4.6471    0.0000 C   0  0  0  0  0  0  0  0  0  0  0  0
    4.8170    4.6471    0.0000 C   0  0  0  0  0  0  0  0  0  0  0  0
    4.0670    3.3481    0.0000 C   0  0  0  0  0  0  0  0  0  0  0  0
    2.5670    3.3481    0.0000 C   0  0  0  0  0  0  0  0  0  0  0  0
    1.8170    4.6471    0.0000 C   0  0  0  0  0  0  0  0  0  0  0  0
    1.8170    2.0490    0.0000 C   0  0  0  0  0  0  0  0  0  0  0  0
    2.5670    0.7500    0.0000 O   0  0  0  0  0  0  0  0  0  0  0  0
    0.3170    2.0490    0.0000 C   0  0  0  0  0  0  0  0  0  0  0  0
   -0.4330    0.7500    0.0000 C   0  0  0  0  0  0  0  0  0  0  0  0
    0.8660    0.0000    0.0000 O   0  0  0  0  0  0  0  0  0  0  0  0
   -0.4330   -0.7500    0.0000 C   0  0  0  0  0  0  0  0  0  0  0  0
   -1.1830    0.5490    0.0000 C   0  0  0  0  0  0  0  0  0  0  0  0
   -1.7321   -1.5000    0.0000 C   0  0  0  0  0  0  0  0  0  0  0  0
   -3.0311   -0.7500    0.0000 C   0  0  0  0  0  0  0  0  0  0  0  0
   -4.3301   -1.5000    0.0000 O   0  0  0  0  0  0  0  0  0  0  0  0
   -3.0311    0.7500    0.0000 C   0  0  0  0  0  0  0  0  0  0  0  0
   -1.7321    1.5000    0.0000 C   0  0  0  0  0  0  0  0  0  0  0  0
   -0.7679    2.6491    0.0000 C   0  0  0  0  0  0  0  0  0  0  0  0
   -2.6962    2.6491    0.0000 C   0  0  0  0  0  0  0  0  0  0  0  0
   22.0670   13.7404    0.0000 C   0  0  0  0  0  0  0  0  0  0  0  0
   20.6574   14.2534    0.0000 C   0  0  0  0  0  0  0  0  0  0  0  0
   22.3275   15.2176    0.0000 O   0  0  0  0  0  0  0  0  0  0  0  0
   23.5670   13.7404    0.0000 C   0  0  0  0  0  0  0  0  0  0  0  0
  1  2  1  0
  2  3  2  0
  2  4  1  0
  5  4  1  1
  5  6  1  0
  6  7  1  0
  7  8  1  0
  7  9  1  0
  7 10  1  0
 10 11  2  0
 11 12  2  0
 12 13  1  0
 13 14  1  0
 13 15  2  0
 15 16  1  0
 16 17  2  0
 17 18  1  0
 18 19  1  0
 18 20  2  0
 20 21  1  0
 21 22  2  0
 22 23  1  0
 23 24  2  0
 24 25  1  0
 24 26  1  0
 26 27  2  0
 27 28  1  0
 28 29  2  0
 29 30  1  0
 29 31  1  0
 31 32  2  0
 31 33  1  0
 34 33  1  1
 34 35  1  0
 35 36  1  0
 36 37  1  1
 36 38  1  0
 38 39  1  0
 39 40  1  1
 39 41  1  0
 41 42  1  0
 42 43  1  0
 42 44  1  0
 10 45  1  0
 45 46  1  1
 45 47  1  0
 45 48  1  0
 48  5  1  0
 36 34  1  0
 42 34  1  0
M  END
>  <id>  (61) 
SANC00246_minRM1.pdb

>  <SMILES>  (61) 
CC(=O)O[C@H]1CC(C)(C)C(=C=C/C(C)=C/C=C/C(C)=C/C=C/C=C(C)/C=C/C=C(\C)C(=O)C[C@@]23O[C@]2(C)C[C@@H](O)CC3(C)C)[C@](C)(O)C1

>  <warheads>  (61) 
ab_unsat_carbonyl:1

>  <n_warheads>  (61) 
1

>  <max_tier>  (61) 
1

>  <pains_flag>  (61) 


>  <MW>  (61) 
658.9

>  <cLogP>  (61) 
8.69

>  <HBD>  (61) 
2

>  <HBA>  (61) 
6

>  <TPSA>  (61) 
96.4

>  <ArRings>  (61) 
0

$$$$
SANC00247_minRM1.pdb
     RDKit          2D

 31 31  0  0  0  0  0  0  0  0999 V2000
    6.0000  -18.1865    0.0000 C   0  0  0  0  0  0  0  0  0  0  0  0
    5.2500  -16.8875    0.0000 C   0  0  0  0  0  0  0  0  0  0  0  0
    3.7500  -16.8875    0.0000 C   0  0  0  0  0  0  0  0  0  0  0  0
    6.0000  -15.5885    0.0000 C   0  0  0  0  0  0  0  0  0  0  0  0
    5.2500  -14.2894    0.0000 C   0  0  0  0  0  0  0  0  0  0  0  0
    6.0000  -12.9904    0.0000 C   0  0  0  0  0  0  0  0  0  0  0  0
    5.2500  -11.6913    0.0000 C   0  0  0  0  0  0  0  0  0  0  0  0
    6.0000  -10.3923    0.0000 C   0  0  0  0  0  0  0  0  0  0  0  0
    5.2500   -9.0933    0.0000 C   0  0  0  0  0  0  0  0  0  0  0  0
    6.0000   -7.7942    0.0000 C   0  0  0  0  0  0  0  0  0  0  0  0
    5.2500   -6.4952    0.0000 C   0  0  0  0  0  0  0  0  0  0  0  0
    3.7500   -6.4952    0.0000 C   0  0  0  0  0  0  0  0  0  0  0  0
    6.0000   -5.1962    0.0000 C   0  0  0  0  0  0  0  0  0  0  0  0
    5.2500   -3.8971    0.0000 C   0  0  0  0  0  0  0  0  0  0  0  0
    6.0000   -2.5981    0.0000 C   0  0  0  0  0  0  0  0  0  0  0  0
    5.2500   -1.2990    0.0000 C   0  0  0  0  0  0  0  0  0  0  0  0
    6.0000    0.0000    0.0000 C   0  0  0  0  0  0  0  0  0  0  0  0
    3.7500   -1.2990    0.0000 C   0  0  0  0  0  0  0  0  0  0  0  0
    3.0000    0.0000    0.0000 C   0  0  0  0  0  0  0  0  0  0  0  0
    1.5000    0.0000    0.0000 C   0  0  0  0  0  0  0  0  0  0  0  0
    0.7500   -1.2990    0.0000 C   0  0  0  0  0  0  0  0  0  0  0  0
   -0.7500   -1.2990    0.0000 C   0  0  0  0  0  0  0  0  0  0  0  0
   -1.5000   -2.5981    0.0000 O   0  0  0  0  0  0  0  0  0  0  0  0
   -1.5000    0.0000    0.0000 C   0  0  0  0  0  0  0  0  0  0  0  0
   -0.7500    1.2990    0.0000 C   0  0  0  0  0  0  0  0  0  0  0  0
   -1.5000    2.5981    0.0000 C   0  0  0  0  0  0  0  0  0  0  0  0
    0.7500    1.2990    0.0000 C   0  0  0  0  0  0  0  0  0  0  0  0
    1.5000    2.5981    0.0000 O   0  0  0  0  0  0  0  0  0  0  0  0
    3.7500  -11.6913    0.0000 C   0  0  0  0  0  0  0  0  0  0  0  0
    3.0000  -10.3923    0.0000 O   0  0  0  0  0  0  0  0  0  0  0  0
    3.0000  -12.9904    0.0000 O   0  0  0  0  0  0  0  0  0  0  0  0
  1  2  1  0
  2  3  1  0
  2  4  2  0
  4  5  1  0
  5  6  1  0
  6  7  1  0
  7  8  2  0
  8  9  1  0
  9 10  1  0
 10 11  1  0
 11 12  1  0
 11 13  2  0
 13 14  1  0
 14 15  1  0
 15 16  1  0
 16 17  1  0
 16 18  2  0
 18 19  1  0
 19 20  1  0
 20 21  2  0
 21 22  1  0
 22 23  2  0
 22 24  1  0
 24 25  2  0
 25 26  1  0
 25 27  1  0
 27 28  2  0
  7 29  1  0
 29 30  2  0
 29 31  1  0
 27 20  1  0
M  END
>  <id>  (62) 
SANC00247_minRM1.pdb

>  <SMILES>  (62) 
CC(C)=CCC/C(=C/CC/C(C)=C/CC/C(C)=C/CC1=CC(=O)C=C(C)C1=O)C(=O)O

>  <warheads>  (62) 
ab_unsat_carbonyl:5;para_quinone:1

>  <n_warheads>  (62) 
6

>  <max_tier>  (62) 
2

>  <pains_flag>  (62) 
quinone_A(370)

>  <MW>  (62) 
424.6

>  <cLogP>  (62) 
6.61

>  <HBD>  (62) 
1

>  <HBA>  (62) 
3

>  <TPSA>  (62) 
71.4

>  <ArRings>  (62) 
0

$$$$
SANC00248_minRM1.pdb
     RDKit          2D

 30 30  0  0  0  0  0  0  0  0999 V2000
    6.0000  -18.1865    0.0000 C   0  0  0  0  0  0  0  0  0  0  0  0
    5.2500  -16.8875    0.0000 C   0  0  0  0  0  0  0  0  0  0  0  0
    3.7500  -16.8875    0.0000 C   0  0  0  0  0  0  0  0  0  0  0  0
    6.0000  -15.5885    0.0000 C   0  0  0  0  0  0  0  0  0  0  0  0
    5.2500  -14.2894    0.0000 C   0  0  0  0  0  0  0  0  0  0  0  0
    6.0000  -12.9904    0.0000 C   0  0  0  0  0  0  0  0  0  0  0  0
    5.2500  -11.6913    0.0000 C   0  0  0  0  0  0  0  0  0  0  0  0
    3.7500  -11.6913    0.0000 C   0  0  0  0  0  0  0  0  0  0  0  0
    3.0000  -12.9904    0.0000 O   0  0  0  0  0  0  0  0  0  0  0  0
    6.0000  -10.3923    0.0000 C   0  0  0  0  0  0  0  0  0  0  0  0
    5.2500   -9.0933    0.0000 C   0  0  0  0  0  0  0  0  0  0  0  0
    6.0000   -7.7942    0.0000 C   0  0  0  0  0  0  0  0  0  0  0  0
    5.2500   -6.4952    0.0000 C   0  0  0  0  0  0  0  0  0  0  0  0
    3.7500   -6.4952    0.0000 C   0  0  0  0  0  0  0  0  0  0  0  0
    6.0000   -5.1962    0.0000 C   0  0  0  0  0  0  0  0  0  0  0  0
    5.2500   -3.8971    0.0000 C   0  0  0  0  0  0  0  0  0  0  0  0
    6.0000   -2.5981    0.0000 C   0  0  0  0  0  0  0  0  0  0  0  0
    5.2500   -1.2990    0.0000 C   0  0  0  0  0  0  0  0  0  0  0  0
    6.0000    0.0000    0.0000 C   0  0  0  0  0  0  0  0  0  0  0  0
    3.7500   -1.2990    0.0000 C   0  0  0  0  0  0  0  0  0  0  0  0
    3.0000    0.0000    0.0000 C   0  0  0  0  0  0  0  0  0  0  0  0
    1.5000    0.0000    0.0000 C   0  0  0  0  0  0  0  0  0  0  0  0
    0.7500   -1.2990    0.0000 C   0  0  0  0  0  0  0  0  0  0  0  0
   -0.7500   -1.2990    0.0000 C   0  0  0  0  0  0  0  0  0  0  0  0
   -1.5000   -2.5981    0.0000 O   0  0  0  0  0  0  0  0  0  0  0  0
   -1.5000    0.0000    0.0000 C   0  0  0  0  0  0  0  0  0  0  0  0
   -0.7500    1.2990    0.0000 C   0  0  0  0  0  0  0  0  0  0  0  0
   -1.5000    2.5981    0.0000 C   0  0  0  0  0  0  0  0  0  0  0  0
    0.7500    1.2990    0.0000 C   0  0  0  0  0  0  0  0  0  0  0  0
    1.5000    2.5981    0.0000 O   0  0  0  0  0  0  0  0  0  0  0  0
  1  2  1  0
  2  3  1  0
  2  4  2  0
  4  5  1  0
  5  6  1  0
  6  7  1  0
  7  8  1  0
  8  9  2  0
  7 10  2  0
 10 11  1  0
 11 12  1  0
 12 13  1  0
 13 14  1  0
 13 15  2  0
 15 16  1  0
 16 17  1  0
 17 18  1  0
 18 19  1  0
 18 20  2  0
 20 21  1  0
 21 22  1  0
 22 23  2  0
 23 24  1  0
 24 25  2  0
 24 26  1  0
 26 27  2  0
 27 28  1  0
 27 29  1  0
 29 30  2  0
 29 22  1  0
M  END
>  <id>  (63) 
SANC00248_minRM1.pdb

>  <SMILES>  (63) 
CC(C)=CCC/C(C=O)=C/CC/C(C)=C/CC/C(C)=C/CC1=CC(=O)C=C(C)C1=O

>  <warheads>  (63) 
ab_unsat_carbonyl:5;para_quinone:1

>  <n_warheads>  (63) 
6

>  <max_tier>  (63) 
2

>  <pains_flag>  (63) 
quinone_A(370)

>  <MW>  (63) 
408.6

>  <cLogP>  (63) 
6.73

>  <HBD>  (63) 
0

>  <HBA>  (63) 
3

>  <TPSA>  (63) 
51.2

>  <ArRings>  (63) 
0

$$$$
SANC00249_minRM1.pdb
     RDKit          2D

 23 26  0  0  0  0  0  0  0  0999 V2000
    1.5000   -5.1962    0.0000 O   0  0  0  0  0  0  0  0  0  0  0  0
    0.7500   -3.8971    0.0000 C   0  0  0  0  0  0  0  0  0  0  0  0
    1.5000   -2.5981    0.0000 C   0  0  0  0  0  0  0  0  0  0  0  0
    0.7500   -1.2990    0.0000 C   0  0  0  0  0  0  0  0  0  0  0  0
    1.5000    0.0000    0.0000 N   0  0  0  0  0  0  0  0  0  0  0  0
    0.7500    1.2990    0.0000 C   0  0  0  0  0  0  0  0  0  0  0  0
   -0.7500    1.2990    0.0000 C   0  0  0  0  0  0  0  0  0  0  0  0
   -1.5000    0.0000    0.0000 C   0  0  0  0  0  0  0  0  0  0  0  0
   -2.9266   -0.4635    0.0000 C   0  0  0  0  0  0  0  0  0  0  0  0
   -2.9266   -1.9635    0.0000 N   0  0  0  0  0  0  0  0  0  0  0  0
   -4.1401   -2.8452    0.0000 C   0  0  0  0  0  0  0  0  0  0  0  0
   -4.1401   -4.3452    0.0000 O   0  0  0  0  0  0  0  0  0  0  0  0
   -5.5667   -4.8087    0.0000 C   0  0  0  0  0  0  0  0  0  0  0  0
   -6.0302   -6.2353    0.0000 C   0  0  0  0  0  0  0  0  0  0  0  0
   -7.4974   -6.5472    0.0000 O   0  0  0  0  0  0  0  0  0  0  0  0
   -6.4484   -3.5952    0.0000 C   0  0  0  0  0  0  0  0  0  0  0  0
   -7.9484   -3.5952    0.0000 O   0  0  0  0  0  0  0  0  0  0  0  0
   -5.5667   -2.3817    0.0000 C   0  0  0  0  0  0  0  0  0  0  0  0
   -6.0302   -0.9551    0.0000 O   0  0  0  0  0  0  0  0  0  0  0  0
   -1.5000   -2.5981    0.0000 C   0  0  0  0  0  0  0  0  0  0  0  0
   -0.7500   -1.2990    0.0000 C   0  0  0  0  0  0  0  0  0  0  0  0
   -0.7500   -3.8971    0.0000 C   0  0  0  0  0  0  0  0  0  0  0  0
   -1.5000   -5.1962    0.0000 O   0  0  0  0  0  0  0  0  0  0  0  0
  1  2  2  0
  2  3  1  0
  3  4  2  0
  4  5  1  0
  5  6  1  0
  6  7  1  0
  7  8  1  0
  8  9  2  0
  9 10  1  0
 11 10  1  1
 11 12  1  0
 12 13  1  0
 13 14  1  6
 14 15  1  0
 13 16  1  0
 16 17  1  1
 16 18  1  0
 18 19  1  1
 10 20  1  0
 20 21  2  0
 20 22  1  0
 22 23  2  0
 22  2  1  0
 21  4  1  0
 21  8  1  0
 18 11  1  0
M  END
>  <id>  (64) 
SANC00249_minRM1.pdb

>  <SMILES>  (64) 
O=C1C=C2NCCc3cn([C@H]4O[C@H](CO)[C@@H](O)[C@H]4O)c(c32)C1=O

>  <warheads>  (64) 
ab_unsat_carbonyl:1

>  <n_warheads>  (64) 
1

>  <max_tier>  (64) 
1

>  <pains_flag>  (64) 
imine_one_A(321)

>  <MW>  (64) 
320.3

>  <cLogP>  (64) 
-1.65

>  <HBD>  (64) 
4

>  <HBA>  (64) 
7

>  <TPSA>  (64) 
121.0

>  <ArRings>  (64) 
1

$$$$
SANC00250_minRM1.pdb
     RDKit          2D

 31 31  0  0  0  0  0  0  0  0999 V2000
    6.0000  -18.1865    0.0000 C   0  0  0  0  0  0  0  0  0  0  0  0
    5.2500  -16.8875    0.0000 C   0  0  0  0  0  0  0  0  0  0  0  0
    3.7500  -16.8875    0.0000 C   0  0  0  0  0  0  0  0  0  0  0  0
    6.0000  -15.5885    0.0000 C   0  0  0  0  0  0  0  0  0  0  0  0
    5.2500  -14.2894    0.0000 C   0  0  0  0  0  0  0  0  0  0  0  0
    6.0000  -12.9904    0.0000 C   0  0  0  0  0  0  0  0  0  0  0  0
    5.2500  -11.6913    0.0000 C   0  0  0  0  0  0  0  0  0  0  0  0
    6.0000  -10.3923    0.0000 C   0  0  0  0  0  0  0  0  0  0  0  0
    5.2500   -9.0933    0.0000 C   0  0  0  0  0  0  0  0  0  0  0  0
    6.0000   -7.7942    0.0000 C   0  0  0  0  0  0  0  0  0  0  0  0
    5.2500   -6.4952    0.0000 C   0  0  0  0  0  0  0  0  0  0  0  0
    3.7500   -6.4952    0.0000 C   0  0  0  0  0  0  0  0  0  0  0  0
    6.0000   -5.1962    0.0000 C   0  0  0  0  0  0  0  0  0  0  0  0
    5.2500   -3.8971    0.0000 C   0  0  0  0  0  0  0  0  0  0  0  0
    6.0000   -2.5981    0.0000 C   0  0  0  0  0  0  0  0  0  0  0  0
    5.2500   -1.2990    0.0000 C   0  0  0  0  0  0  0  0  0  0  0  0
    6.0000    0.0000    0.0000 C   0  0  0  0  0  0  0  0  0  0  0  0
    3.7500   -1.2990    0.0000 C   0  0  0  0  0  0  0  0  0  0  0  0
    3.0000    0.0000    0.0000 C   0  0  0  0  0  0  0  0  0  0  0  0
    1.5000    0.0000    0.0000 C   0  0  0  0  0  0  0  0  0  0  0  0
    0.7500   -1.2990    0.0000 C   0  0  0  0  0  0  0  0  0  0  0  0
   -0.7500   -1.2990    0.0000 C   0  0  0  0  0  0  0  0  0  0  0  0
   -1.5000   -2.5981    0.0000 O   0  0  0  0  0  0  0  0  0  0  0  0
   -1.5000    0.0000    0.0000 C   0  0  0  0  0  0  0  0  0  0  0  0
   -0.7500    1.2990    0.0000 C   0  0  0  0  0  0  0  0  0  0  0  0
   -1.5000    2.5981    0.0000 C   0  0  0  0  0  0  0  0  0  0  0  0
    0.7500    1.2990    0.0000 C   0  0  0  0  0  0  0  0  0  0  0  0
    1.5000    2.5981    0.0000 O   0  0  0  0  0  0  0  0  0  0  0  0
    3.7500  -11.6913    0.0000 C   0  0  0  0  0  0  0  0  0  0  0  0
    3.0000  -10.3923    0.0000 O   0  0  0  0  0  0  0  0  0  0  0  0
    3.0000  -12.9904    0.0000 O   0  0  0  0  0  0  0  0  0  0  0  0
  1  2  1  0
  2  3  1  0
  2  4  2  0
  4  5  1  0
  5  6  1  0
  6  7  1  0
  7  8  2  0
  8  9  1  0
  9 10  1  0
 10 11  1  0
 11 12  1  0
 11 13  2  0
 13 14  1  0
 14 15  1  0
 15 16  1  0
 16 17  1  0
 16 18  2  0
 18 19  1  0
 19 20  1  0
 20 21  2  0
 21 22  1  0
 22 23  1  0
 22 24  2  0
 24 25  1  0
 25 26  1  0
 25 27  2  0
 27 28  1  0
  7 29  1  0
 29 30  2  0
 29 31  1  0
 27 20  1  0
M  END
>  <id>  (65) 
SANC00250_minRM1.pdb

>  <SMILES>  (65) 
CC(C)=CCC/C(=C/CC/C(C)=C/CC/C(C)=C/Cc1cc(O)cc(C)c1O)C(=O)O

>  <warheads>  (65) 
ab_unsat_carbonyl:1

>  <n_warheads>  (65) 
1

>  <max_tier>  (65) 
1

>  <pains_flag>  (65) 


>  <MW>  (65) 
426.6

>  <cLogP>  (65) 
7.16

>  <HBD>  (65) 
3

>  <HBA>  (65) 
3

>  <TPSA>  (65) 
77.8

>  <ArRings>  (65) 
1

$$$$
SANC00251_minRM1.pdb
     RDKit          2D

 23 26  0  0  0  0  0  0  0  0999 V2000
    1.5000   -5.1962    0.0000 N   0  0  0  0  0  0  0  0  0  0  0  0
    0.7500   -3.8971    0.0000 C   0  0  0  0  0  0  0  0  0  0  0  0
    1.5000   -2.5981    0.0000 C   0  0  0  0  0  0  0  0  0  0  0  0
    0.7500   -1.2990    0.0000 C   0  0  0  0  0  0  0  0  0  0  0  0
    1.5000    0.0000    0.0000 N   0  0  0  0  0  0  0  0  0  0  0  0
    0.7500    1.2990    0.0000 C   0  0  0  0  0  0  0  0  0  0  0  0
   -0.7500    1.2990    0.0000 C   0  0  0  0  0  0  0  0  0  0  0  0
   -1.5000    0.0000    0.0000 C   0  0  0  0  0  0  0  0  0  0  0  0
   -2.9266   -0.4635    0.0000 C   0  0  0  0  0  0  0  0  0  0  0  0
   -2.9266   -1.9635    0.0000 N   0  0  0  0  0  0  0  0  0  0  0  0
   -4.1401   -2.8452    0.0000 C   0  0  0  0  0  0  0  0  0  0  0  0
   -4.1401   -4.3452    0.0000 O   0  0  0  0  0  0  0  0  0  0  0  0
   -5.5667   -4.8087    0.0000 C   0  0  0  0  0  0  0  0  0  0  0  0
   -6.0302   -6.2353    0.0000 C   0  0  0  0  0  0  0  0  0  0  0  0
   -7.4974   -6.5472    0.0000 O   0  0  0  0  0  0  0  0  0  0  0  0
   -6.4484   -3.5952    0.0000 C   0  0  0  0  0  0  0  0  0  0  0  0
   -7.9484   -3.5952    0.0000 O   0  0  0  0  0  0  0  0  0  0  0  0
   -5.5667   -2.3817    0.0000 C   0  0  0  0  0  0  0  0  0  0  0  0
   -6.0302   -0.9551    0.0000 O   0  0  0  0  0  0  0  0  0  0  0  0
   -1.5000   -2.5981    0.0000 C   0  0  0  0  0  0  0  0  0  0  0  0
   -0.7500   -1.2990    0.0000 C   0  0  0  0  0  0  0  0  0  0  0  0
   -0.7500   -3.8971    0.0000 C   0  0  0  0  0  0  0  0  0  0  0  0
   -1.5000   -5.1962    0.0000 O   0  0  0  0  0  0  0  0  0  0  0  0
  1  2  1  0
  2  3  2  0
  3  4  1  0
  4  5  2  0
  5  6  1  0
  6  7  1  0
  7  8  1  0
  8  9  2  0
  9 10  1  0
 11 10  1  1
 11 12  1  0
 12 13  1  0
 13 14  1  6
 14 15  1  0
 13 16  1  0
 16 17  1  1
 16 18  1  0
 18 19  1  1
 10 20  1  0
 20 21  2  0
 20 22  1  0
 22 23  2  0
 22  2  1  0
 21  4  1  0
 21  8  1  0
 18 11  1  0
M  END
>  <id>  (66) 
SANC00251_minRM1.pdb

>  <SMILES>  (66) 
NC1=CC2=NCCc3cn([C@H]4O[C@H](CO)[C@@H](O)[C@H]4O)c(c32)C1=O

>  <warheads>  (66) 
ab_unsat_carbonyl:1

>  <n_warheads>  (66) 
1

>  <max_tier>  (66) 
1

>  <pains_flag>  (66) 
quinone_A(370)

>  <MW>  (66) 
319.3

>  <cLogP>  (66) 
-1.52

>  <HBD>  (66) 
4

>  <HBA>  (66) 
7

>  <TPSA>  (66) 
130.3

>  <ArRings>  (66) 
1

$$$$
SANC00253_minRM1.pdb
     RDKit          2D

 23 25  0  0  0  0  0  0  0  0999 V2000
    3.7500   -3.8971    0.0000 C   0  0  0  0  0  0  0  0  0  0  0  0
    3.0000   -2.5981    0.0000 O   0  0  0  0  0  0  0  0  0  0  0  0
    1.5000   -2.5981    0.0000 C   0  0  0  0  0  0  0  0  0  0  0  0
    0.7500   -3.8971    0.0000 C   0  0  0  0  0  0  0  0  0  0  0  0
    1.5000   -5.1962    0.0000 O   0  0  0  0  0  0  0  0  0  0  0  0
   -0.7500   -3.8971    0.0000 C   0  0  0  0  0  0  0  0  0  0  0  0
   -1.5000   -2.5981    0.0000 C   0  0  0  0  0  0  0  0  0  0  0  0
   -3.0000   -2.5981    0.0000 O   0  0  0  0  0  0  0  0  0  0  0  0
   -0.7500   -1.2990    0.0000 C   0  0  0  0  0  0  0  0  0  0  0  0
    0.7500   -1.2990    0.0000 C   0  0  0  0  0  0  0  0  0  0  0  0
    1.5000    0.0000    0.0000 O   0  0  0  0  0  0  0  0  0  0  0  0
    0.7500    1.2990    0.0000 C   0  0  0  0  0  0  0  0  0  0  0  0
   -0.7500    1.2990    0.0000 C   0  0  0  0  0  0  0  0  0  0  0  0
   -1.5000    2.5981    0.0000 C   0  0  0  0  0  0  0  0  0  0  0  0
   -3.0000    2.5981    0.0000 C   0  0  0  0  0  0  0  0  0  0  0  0
   -3.7500    3.8971    0.0000 C   0  0  0  0  0  0  0  0  0  0  0  0
   -5.2500    3.8971    0.0000 C   0  0  0  0  0  0  0  0  0  0  0  0
   -6.0000    2.5981    0.0000 C   0  0  0  0  0  0  0  0  0  0  0  0
   -7.5000    2.5981    0.0000 O   0  0  0  0  0  0  0  0  0  0  0  0
   -5.2500    1.2990    0.0000 C   0  0  0  0  0  0  0  0  0  0  0  0
   -3.7500    1.2990    0.0000 C   0  0  0  0  0  0  0  0  0  0  0  0
   -1.5000    0.0000    0.0000 C   0  0  0  0  0  0  0  0  0  0  0  0
   -3.0000    0.0000    0.0000 O   0  0  0  0  0  0  0  0  0  0  0  0
  1  2  1  0
  2  3  1  0
  3  4  2  0
  4  5  1  0
  4  6  1  0
  6  7  2  0
  7  8  1  0
  7  9  1  0
  9 10  2  0
 10 11  1  0
 11 12  1  0
 12 13  1  0
 13 14  2  0
 14 15  1  0
 15 16  2  0
 16 17  1  0
 17 18  2  0
 18 19  1  0
 18 20  1  0
 20 21  2  0
 13 22  1  0
 22 23  2  0
 10  3  1  0
 21 15  1  0
 22  9  1  0
M  END
>  <id>  (67) 
SANC00253_minRM1.pdb

>  <SMILES>  (67) 
COc1c(O)cc(O)c2c1OC/C(=C/c1ccc(O)cc1)C2=O

>  <warheads>  (67) 
ab_unsat_carbonyl:1

>  <n_warheads>  (67) 
1

>  <max_tier>  (67) 
1

>  <pains_flag>  (67) 


>  <MW>  (67) 
314.3

>  <cLogP>  (67) 
2.47

>  <HBD>  (67) 
3

>  <HBA>  (67) 
6

>  <TPSA>  (67) 
96.2

>  <ArRings>  (67) 
2

$$$$
SANC00255_minRM1.pdb
     RDKit          2D

 14 13  0  0  0  0  0  0  0  0999 V2000
   -3.5490   -3.5490    0.0000 C   0  0  0  0  0  0  0  0  0  0  0  0
   -2.2500   -2.7990    0.0000 C   0  0  0  0  0  0  0  0  0  0  0  0
   -2.2500   -1.2990    0.0000 C   0  0  0  0  0  0  0  0  0  0  0  0
   -2.2500    0.2010    0.0000 C   0  0  0  0  0  0  0  0  0  0  0  0
   -3.7500   -1.2990    0.0000 Cl  0  0  0  0  0  0  0  0  0  0  0  0
   -0.7500   -1.2990    0.0000 C   0  0  0  0  0  0  0  0  0  0  0  0
    0.0000   -2.5981    0.0000 Cl  0  0  0  0  0  0  0  0  0  0  0  0
    0.0000    0.0000    0.0000 C   0  0  0  0  0  0  0  0  0  0  0  0
    1.5000    0.0000    0.0000 C   0  0  0  0  0  0  0  0  0  0  0  0
    2.2500    1.2990    0.0000 C   0  0  0  0  0  0  0  0  0  0  0  0
    1.5000    2.5981    0.0000 C   0  0  0  0  0  0  0  0  0  0  0  0
    2.2500    3.8971    0.0000 O   0  0  0  0  0  0  0  0  0  0  0  0
    3.7500    1.2990    0.0000 C   0  0  0  0  0  0  0  0  0  0  0  0
    4.5000   -0.0000    0.0000 Cl  0  0  0  0  0  0  0  0  0  0  0  0
  1  2  2  0
  2  3  1  0
  3  4  1  1
  3  5  1  0
  3  6  1  0
  6  7  1  1
  6  8  1  0
  8  9  2  0
  9 10  1  0
 10 11  1  0
 11 12  2  0
 10 13  2  0
 13 14  1  0
M  END
>  <id>  (68) 
SANC00255_minRM1.pdb

>  <SMILES>  (68) 
C=C[C@](C)(Cl)[C@H](Cl)/C=C/C(C=O)=C\Cl

>  <warheads>  (68) 
ab_unsat_carbonyl:1

>  <n_warheads>  (68) 
1

>  <max_tier>  (68) 
1

>  <pains_flag>  (68) 


>  <MW>  (68) 
253.6

>  <cLogP>  (68) 
3.66

>  <HBD>  (68) 
0

>  <HBA>  (68) 
1

>  <TPSA>  (68) 
17.1

>  <ArRings>  (68) 
0

$$$$
SANC00257_minRM1.pdb
     RDKit          2D

 32 36  0  0  0  0  0  0  0  0999 V2000
    3.0000   -2.5981    0.0000 C   0  0  0  0  0  0  0  0  0  0  0  0
    1.5000   -2.5981    0.0000 C   0  0  0  0  0  0  0  0  0  0  0  0
    0.7500   -3.8971    0.0000 C   0  0  0  0  0  0  0  0  0  0  0  0
    1.5000   -5.1962    0.0000 O   0  0  0  0  0  0  0  0  0  0  0  0
   -0.7500   -3.8971    0.0000 C   0  0  0  0  0  0  0  0  0  0  0  0
   -1.5000   -5.1962    0.0000 O   0  0  0  0  0  0  0  0  0  0  0  0
   -1.5000   -2.5981    0.0000 C   0  0  0  0  0  0  0  0  0  0  0  0
   -0.7500   -1.2990    0.0000 C   0  0  0  0  0  0  0  0  0  0  0  0
    0.7500   -1.2990    0.0000 C   0  0  0  0  0  0  0  0  0  0  0  0
    1.5000    0.0000    0.0000 C   0  0  0  0  0  0  0  0  0  0  0  0
    0.7500    1.2990    0.0000 C   0  0  0  0  0  0  0  0  0  0  0  0
   -0.7500    1.2990    0.0000 C   0  0  0  0  0  0  0  0  0  0  0  0
   -1.5000    0.0000    0.0000 C   0  0  0  0  0  0  0  0  0  0  0  0
   -2.2500   -1.2990    0.0000 C   0  0  0  0  0  0  0  0  0  0  0  0
   -3.0000    0.0000    0.0000 C   0  0  0  0  0  0  0  0  0  0  0  0
   -3.7500    1.2990    0.0000 C   0  0  0  0  0  0  0  0  0  0  0  0
   -3.0000    2.5981    0.0000 C   0  0  0  0  0  0  0  0  0  0  0  0
   -4.5000    2.5981    0.0000 C   0  0  0  0  0  0  0  0  0  0  0  0
   -3.7500    3.8971    0.0000 C   0  0  0  0  0  0  0  0  0  0  0  0
   -5.2500    3.8971    0.0000 C   0  0  0  0  0  0  0  0  0  0  0  0
   -6.0000    5.1962    0.0000 C   0  0  0  0  0  0  0  0  0  0  0  0
   -7.1491    6.1603    0.0000 C   0  0  0  0  0  0  0  0  0  0  0  0
   -7.1491    4.2320    0.0000 O   0  0  0  0  0  0  0  0  0  0  0  0
   -5.2500    6.4952    0.0000 C   0  0  0  0  0  0  0  0  0  0  0  0
   -6.0000    7.7942    0.0000 O   0  0  0  0  0  0  0  0  0  0  0  0
   -3.7500    6.4952    0.0000 C   0  0  0  0  0  0  0  0  0  0  0  0
   -3.0000    5.1962    0.0000 C   0  0  0  0  0  0  0  0  0  0  0  0
   -2.2500    6.4952    0.0000 C   0  0  0  0  0  0  0  0  0  0  0  0
   -1.5000    5.1962    0.0000 C   0  0  0  0  0  0  0  0  0  0  0  0
   -0.7500    3.8971    0.0000 C   0  0  0  0  0  0  0  0  0  0  0  0
   -1.5000    2.5981    0.0000 C   0  0  0  0  0  0  0  0  0  0  0  0
    0.0000    2.5981    0.0000 C   0  0  0  0  0  0  0  0  0  0  0  0
  1  2  1  0
  2  3  2  0
  3  4  1  0
  3  5  1  0
  5  6  2  0
  5  7  1  0
  7  8  2  0
  8  9  1  0
  9 10  2  0
 10 11  1  0
 11 12  2  0
 12 13  1  0
 13 14  1  1
 13 15  1  0
 15 16  1  0
 16 17  1  0
 17 18  1  6
 17 19  1  0
 19 20  1  6
 20 21  1  0
 21 22  1  6
 21 23  1  0
 21 24  1  0
 24 25  2  0
 24 26  1  0
 26 27  1  0
 27 28  1  1
 27 29  1  0
 29 30  1  0
 30 31  1  0
 31 32  1  1
  9  2  1  0
 31 12  1  0
 13  8  1  0
 31 17  1  0
 27 19  1  0
M  END
>  <id>  (69) 
SANC00257_minRM1.pdb

>  <SMILES>  (69) 
CC1=C(O)C(=O)C=C2C1=CC=C1[C@@]2(C)CC[C@@]2(C)[C@@H]3C[C@@](C)(O)C(=O)C[C@]3(C)CC[C@]12C

>  <warheads>  (69) 
ab_unsat_carbonyl:2

>  <n_warheads>  (69) 
2

>  <max_tier>  (69) 
1

>  <pains_flag>  (69) 


>  <MW>  (69) 
436.6

>  <cLogP>  (69) 
5.54

>  <HBD>  (69) 
2

>  <HBA>  (69) 
4

>  <TPSA>  (69) 
74.6

>  <ArRings>  (69) 
0

$$$$
SANC00258_minRM1.pdb
     RDKit          2D

 21 23  0  0  0  0  0  0  0  0999 V2000
    3.0000    0.0000    0.0000 O   0  0  0  0  0  0  0  0  0  0  0  0
    1.5000    0.0000    0.0000 C   0  0  0  0  0  0  0  0  0  0  0  0
    0.7500   -1.2990    0.0000 C   0  0  0  0  0  0  0  0  0  0  0  0
    1.5000   -2.5981    0.0000 C   0  0  0  0  0  0  0  0  0  0  0  0
    3.0000   -2.5981    0.0000 C   0  0  0  0  0  0  0  0  0  0  0  0
    3.7500   -3.8971    0.0000 C   0  0  0  0  0  0  0  0  0  0  0  0
    5.2500   -3.8971    0.0000 C   0  0  0  0  0  0  0  0  0  0  0  0
    6.0000   -2.5981    0.0000 C   0  0  0  0  0  0  0  0  0  0  0  0
    7.5000   -2.5981    0.0000 O   0  0  0  0  0  0  0  0  0  0  0  0
    5.2500   -1.2990    0.0000 C   0  0  0  0  0  0  0  0  0  0  0  0
    3.7500   -1.2990    0.0000 C   0  0  0  0  0  0  0  0  0  0  0  0
   -0.7500   -1.2990    0.0000 C   0  0  0  0  0  0  0  0  0  0  0  0
   -1.5000    0.0000    0.0000 O   0  0  0  0  0  0  0  0  0  0  0  0
   -0.7500    1.2990    0.0000 C   0  0  0  0  0  0  0  0  0  0  0  0
   -1.5000    2.5981    0.0000 C   0  0  0  0  0  0  0  0  0  0  0  0
   -0.7500    3.8971    0.0000 C   0  0  0  0  0  0  0  0  0  0  0  0
   -1.5000    5.1962    0.0000 O   0  0  0  0  0  0  0  0  0  0  0  0
    0.7500    3.8971    0.0000 C   0  0  0  0  0  0  0  0  0  0  0  0
    1.5000    2.5981    0.0000 C   0  0  0  0  0  0  0  0  0  0  0  0
    3.0000    2.5981    0.0000 O   0  0  0  0  0  0  0  0  0  0  0  0
    0.7500    1.2990    0.0000 C   0  0  0  0  0  0  0  0  0  0  0  0
  1  2  2  0
  2  3  1  0
  3  4  2  0
  4  5  1  0
  5  6  2  0
  6  7  1  0
  7  8  2  0
  8  9  1  0
  8 10  1  0
 10 11  2  0
  3 12  1  0
 12 13  1  0
 13 14  1  0
 14 15  2  0
 15 16  1  0
 16 17  1  0
 16 18  2  0
 18 19  1  0
 19 20  1  0
 19 21  2  0
 21  2  1  0
 11  5  1  0
 21 14  1  0
M  END
>  <id>  (70) 
SANC00258_minRM1.pdb

>  <SMILES>  (70) 
O=C1/C(=C\c2ccc(O)cc2)COc2cc(O)cc(O)c21

>  <warheads>  (70) 
ab_unsat_carbonyl:1

>  <n_warheads>  (70) 
1

>  <max_tier>  (70) 
1

>  <pains_flag>  (70) 


>  <MW>  (70) 
284.3

>  <cLogP>  (70) 
2.46

>  <HBD>  (70) 
3

>  <HBA>  (70) 
5

>  <TPSA>  (70) 
87.0

>  <ArRings>  (70) 
2

$$$$
SANC00264_minRM1.pdb
     RDKit          2D

 31 35  0  0  0  0  0  0  0  0999 V2000
    3.0000   -2.5981    0.0000 C   0  0  0  0  0  0  0  0  0  0  0  0
    1.5000   -2.5981    0.0000 C   0  0  0  0  0  0  0  0  0  0  0  0
    0.7500   -3.8971    0.0000 C   0  0  0  0  0  0  0  0  0  0  0  0
    1.5000   -5.1962    0.0000 O   0  0  0  0  0  0  0  0  0  0  0  0
   -0.7500   -3.8971    0.0000 C   0  0  0  0  0  0  0  0  0  0  0  0
   -1.5000   -5.1962    0.0000 O   0  0  0  0  0  0  0  0  0  0  0  0
   -1.5000   -2.5981    0.0000 C   0  0  0  0  0  0  0  0  0  0  0  0
   -0.7500   -1.2990    0.0000 C   0  0  0  0  0  0  0  0  0  0  0  0
    0.7500   -1.2990    0.0000 C   0  0  0  0  0  0  0  0  0  0  0  0
    1.5000    0.0000    0.0000 C   0  0  0  0  0  0  0  0  0  0  0  0
    0.7500    1.2990    0.0000 C   0  0  0  0  0  0  0  0  0  0  0  0
   -0.7500    1.2990    0.0000 C   0  0  0  0  0  0  0  0  0  0  0  0
   -1.5000    0.0000    0.0000 C   0  0  0  0  0  0  0  0  0  0  0  0
   -2.2500   -1.2990    0.0000 C   0  0  0  0  0  0  0  0  0  0  0  0
   -3.0000    0.0000    0.0000 C   0  0  0  0  0  0  0  0  0  0  0  0
   -3.7500    1.2990    0.0000 C   0  0  0  0  0  0  0  0  0  0  0  0
   -3.0000    2.5981    0.0000 C   0  0  0  0  0  0  0  0  0  0  0  0
   -4.5000    2.5981    0.0000 C   0  0  0  0  0  0  0  0  0  0  0  0
   -3.7500    3.8971    0.0000 C   0  0  0  0  0  0  0  0  0  0  0  0
   -5.2500    3.8971    0.0000 C   0  0  0  0  0  0  0  0  0  0  0  0
   -6.0000    5.1962    0.0000 C   0  0  0  0  0  0  0  0  0  0  0  0
   -7.5000    5.1962    0.0000 C   0  0  0  0  0  0  0  0  0  0  0  0
   -5.2500    6.4952    0.0000 C   0  0  0  0  0  0  0  0  0  0  0  0
   -6.0000    7.7942    0.0000 O   0  0  0  0  0  0  0  0  0  0  0  0
   -3.7500    6.4952    0.0000 C   0  0  0  0  0  0  0  0  0  0  0  0
   -3.0000    5.1962    0.0000 C   0  0  0  0  0  0  0  0  0  0  0  0
   -2.2500    6.4952    0.0000 C   0  0  0  0  0  0  0  0  0  0  0  0
   -1.5000    5.1962    0.0000 C   0  0  0  0  0  0  0  0  0  0  0  0
   -0.7500    3.8971    0.0000 C   0  0  0  0  0  0  0  0  0  0  0  0
   -1.5000    2.5981    0.0000 C   0  0  0  0  0  0  0  0  0  0  0  0
    0.0000    2.5981    0.0000 C   0  0  0  0  0  0  0  0  0  0  0  0
  1  2  1  0
  2  3  2  0
  3  4  1  0
  3  5  1  0
  5  6  2  0
  5  7  1  0
  7  8  2  0
  8  9  1  0
  9 10  2  0
 10 11  1  0
 11 12  2  0
 12 13  1  0
 13 14  1  1
 13 15  1  0
 15 16  1  0
 16 17  1  0
 17 18  1  6
 17 19  1  0
 19 20  1  6
 20 21  1  0
 21 22  1  1
 21 23  1  0
 23 24  2  0
 23 25  1  0
 25 26  1  0
 26 27  1  1
 26 28  1  0
 28 29  1  0
 29 30  1  0
 30 31  1  1
  9  2  1  0
 30 12  1  0
 13  8  1  0
 30 17  1  0
 26 19  1  0
M  END
>  <id>  (71) 
SANC00264_minRM1.pdb

>  <SMILES>  (71) 
CC1=C(O)C(=O)C=C2C1=CC=C1[C@@]2(C)CC[C@@]2(C)[C@@H]3C[C@@H](C)C(=O)C[C@]3(C)CC[C@]12C

>  <warheads>  (71) 
ab_unsat_carbonyl:2

>  <n_warheads>  (71) 
2

>  <max_tier>  (71) 
1

>  <pains_flag>  (71) 


>  <MW>  (71) 
420.6

>  <cLogP>  (71) 
6.42

>  <HBD>  (71) 
1

>  <HBA>  (71) 
3

>  <TPSA>  (71) 
54.4

>  <ArRings>  (71) 
0

$$$$
SANC00265_minRM1.pdb
     RDKit          2D

 32 36  0  0  0  0  0  0  0  0999 V2000
    3.0000   -2.5981    0.0000 C   0  0  0  0  0  0  0  0  0  0  0  0
    1.5000   -2.5981    0.0000 C   0  0  0  0  0  0  0  0  0  0  0  0
    0.7500   -3.8971    0.0000 C   0  0  0  0  0  0  0  0  0  0  0  0
    1.5000   -5.1962    0.0000 O   0  0  0  0  0  0  0  0  0  0  0  0
   -0.7500   -3.8971    0.0000 C   0  0  0  0  0  0  0  0  0  0  0  0
   -1.5000   -5.1962    0.0000 O   0  0  0  0  0  0  0  0  0  0  0  0
   -1.5000   -2.5981    0.0000 C   0  0  0  0  0  0  0  0  0  0  0  0
   -0.7500   -1.2990    0.0000 C   0  0  0  0  0  0  0  0  0  0  0  0
    0.7500   -1.2990    0.0000 C   0  0  0  0  0  0  0  0  0  0  0  0
    1.5000    0.0000    0.0000 C   0  0  0  0  0  0  0  0  0  0  0  0
    0.7500    1.2990    0.0000 C   0  0  0  0  0  0  0  0  0  0  0  0
   -0.7500    1.2990    0.0000 C   0  0  0  0  0  0  0  0  0  0  0  0
   -1.5000    0.0000    0.0000 C   0  0  0  0  0  0  0  0  0  0  0  0
   -2.2500   -1.2990    0.0000 C   0  0  0  0  0  0  0  0  0  0  0  0
   -3.0000    0.0000    0.0000 C   0  0  0  0  0  0  0  0  0  0  0  0
   -3.7500    1.2990    0.0000 C   0  0  0  0  0  0  0  0  0  0  0  0
   -3.0000    2.5981    0.0000 C   0  0  0  0  0  0  0  0  0  0  0  0
   -4.5000    2.5981    0.0000 C   0  0  0  0  0  0  0  0  0  0  0  0
   -3.7500    3.8971    0.0000 C   0  0  0  0  0  0  0  0  0  0  0  0
   -5.2500    3.8971    0.0000 C   0  0  0  0  0  0  0  0  0  0  0  0
   -6.0000    5.1962    0.0000 C   0  0  0  0  0  0  0  0  0  0  0  0
   -7.5000    5.1962    0.0000 C   0  0  0  0  0  0  0  0  0  0  0  0
   -5.2500    6.4952    0.0000 C   0  0  0  0  0  0  0  0  0  0  0  0
   -6.0000    7.7942    0.0000 O   0  0  0  0  0  0  0  0  0  0  0  0
   -3.7500    6.4952    0.0000 C   0  0  0  0  0  0  0  0  0  0  0  0
   -3.0000    7.7942    0.0000 O   0  0  0  0  0  0  0  0  0  0  0  0
   -3.0000    5.1962    0.0000 C   0  0  0  0  0  0  0  0  0  0  0  0
   -2.2500    6.4952    0.0000 C   0  0  0  0  0  0  0  0  0  0  0  0
   -1.5000    5.1962    0.0000 C   0  0  0  0  0  0  0  0  0  0  0  0
   -0.7500    3.8971    0.0000 C   0  0  0  0  0  0  0  0  0  0  0  0
   -1.5000    2.5981    0.0000 C   0  0  0  0  0  0  0  0  0  0  0  0
    0.0000    2.5981    0.0000 C   0  0  0  0  0  0  0  0  0  0  0  0
  1  2  1  0
  2  3  2  0
  3  4  1  0
  3  5  1  0
  5  6  2  0
  5  7  1  0
  7  8  2  0
  8  9  1  0
  9 10  2  0
 10 11  1  0
 11 12  2  0
 12 13  1  0
 13 14  1  1
 13 15  1  0
 15 16  1  0
 16 17  1  0
 17 18  1  6
 17 19  1  0
 19 20  1  6
 20 21  1  0
 21 22  1  1
 21 23  1  0
 23 24  2  0
 23 25  1  0
 25 26  1  1
 25 27  1  0
 27 28  1  1
 27 29  1  0
 29 30  1  0
 30 31  1  0
 31 32  1  1
  9  2  1  0
 31 12  1  0
 13  8  1  0
 31 17  1  0
 27 19  1  0
M  END
>  <id>  (72) 
SANC00265_minRM1.pdb

>  <SMILES>  (72) 
CC1=C(O)C(=O)C=C2C1=CC=C1[C@@]2(C)CC[C@@]2(C)[C@@H]3C[C@@H](C)C(=O)[C@@H](O)[C@]3(C)CC[C@]12C

>  <warheads>  (72) 
ab_unsat_carbonyl:2

>  <n_warheads>  (72) 
2

>  <max_tier>  (72) 
1

>  <pains_flag>  (72) 


>  <MW>  (72) 
436.6

>  <cLogP>  (72) 
5.39

>  <HBD>  (72) 
2

>  <HBA>  (72) 
4

>  <TPSA>  (72) 
74.6

>  <ArRings>  (72) 
0

$$$$
SANC00279_minRM1.pdb
     RDKit          2D

 38 43  0  0  0  0  0  0  0  0999 V2000
    2.2500   -1.2990    0.0000 C   0  0  0  0  0  0  0  0  0  0  0  0
    0.7500   -1.2990    0.0000 C   0  0  0  0  0  0  0  0  0  0  0  0
    1.5000    0.0000    0.0000 C   0  0  0  0  0  0  0  0  0  0  0  0
    0.7500    1.2990    0.0000 C   0  0  0  0  0  0  0  0  0  0  0  0
   -0.7500    1.2990    0.0000 C   0  0  0  0  0  0  0  0  0  0  0  0
   -1.5000    2.5981    0.0000 O   0  0  0  0  0  0  0  0  0  0  0  0
   -0.7500    3.8971    0.0000 C   0  0  0  0  0  0  0  0  0  0  0  0
    0.7500    3.8971    0.0000 O   0  0  0  0  0  0  0  0  0  0  0  0
    1.5000    5.1962    0.0000 C   0  0  0  0  0  0  0  0  0  0  0  0
    3.0000    5.1962    0.0000 C   0  0  0  0  0  0  0  0  0  0  0  0
    3.7500    3.8971    0.0000 O   0  0  0  0  0  0  0  0  0  0  0  0
    0.7500    6.4952    0.0000 C   0  0  0  0  0  0  0  0  0  0  0  0
    1.5000    7.7942    0.0000 O   0  0  0  0  0  0  0  0  0  0  0  0
   -0.7500    6.4952    0.0000 C   0  0  0  0  0  0  0  0  0  0  0  0
   -1.5000    7.7942    0.0000 O   0  0  0  0  0  0  0  0  0  0  0  0
   -1.5000    5.1962    0.0000 C   0  0  0  0  0  0  0  0  0  0  0  0
   -3.0000    5.1962    0.0000 O   0  0  0  0  0  0  0  0  0  0  0  0
   -1.5000    0.0000    0.0000 C   0  0  0  0  0  0  0  0  0  0  0  0
   -0.7500   -1.2990    0.0000 C   0  0  0  0  0  0  0  0  0  0  0  0
   -1.5000   -2.5981    0.0000 C   0  0  0  0  0  0  0  0  0  0  0  0
   -0.7500   -3.8971    0.0000 C   0  0  0  0  0  0  0  0  0  0  0  0
    0.7500   -3.8971    0.0000 C   0  0  0  0  0  0  0  0  0  0  0  0
    1.5000   -2.5981    0.0000 C   0  0  0  0  0  0  0  0  0  0  0  0
    3.0000   -2.5981    0.0000 C   0  0  0  0  0  0  0  0  0  0  0  0
    3.7500   -3.8971    0.0000 C   0  0  0  0  0  0  0  0  0  0  0  0
    3.0000   -5.1962    0.0000 C   0  0  0  0  0  0  0  0  0  0  0  0
    4.4918   -5.3529    0.0000 C   0  0  0  0  0  0  0  0  0  0  0  0
    3.4635   -6.6227    0.0000 C   0  0  0  0  0  0  0  0  0  0  0  0
    4.8901   -7.0863    0.0000 C   0  0  0  0  0  0  0  0  0  0  0  0
    6.1036   -6.2046    0.0000 C   0  0  0  0  0  0  0  0  0  0  0  0
    7.3172   -7.0863    0.0000 C   0  0  0  0  0  0  0  0  0  0  0  0
    8.7437   -6.6227    0.0000 O   0  0  0  0  0  0  0  0  0  0  0  0
    6.8536   -8.5128    0.0000 O   0  0  0  0  0  0  0  0  0  0  0  0
    5.3536   -8.5128    0.0000 C   0  0  0  0  0  0  0  0  0  0  0  0
    2.2500   -7.5044    0.0000 C   0  0  0  0  0  0  0  0  0  0  0  0
    1.0365   -6.6227    0.0000 C   0  0  0  0  0  0  0  0  0  0  0  0
    1.5000   -5.1962    0.0000 C   0  0  0  0  0  0  0  0  0  0  0  0
    0.0082   -5.3529    0.0000 O   0  0  0  0  0  0  0  0  0  0  0  0
  2  1  1  1
  2  3  1  0
  3  4  1  0
  4  5  1  0
  5  6  1  1
  7  6  1  1
  7  8  1  0
  8  9  1  0
  9 10  1  1
 10 11  1  0
  9 12  1  0
 12 13  1  6
 12 14  1  0
 14 15  1  1
 14 16  1  0
 16 17  1  6
  5 18  1  0
 19 18  1  6
 19 20  1  0
 20 21  1  0
 22 21  1  6
 22 23  1  0
 23 24  1  1
 24 25  1  0
 25 26  1  0
 26 27  1  1
 26 28  1  0
 28 29  1  1
 29 30  2  0
 30 31  1  0
 31 32  2  0
 31 33  1  0
 33 34  1  0
 28 35  1  0
 35 36  1  0
 36 37  1  0
 37 38  1  1
 19  2  1  0
 37 22  1  0
 23  2  1  0
 37 26  1  0
 16  7  1  0
 34 29  1  0
M  END
>  <id>  (73) 
SANC00279_minRM1.pdb

>  <SMILES>  (73) 
C[C@]12CC[C@H](O[C@@H]3O[C@H](CO)[C@@H](O)[C@H](O)[C@H]3O)C[C@H]1CC[C@@H]1[C@@H]2CC[C@]2(C)[C@@H](C3=CC(=O)OC3)CC[C@]12O

>  <warheads>  (73) 
ab_unsat_carbonyl:1

>  <n_warheads>  (73) 
1

>  <max_tier>  (73) 
1

>  <pains_flag>  (73) 


>  <MW>  (73) 
536.7

>  <cLogP>  (73) 
1.43

>  <HBD>  (73) 
5

>  <HBA>  (73) 
9

>  <TPSA>  (73) 
145.9

>  <ArRings>  (73) 
0

$$$$
SANC00280_minRM1.pdb
     RDKit          2D

 24 28  0  0  0  0  0  0  0  0999 V2000
    3.0000    0.0000    0.0000 O   0  0  0  0  0  0  0  0  0  0  0  0
    1.5000    0.0000    0.0000 C   0  0  0  0  0  0  0  0  0  0  0  0
    0.7500   -1.2990    0.0000 C   0  0  0  0  0  0  0  0  0  0  0  0
   -0.7500   -1.2990    0.0000 C   0  0  0  0  0  0  0  0  0  0  0  0
   -1.5000    0.0000    0.0000 C   0  0  0  0  0  0  0  0  0  0  0  0
   -2.2500    1.2990    0.0000 C   0  0  0  0  0  0  0  0  0  0  0  0
   -3.7500    1.2990    0.0000 C   0  0  0  0  0  0  0  0  0  0  0  0
   -4.5000   -0.0000    0.0000 N   0  0  0  0  0  0  0  0  0  0  0  0
   -3.7500   -1.2990    0.0000 C   0  0  0  0  0  0  0  0  0  0  0  0
   -2.2500   -1.2990    0.0000 C   0  0  0  0  0  0  0  0  0  0  0  0
   -1.5000   -2.5981    0.0000 C   0  0  0  0  0  0  0  0  0  0  0  0
    0.0000   -2.5981    0.0000 N   0  0  0  0  0  0  0  0  0  0  0  0
    0.7500   -3.8971    0.0000 C   0  0  0  0  0  0  0  0  0  0  0  0
    0.0000   -5.1962    0.0000 C   0  0  0  0  0  0  0  0  0  0  0  0
   -1.5000   -5.1962    0.0000 C   0  0  0  0  0  0  0  0  0  0  0  0
   -2.6147   -6.1998    0.0000 C   0  0  0  0  0  0  0  0  0  0  0  0
   -3.9138   -5.4498    0.0000 N   0  0  0  0  0  0  0  0  0  0  0  0
   -3.7500   -3.8971    0.0000 C   0  0  0  0  0  0  0  0  0  0  0  0
   -2.2500   -3.8971    0.0000 C   0  0  0  0  0  0  0  0  0  0  0  0
   -4.5000   -2.5981    0.0000 C   0  0  0  0  0  0  0  0  0  0  0  0
   -6.0000   -2.5981    0.0000 O   0  0  0  0  0  0  0  0  0  0  0  0
   -0.7500    1.2990    0.0000 C   0  0  0  0  0  0  0  0  0  0  0  0
    0.7500    1.2990    0.0000 C   0  0  0  0  0  0  0  0  0  0  0  0
    1.5000    2.5981    0.0000 Br  0  0  0  0  0  0  0  0  0  0  0  0
  1  2  2  0
  2  3  1  0
  3  4  1  0
  5  4  1  1
  5  6  1  0
  6  7  2  0
  7  8  1  0
  8  9  1  0
  9 10  2  0
 10 11  1  0
 11 12  2  0
 12 13  1  0
 13 14  1  0
 14 15  1  0
 15 16  2  0
 16 17  1  0
 17 18  1  0
 18 19  2  0
 18 20  1  0
 20 21  2  0
  5 22  1  0
 22 23  2  0
 23 24  1  0
 23  2  1  0
 10  5  1  0
 19 11  1  0
 20  9  1  0
 19 15  1  0
M  END
>  <id>  (74) 
SANC00280_minRM1.pdb

>  <SMILES>  (74) 
O=C1CC[C@@]2(C=CNC3=C2C2=NCCc4c[nH]c(c42)C3=O)C=C1Br

>  <warheads>  (74) 
ab_unsat_carbonyl:2

>  <n_warheads>  (74) 
2

>  <max_tier>  (74) 
1

>  <pains_flag>  (74) 
quinone_A(370)

>  <MW>  (74) 
384.2

>  <cLogP>  (74) 
2.56

>  <HBD>  (74) 
2

>  <HBA>  (74) 
4

>  <TPSA>  (74) 
74.3

>  <ArRings>  (74) 
1

$$$$
SANC00281_minRM1.pdb
     RDKit          2D

 33 36  0  0  0  0  0  0  0  0999 V2000
    1.5338    7.3226    0.0000 C   0  0  0  0  0  0  0  0  0  0  0  0
    0.0505    7.0990    0.0000 C   0  0  0  0  0  0  0  0  0  0  0  0
   -0.8847    8.2718    0.0000 O   0  0  0  0  0  0  0  0  0  0  0  0
   -0.4975    5.7027    0.0000 O   0  0  0  0  0  0  0  0  0  0  0  0
   -1.9807    5.4791    0.0000 C   0  0  0  0  0  0  0  0  0  0  0  0
   -2.5287    4.0828    0.0000 C   0  0  0  0  0  0  0  0  0  0  0  0
   -1.5085    2.9832    0.0000 C   0  0  0  0  0  0  0  0  0  0  0  0
   -1.7321    1.5000    0.0000 C   0  0  0  0  0  0  0  0  0  0  0  0
   -0.4330    0.7500    0.0000 C   0  0  0  0  0  0  0  0  0  0  0  0
    0.8660    0.0000    0.0000 C   0  0  0  0  0  0  0  0  0  0  0  0
    1.8302    1.1491    0.0000 C   0  0  0  0  0  0  0  0  0  0  0  0
    1.8302   -1.1491    0.0000 C   0  0  0  0  0  0  0  0  0  0  0  0
   -0.4330   -0.7500    0.0000 C   0  0  0  0  0  0  0  0  0  0  0  0
   -1.1830    0.5490    0.0000 O   0  0  0  0  0  0  0  0  0  0  0  0
   -0.4330    1.8481    0.0000 C   0  0  0  0  0  0  0  0  0  0  0  0
    1.0670    1.8481    0.0000 O   0  0  0  0  0  0  0  0  0  0  0  0
   -1.1830    3.1471    0.0000 C   0  0  0  0  0  0  0  0  0  0  0  0
   -0.4330    4.4462    0.0000 C   0  0  0  0  0  0  0  0  0  0  0  0
   -2.6830    3.1471    0.0000 C   0  0  0  0  0  0  0  0  0  0  0  0
   -1.7321   -1.5000    0.0000 C   0  0  0  0  0  0  0  0  0  0  0  0
   -3.0311   -0.7500    0.0000 C   0  0  0  0  0  0  0  0  0  0  0  0
   -4.3301   -1.5000    0.0000 C   0  0  0  0  0  0  0  0  0  0  0  0
   -3.0311    0.7500    0.0000 C   0  0  0  0  0  0  0  0  0  0  0  0
   -4.2704   -0.0950    0.0000 O   0  0  0  0  0  0  0  0  0  0  0  0
   -4.4274    1.2980    0.0000 C   0  0  0  0  0  0  0  0  0  0  0  0
   -5.6540    0.4346    0.0000 C   0  0  0  0  0  0  0  0  0  0  0  0
   -6.8542    1.3343    0.0000 C   0  0  0  0  0  0  0  0  0  0  0  0
   -8.2875    0.8922    0.0000 C   0  0  0  0  0  0  0  0  0  0  0  0
   -6.3694    2.7538    0.0000 C   0  0  0  0  0  0  0  0  0  0  0  0
   -7.2328    3.9804    0.0000 O   0  0  0  0  0  0  0  0  0  0  0  0
   -4.8695    2.7314    0.0000 C   0  0  0  0  0  0  0  0  0  0  0  0
   -5.5605    4.0627    0.0000 O   0  0  0  0  0  0  0  0  0  0  0  0
   -4.0246    3.9707    0.0000 C   0  0  0  0  0  0  0  0  0  0  0  0
  1  2  1  0
  2  3  2  0
  2  4  1  0
  4  5  1  0
  5  6  1  0
  6  7  2  0
  8  7  1  1
  8  9  1  0
  9 10  1  6
 10 11  1  0
 10 12  1  0
 10 13  1  0
 13 14  1  1
 14 15  1  0
 15 16  2  0
 15 17  1  0
 17 18  1  0
 17 19  1  0
 13 20  1  0
 20 21  1  0
 21 22  1  1
 21 23  1  0
 23 24  1  1
 23 25  1  0
 25 26  1  6
 26 27  2  0
 27 28  1  0
 27 29  1  0
 29 30  2  0
 29 31  1  0
 31 32  1  6
 31 33  1  0
 33  6  1  0
 23  8  1  0
 31 25  1  0
 13  9  1  0
M  END
>  <id>  (75) 
SANC00281_minRM1.pdb

>  <SMILES>  (75) 
CC(=O)OCC1=C[C@H]2[C@@H]3C(C)(C)[C@]3(OC(=O)C(C)C)C[C@@H](C)[C@]2(O)[C@@H]2C=C(C)C(=O)[C@@]2(O)C1

>  <warheads>  (75) 
ab_unsat_carbonyl:1

>  <n_warheads>  (75) 
1

>  <max_tier>  (75) 
1

>  <pains_flag>  (75) 


>  <MW>  (75) 
460.6

>  <cLogP>  (75) 
2.74

>  <HBD>  (75) 
2

>  <HBA>  (75) 
7

>  <TPSA>  (75) 
110.1

>  <ArRings>  (75) 
0

$$$$
SANC00282_minRM1.pdb
     RDKit          2D

 34 37  0  0  0  0  0  0  0  0999 V2000
    3.3170    0.5490    0.0000 C   0  0  0  0  0  0  0  0  0  0  0  0
    1.8170    0.5490    0.0000 C   0  0  0  0  0  0  0  0  0  0  0  0
    1.0670    1.8481    0.0000 C   0  0  0  0  0  0  0  0  0  0  0  0
    1.8170    3.1471    0.0000 C   0  0  0  0  0  0  0  0  0  0  0  0
   -0.4330    1.8481    0.0000 C   0  0  0  0  0  0  0  0  0  0  0  0
   -0.7042    2.7941    0.0000 O   0  0  0  0  0  0  0  0  0  0  0  0
   -1.1830    0.5490    0.0000 O   0  0  0  0  0  0  0  0  0  0  0  0
   -0.4330   -0.7500    0.0000 C   0  0  0  0  0  0  0  0  0  0  0  0
   -1.7321   -1.5000    0.0000 C   0  0  0  0  0  0  0  0  0  0  0  0
   -3.0311   -0.7500    0.0000 C   0  0  0  0  0  0  0  0  0  0  0  0
   -4.3301   -1.5000    0.0000 C   0  0  0  0  0  0  0  0  0  0  0  0
   -3.0311    0.7500    0.0000 C   0  0  0  0  0  0  0  0  0  0  0  0
   -4.2704   -0.0950    0.0000 O   0  0  0  0  0  0  0  0  0  0  0  0
   -1.7321    1.5000    0.0000 C   0  0  0  0  0  0  0  0  0  0  0  0
   -1.5085    2.9832    0.0000 C   0  0  0  0  0  0  0  0  0  0  0  0
   -2.5287    4.0828    0.0000 C   0  0  0  0  0  0  0  0  0  0  0  0
   -1.9807    5.4791    0.0000 C   0  0  0  0  0  0  0  0  0  0  0  0
   -0.4975    5.7027    0.0000 O   0  0  0  0  0  0  0  0  0  0  0  0
    0.0505    7.0990    0.0000 C   0  0  0  0  0  0  0  0  0  0  0  0
    1.5338    7.3226    0.0000 C   0  0  0  0  0  0  0  0  0  0  0  0
   -0.8847    8.2718    0.0000 O   0  0  0  0  0  0  0  0  0  0  0  0
   -4.0246    3.9707    0.0000 C   0  0  0  0  0  0  0  0  0  0  0  0
   -4.8695    2.7314    0.0000 C   0  0  0  0  0  0  0  0  0  0  0  0
   -5.5605    4.0627    0.0000 O   0  0  0  0  0  0  0  0  0  0  0  0
   -6.3694    2.7538    0.0000 C   0  0  0  0  0  0  0  0  0  0  0  0
   -7.2328    3.9804    0.0000 O   0  0  0  0  0  0  0  0  0  0  0  0
   -6.8542    1.3343    0.0000 C   0  0  0  0  0  0  0  0  0  0  0  0
   -8.2875    0.8922    0.0000 C   0  0  0  0  0  0  0  0  0  0  0  0
   -5.6540    0.4346    0.0000 C   0  0  0  0  0  0  0  0  0  0  0  0
   -4.4274    1.2980    0.0000 C   0  0  0  0  0  0  0  0  0  0  0  0
   -0.4330    0.7500    0.0000 C   0  0  0  0  0  0  0  0  0  0  0  0
    0.8660    0.0000    0.0000 C   0  0  0  0  0  0  0  0  0  0  0  0
    2.0796    0.8816    0.0000 C   0  0  0  0  0  0  0  0  0  0  0  0
    1.8302   -1.1491    0.0000 C   0  0  0  0  0  0  0  0  0  0  0  0
  1  2  1  0
  2  3  1  0
  3  4  1  6
  3  5  1  0
  5  6  2  0
  5  7  1  0
  8  7  1  1
  8  9  1  0
  9 10  1  0
 10 11  1  1
 10 12  1  0
 12 13  1  1
 12 14  1  0
 14 15  1  1
 15 16  2  0
 16 17  1  0
 17 18  1  0
 18 19  1  0
 19 20  1  0
 19 21  2  0
 16 22  1  0
 22 23  1  0
 23 24  1  6
 23 25  1  0
 25 26  2  0
 25 27  1  0
 27 28  1  0
 27 29  2  0
 30 29  1  6
 14 31  1  0
 31 32  1  6
 32 33  1  0
 32 34  1  0
 31  8  1  0
 32  8  1  0
 30 12  1  0
 30 23  1  0
M  END
>  <id>  (76) 
SANC00282_minRM1.pdb

>  <SMILES>  (76) 
CC[C@@H](C)C(=O)O[C@@]12C[C@@H](C)[C@@]3(O)[C@@H](C=C(COC(C)=O)C[C@]4(O)C(=O)C(C)=C[C@@H]34)[C@@H]1C2(C)C

>  <warheads>  (76) 
ab_unsat_carbonyl:1

>  <n_warheads>  (76) 
1

>  <max_tier>  (76) 
1

>  <pains_flag>  (76) 


>  <MW>  (76) 
474.6

>  <cLogP>  (76) 
3.13

>  <HBD>  (76) 
2

>  <HBA>  (76) 
7

>  <TPSA>  (76) 
110.1

>  <ArRings>  (76) 
0

$$$$
SANC00283_minRM1.pdb
     RDKit          2D

 40 43  0  0  0  0  0  0  0  0999 V2000
    6.2000   -4.3358    0.0000 C   0  0  0  0  0  0  0  0  0  0  0  0
    6.7130   -2.9263    0.0000 C   0  0  0  0  0  0  0  0  0  0  0  0
    5.7488   -1.7772    0.0000 C   0  0  0  0  0  0  0  0  0  0  0  0
    6.2618   -0.3676    0.0000 C   0  0  0  0  0  0  0  0  0  0  0  0
    4.2716   -2.0377    0.0000 C   0  0  0  0  0  0  0  0  0  0  0  0
    3.7586   -3.4472    0.0000 O   0  0  0  0  0  0  0  0  0  0  0  0
    3.3074   -0.8886    0.0000 O   0  0  0  0  0  0  0  0  0  0  0  0
    1.8302   -1.1491    0.0000 C   0  0  0  0  0  0  0  0  0  0  0  0
    0.8660    0.0000    0.0000 C   0  0  0  0  0  0  0  0  0  0  0  0
    1.8302    1.1491    0.0000 C   0  0  0  0  0  0  0  0  0  0  0  0
   -0.4330    0.7500    0.0000 C   0  0  0  0  0  0  0  0  0  0  0  0
   -1.7321    1.5000    0.0000 C   0  0  0  0  0  0  0  0  0  0  0  0
   -1.5085    2.9832    0.0000 C   0  0  0  0  0  0  0  0  0  0  0  0
   -2.5287    4.0828    0.0000 C   0  0  0  0  0  0  0  0  0  0  0  0
   -1.9807    5.4791    0.0000 C   0  0  0  0  0  0  0  0  0  0  0  0
   -0.4975    5.7027    0.0000 O   0  0  0  0  0  0  0  0  0  0  0  0
    0.0505    7.0990    0.0000 C   0  0  0  0  0  0  0  0  0  0  0  0
    1.5338    7.3226    0.0000 C   0  0  0  0  0  0  0  0  0  0  0  0
   -0.8847    8.2718    0.0000 O   0  0  0  0  0  0  0  0  0  0  0  0
   -4.0246    3.9707    0.0000 C   0  0  0  0  0  0  0  0  0  0  0  0
   -4.8695    2.7314    0.0000 C   0  0  0  0  0  0  0  0  0  0  0  0
   -5.5605    4.0627    0.0000 O   0  0  0  0  0  0  0  0  0  0  0  0
   -6.3694    2.7538    0.0000 C   0  0  0  0  0  0  0  0  0  0  0  0
   -7.2328    3.9804    0.0000 O   0  0  0  0  0  0  0  0  0  0  0  0
   -6.8542    1.3343    0.0000 C   0  0  0  0  0  0  0  0  0  0  0  0
   -8.2875    0.8922    0.0000 C   0  0  0  0  0  0  0  0  0  0  0  0
   -5.6540    0.4346    0.0000 C   0  0  0  0  0  0  0  0  0  0  0  0
   -4.4274    1.2980    0.0000 C   0  0  0  0  0  0  0  0  0  0  0  0
   -3.0311    0.7500    0.0000 C   0  0  0  0  0  0  0  0  0  0  0  0
   -4.2704   -0.0950    0.0000 O   0  0  0  0  0  0  0  0  0  0  0  0
   -3.0311   -0.7500    0.0000 C   0  0  0  0  0  0  0  0  0  0  0  0
   -4.3301   -1.5000    0.0000 C   0  0  0  0  0  0  0  0  0  0  0  0
   -1.7321   -1.5000    0.0000 C   0  0  0  0  0  0  0  0  0  0  0  0
   -0.4330   -0.7500    0.0000 C   0  0  0  0  0  0  0  0  0  0  0  0
   -1.1830    0.5490    0.0000 O   0  0  0  0  0  0  0  0  0  0  0  0
   -0.4330    1.8481    0.0000 C   0  0  0  0  0  0  0  0  0  0  0  0
    1.0670    1.8481    0.0000 O   0  0  0  0  0  0  0  0  0  0  0  0
   -1.1830    3.1471    0.0000 C   0  0  0  0  0  0  0  0  0  0  0  0
   -0.4330    4.4462    0.0000 C   0  0  0  0  0  0  0  0  0  0  0  0
   -2.6830    3.1471    0.0000 C   0  0  0  0  0  0  0  0  0  0  0  0
  1  2  1  0
  2  3  2  0
  3  4  1  0
  3  5  1  0
  5  6  2  0
  5  7  1  0
  7  8  1  0
  8  9  1  0
  9 10  1  6
 11  9  1  6
 11 12  1  0
 12 13  1  1
 13 14  2  0
 14 15  1  0
 15 16  1  0
 16 17  1  0
 17 18  1  0
 17 19  2  0
 14 20  1  0
 20 21  1  0
 21 22  1  6
 21 23  1  0
 23 24  2  0
 23 25  1  0
 25 26  1  0
 25 27  2  0
 28 27  1  6
 28 29  1  0
 29 30  1  1
 29 31  1  0
 31 32  1  1
 31 33  1  0
 33 34  1  0
 34 35  1  1
 35 36  1  0
 36 37  2  0
 36 38  1  0
 38 39  1  0
 38 40  1  0
 34  9  1  0
 34 11  1  0
 29 12  1  0
 28 21  1  0
M  END
>  <id>  (77) 
SANC00283_minRM1.pdb

>  <SMILES>  (77) 
C/C=C(/C)C(=O)OC[C@]1(C)[C@H]2[C@@H]3C=C(COC(C)=O)C[C@]4(O)C(=O)C(C)=C[C@H]4[C@@]3(O)[C@H](C)C[C@]21OC(=O)C(C)C

>  <warheads>  (77) 
ab_unsat_carbonyl:2

>  <n_warheads>  (77) 
2

>  <max_tier>  (77) 
1

>  <pains_flag>  (77) 


>  <MW>  (77) 
558.7

>  <cLogP>  (77) 
3.23

>  <HBD>  (77) 
2

>  <HBA>  (77) 
9

>  <TPSA>  (77) 
136.4

>  <ArRings>  (77) 
0

$$$$
SANC00285_minRM1.pdb
     RDKit          2D

 41 44  0  0  0  0  0  0  0  0999 V2000
    6.2000   -4.3358    0.0000 C   0  0  0  0  0  0  0  0  0  0  0  0
    6.7130   -2.9263    0.0000 C   0  0  0  0  0  0  0  0  0  0  0  0
    5.7488   -1.7772    0.0000 C   0  0  0  0  0  0  0  0  0  0  0  0
    6.2618   -0.3676    0.0000 C   0  0  0  0  0  0  0  0  0  0  0  0
    4.2716   -2.0377    0.0000 C   0  0  0  0  0  0  0  0  0  0  0  0
    3.7586   -3.4472    0.0000 O   0  0  0  0  0  0  0  0  0  0  0  0
    3.3074   -0.8886    0.0000 O   0  0  0  0  0  0  0  0  0  0  0  0
    1.8302   -1.1491    0.0000 C   0  0  0  0  0  0  0  0  0  0  0  0
    0.8660    0.0000    0.0000 C   0  0  0  0  0  0  0  0  0  0  0  0
    1.8302    1.1491    0.0000 C   0  0  0  0  0  0  0  0  0  0  0  0
   -0.4330    0.7500    0.0000 C   0  0  0  0  0  0  0  0  0  0  0  0
   -1.7321    1.5000    0.0000 C   0  0  0  0  0  0  0  0  0  0  0  0
   -1.5085    2.9832    0.0000 C   0  0  0  0  0  0  0  0  0  0  0  0
   -2.5287    4.0828    0.0000 C   0  0  0  0  0  0  0  0  0  0  0  0
   -1.9807    5.4791    0.0000 C   0  0  0  0  0  0  0  0  0  0  0  0
   -0.4975    5.7027    0.0000 O   0  0  0  0  0  0  0  0  0  0  0  0
    0.0505    7.0990    0.0000 C   0  0  0  0  0  0  0  0  0  0  0  0
    1.5338    7.3226    0.0000 C   0  0  0  0  0  0  0  0  0  0  0  0
   -0.8847    8.2718    0.0000 O   0  0  0  0  0  0  0  0  0  0  0  0
   -4.0246    3.9707    0.0000 C   0  0  0  0  0  0  0  0  0  0  0  0
   -4.8695    2.7314    0.0000 C   0  0  0  0  0  0  0  0  0  0  0  0
   -5.5605    4.0627    0.0000 O   0  0  0  0  0  0  0  0  0  0  0  0
   -6.3694    2.7538    0.0000 C   0  0  0  0  0  0  0  0  0  0  0  0
   -7.2328    3.9804    0.0000 O   0  0  0  0  0  0  0  0  0  0  0  0
   -6.8542    1.3343    0.0000 C   0  0  0  0  0  0  0  0  0  0  0  0
   -8.2875    0.8922    0.0000 C   0  0  0  0  0  0  0  0  0  0  0  0
   -5.6540    0.4346    0.0000 C   0  0  0  0  0  0  0  0  0  0  0  0
   -4.4274    1.2980    0.0000 C   0  0  0  0  0  0  0  0  0  0  0  0
   -3.0311    0.7500    0.0000 C   0  0  0  0  0  0  0  0  0  0  0  0
   -4.2704   -0.0950    0.0000 O   0  0  0  0  0  0  0  0  0  0  0  0
   -3.0311   -0.7500    0.0000 C   0  0  0  0  0  0  0  0  0  0  0  0
   -4.3301   -1.5000    0.0000 C   0  0  0  0  0  0  0  0  0  0  0  0
   -1.7321   -1.5000    0.0000 C   0  0  0  0  0  0  0  0  0  0  0  0
   -0.4330   -0.7500    0.0000 C   0  0  0  0  0  0  0  0  0  0  0  0
   -1.1830    0.5490    0.0000 O   0  0  0  0  0  0  0  0  0  0  0  0
   -0.4330    1.8481    0.0000 C   0  0  0  0  0  0  0  0  0  0  0  0
    1.0670    1.8481    0.0000 O   0  0  0  0  0  0  0  0  0  0  0  0
   -1.1830    3.1471    0.0000 C   0  0  0  0  0  0  0  0  0  0  0  0
   -0.4330    4.4462    0.0000 C   0  0  0  0  0  0  0  0  0  0  0  0
   -2.6830    3.1471    0.0000 C   0  0  0  0  0  0  0  0  0  0  0  0
   -3.4330    4.4462    0.0000 C   0  0  0  0  0  0  0  0  0  0  0  0
  1  2  1  0
  2  3  2  0
  3  4  1  0
  3  5  1  0
  5  6  2  0
  5  7  1  0
  7  8  1  0
  8  9  1  0
  9 10  1  6
 11  9  1  6
 11 12  1  0
 12 13  1  1
 13 14  2  0
 14 15  1  0
 15 16  1  0
 16 17  1  0
 17 18  1  0
 17 19  2  0
 14 20  1  0
 20 21  1  0
 21 22  1  6
 21 23  1  0
 23 24  2  0
 23 25  1  0
 25 26  1  0
 25 27  2  0
 28 27  1  6
 28 29  1  0
 29 30  1  1
 29 31  1  0
 31 32  1  1
 31 33  1  0
 33 34  1  0
 34 35  1  1
 35 36  1  0
 36 37  2  0
 36 38  1  0
 38 39  1  6
 38 40  1  0
 40 41  1  0
 34  9  1  0
 34 11  1  0
 29 12  1  0
 28 21  1  0
M  END
>  <id>  (78) 
SANC00285_minRM1.pdb

>  <SMILES>  (78) 
C/C=C(/C)C(=O)OC[C@]1(C)[C@H]2[C@@H]3C=C(COC(C)=O)C[C@]4(O)C(=O)C(C)=C[C@H]4[C@@]3(O)[C@H](C)C[C@]21OC(=O)[C@@H](C)CC

>  <warheads>  (78) 
ab_unsat_carbonyl:2

>  <n_warheads>  (78) 
2

>  <max_tier>  (78) 
1

>  <pains_flag>  (78) 


>  <MW>  (78) 
572.7

>  <cLogP>  (78) 
3.62

>  <HBD>  (78) 
2

>  <HBA>  (78) 
9

>  <TPSA>  (78) 
136.4

>  <ArRings>  (78) 
0

$$$$
SANC00292_minRM1.pdb
     RDKit          2D

 44 47  0  0  0  0  0  0  0  0999 V2000
   -3.0000   -2.5981    0.0000 C   0  0  0  0  0  0  0  0  0  0  0  0
   -1.5000   -2.5981    0.0000 O   0  0  0  0  0  0  0  0  0  0  0  0
   -0.7500   -3.8971    0.0000 C   0  0  0  0  0  0  0  0  0  0  0  0
    0.7500   -3.8971    0.0000 C   0  0  0  0  0  0  0  0  0  0  0  0
    1.5000   -2.5981    0.0000 O   0  0  0  0  0  0  0  0  0  0  0  0
    0.7500   -1.2990    0.0000 C   0  0  0  0  0  0  0  0  0  0  0  0
    1.5000    0.0000    0.0000 C   0  0  0  0  0  0  0  0  0  0  0  0
    0.7500    1.2990    0.0000 C   0  0  0  0  0  0  0  0  0  0  0  0
    1.5950    2.5384    0.0000 C   0  0  0  0  0  0  0  0  0  0  0  0
    2.0371    3.9718    0.0000 C   0  0  0  0  0  0  0  0  0  0  0  0
    1.5950    5.4051    0.0000 C   0  0  0  0  0  0  0  0  0  0  0  0
    1.5950    6.9051    0.0000 C   0  0  0  0  0  0  0  0  0  0  0  0
    3.0782    7.1287    0.0000 O   0  0  0  0  0  0  0  0  0  0  0  0
    0.7500    8.1445    0.0000 O   0  0  0  0  0  0  0  0  0  0  0  0
   -0.4227    9.0797    0.0000 C   0  0  0  0  0  0  0  0  0  0  0  0
    0.3273   10.3787    0.0000 C   0  0  0  0  0  0  0  0  0  0  0  0
    1.8273   10.3787    0.0000 O   0  0  0  0  0  0  0  0  0  0  0  0
   -1.8191    9.6277    0.0000 C   0  0  0  0  0  0  0  0  0  0  0  0
   -3.3149    9.7398    0.0000 C   0  0  0  0  0  0  0  0  0  0  0  0
   -3.4270   11.2356    0.0000 O   0  0  0  0  0  0  0  0  0  0  0  0
   -4.7773    9.4060    0.0000 C   0  0  0  0  0  0  0  0  0  0  0  0
   -6.0291   10.2324    0.0000 C   0  0  0  0  0  0  0  0  0  0  0  0
   -7.2019    9.2971    0.0000 C   0  0  0  0  0  0  0  0  0  0  0  0
   -8.6478    9.6962    0.0000 C   0  0  0  0  0  0  0  0  0  0  0  0
   -7.0966    7.5565    0.0000 C   0  0  0  0  0  0  0  0  0  0  0  0
   -7.7474    6.2050    0.0000 C   0  0  0  0  0  0  0  0  0  0  0  0
   -7.9709    4.7218    0.0000 C   0  0  0  0  0  0  0  0  0  0  0  0
   -7.7474    3.2385    0.0000 C   0  0  0  0  0  0  0  0  0  0  0  0
   -7.0966    1.8871    0.0000 C   0  0  0  0  0  0  0  0  0  0  0  0
   -5.7975    1.1371    0.0000 C   0  0  0  0  0  0  0  0  0  0  0  0
   -4.7773    0.0375    0.0000 C   0  0  0  0  0  0  0  0  0  0  0  0
   -5.7125   -1.1353    0.0000 C   0  0  0  0  0  0  0  0  0  0  0  0
   -3.3149   -0.2963    0.0000 C   0  0  0  0  0  0  0  0  0  0  0  0
   -1.5000    0.0000    0.0000 C   0  0  0  0  0  0  0  0  0  0  0  0
   -0.7500   -1.2990    0.0000 C   0  0  0  0  0  0  0  0  0  0  0  0
   -0.7500    1.2990    0.0000 O   0  0  0  0  0  0  0  0  0  0  0  0
   -6.0763    8.6560    0.0000 O   0  0  0  0  0  0  0  0  0  0  0  0
    1.5000   -5.1962    0.0000 O   0  0  0  0  0  0  0  0  0  0  0  0
    0.7500   -6.4952    0.0000 C   0  0  0  0  0  0  0  0  0  0  0  0
    1.5000   -7.7942    0.0000 C   0  0  0  0  0  0  0  0  0  0  0  0
   -0.7500   -6.4952    0.0000 C   0  0  0  0  0  0  0  0  0  0  0  0
   -1.5000   -7.7942    0.0000 O   0  0  0  0  0  0  0  0  0  0  0  0
   -1.5000   -5.1962    0.0000 C   0  0  0  0  0  0  0  0  0  0  0  0
   -3.0000   -5.1962    0.0000 O   0  0  0  0  0  0  0  0  0  0  0  0
  1  2  1  0
  3  2  1  1
  3  4  1  0
  4  5  1  6
  6  5  1  1
  6  7  1  0
  8  7  1  1
  8  9  1  0
  9 10  1  0
 10 11  2  0
 11 12  1  0
 12 13  2  0
 12 14  1  0
 14 15  1  0
 15 16  1  6
 16 17  1  0
 15 18  1  0
 18 19  1  0
 19 20  1  6
 19 21  1  0
 21 22  1  6
 22 23  1  0
 23 24  1  6
 23 25  1  0
 25 26  1  6
 26 27  1  0
 27 28  2  0
 28 29  1  0
 29 30  2  0
 30 31  1  0
 31 32  1  1
 31 33  1  0
 34 33  1  1
 34 35  1  0
 34 36  1  0
 25 37  1  0
  4 38  1  0
 38 39  1  0
 39 40  1  1
 39 41  1  0
 41 42  1  6
 41 43  1  0
 43 44  1  1
 43  3  1  0
 35  6  1  0
 36  8  1  0
 37 21  1  0
M  END
>  <id>  (79) 
SANC00292_minRM1.pdb

>  <SMILES>  (79) 
CO[C@H]1[C@H](O[C@@H]2C[C@@H]3C/C=C/C(=O)O[C@@H](CO)C[C@@H](O)[C@H]4C[C@@H](C)[C@@H](C/C=C\C=C\[C@H](C)C[C@H](C2)O3)O4)O[C@@H](C)[C@H](O)[C@H]1O

>  <warheads>  (79) 
ab_unsat_carbonyl:1

>  <n_warheads>  (79) 
1

>  <max_tier>  (79) 
1

>  <pains_flag>  (79) 


>  <MW>  (79) 
624.8

>  <cLogP>  (79) 
2.34

>  <HBD>  (79) 
4

>  <HBA>  (79) 
11

>  <TPSA>  (79) 
153.4

>  <ArRings>  (79) 
0

$$$$
SANC00297_minRM1.pdb
     RDKit          2D

 18 19  0  0  0  0  0  0  0  0999 V2000
    3.0000    0.0000    0.0000 C   0  0  0  0  0  0  0  0  0  0  0  0
    1.5000    0.0000    0.0000 C   0  0  0  0  0  0  0  0  0  0  0  0
    0.7500   -1.2990    0.0000 C   0  0  0  0  0  0  0  0  0  0  0  0
    1.5000   -2.5981    0.0000 C   0  0  0  0  0  0  0  0  0  0  0  0
   -0.7500   -1.2990    0.0000 C   0  0  0  0  0  0  0  0  0  0  0  0
   -1.5000    0.0000    0.0000 C   0  0  0  0  0  0  0  0  0  0  0  0
   -0.7500    1.2990    0.0000 C   0  0  0  0  0  0  0  0  0  0  0  0
   -2.2054    0.9361    0.0000 C   0  0  0  0  0  0  0  0  0  0  0  0
    0.7500    1.2990    0.0000 C   0  0  0  0  0  0  0  0  0  0  0  0
    1.5000    2.5981    0.0000 C   0  0  0  0  0  0  0  0  0  0  0  0
    0.7500    3.8971    0.0000 C   0  0  0  0  0  0  0  0  0  0  0  0
   -0.7500    3.8971    0.0000 C   0  0  0  0  0  0  0  0  0  0  0  0
   -1.5000    5.1962    0.0000 C   0  0  0  0  0  0  0  0  0  0  0  0
   -0.7500    6.4952    0.0000 O   0  0  0  0  0  0  0  0  0  0  0  0
   -1.5000    2.5981    0.0000 C   0  0  0  0  0  0  0  0  0  0  0  0
   -2.6491    3.5623    0.0000 O   0  0  0  0  0  0  0  0  0  0  0  0
   -2.6491    1.6339    0.0000 C   0  0  0  0  0  0  0  0  0  0  0  0
   -4.0586    2.1469    0.0000 O   0  0  0  0  0  0  0  0  0  0  0  0
  1  2  2  0
  2  3  1  0
  3  4  1  1
  3  5  1  0
  5  6  1  0
  6  7  1  0
  7  8  1  1
  7  9  1  0
  9 10  1  1
 10 11  1  0
 11 12  2  0
 12 13  1  0
 13 14  2  0
 12 15  1  0
 15 16  1  6
 15 17  1  0
 17 18  2  0
  9  2  1  0
 15  7  1  0
M  END
>  <id>  (80) 
SANC00297_minRM1.pdb

>  <SMILES>  (80) 
C=C1[C@@H](C)CC[C@@]2(C)[C@H]1CC=C(C=O)[C@]2(O)C=O

>  <warheads>  (80) 
ab_unsat_carbonyl:1

>  <n_warheads>  (80) 
1

>  <max_tier>  (80) 
1

>  <pains_flag>  (80) 


>  <MW>  (80) 
248.3

>  <cLogP>  (80) 
2.05

>  <HBD>  (80) 
1

>  <HBA>  (80) 
3

>  <TPSA>  (80) 
54.4

>  <ArRings>  (80) 
0

$$$$
SANC00298_minRM1.pdb
     RDKit          2D

 26 29  0  0  0  0  0  0  0  0999 V2000
   -0.5917    7.5619    0.0000 C   0  0  0  0  0  0  0  0  0  0  0  0
    0.4964    6.5294    0.0000 C   0  0  0  0  0  0  0  0  0  0  0  0
    1.9346    6.9554    0.0000 C   0  0  0  0  0  0  0  0  0  0  0  0
    0.1462    5.0708    0.0000 C   0  0  0  0  0  0  0  0  0  0  0  0
    1.2343    4.0383    0.0000 O   0  0  0  0  0  0  0  0  0  0  0  0
   -1.2920    4.6448    0.0000 O   0  0  0  0  0  0  0  0  0  0  0  0
   -1.6422    3.1862    0.0000 C   0  0  0  0  0  0  0  0  0  0  0  0
   -0.3632    2.4025    0.0000 C   0  0  0  0  0  0  0  0  0  0  0  0
   -0.4330    0.7500    0.0000 C   0  0  0  0  0  0  0  0  0  0  0  0
    0.8660    0.0000    0.0000 O   0  0  0  0  0  0  0  0  0  0  0  0
   -0.4330   -0.7500    0.0000 C   0  0  0  0  0  0  0  0  0  0  0  0
   -1.4937   -1.8107    0.0000 C   0  0  0  0  0  0  0  0  0  0  0  0
   -2.9937   -1.8107    0.0000 C   0  0  0  0  0  0  0  0  0  0  0  0
   -4.0543   -0.7500    0.0000 C   0  0  0  0  0  0  0  0  0  0  0  0
   -3.7042    0.7086    0.0000 C   0  0  0  0  0  0  0  0  0  0  0  0
   -4.2782    2.0944    0.0000 C   0  0  0  0  0  0  0  0  0  0  0  0
   -5.5572    2.8781    0.0000 O   0  0  0  0  0  0  0  0  0  0  0  0
   -5.2070    4.3367    0.0000 C   0  0  0  0  0  0  0  0  0  0  0  0
   -6.1812    5.4773    0.0000 O   0  0  0  0  0  0  0  0  0  0  0  0
   -3.7116    4.4544    0.0000 C   0  0  0  0  0  0  0  0  0  0  0  0
   -2.9279    5.7333    0.0000 C   0  0  0  0  0  0  0  0  0  0  0  0
   -3.1376    3.0685    0.0000 C   0  0  0  0  0  0  0  0  0  0  0  0
   -3.3631   -0.2165    0.0000 C   0  0  0  0  0  0  0  0  0  0  0  0
   -2.4579    0.5172    0.0000 O   0  0  0  0  0  0  0  0  0  0  0  0
   -1.2991    0.6385    0.0000 C   0  0  0  0  0  0  0  0  0  0  0  0
   -1.2813    2.3809    0.0000 O   0  0  0  0  0  0  0  0  0  0  0  0
  1  2  2  0
  2  3  1  0
  2  4  1  0
  4  5  2  0
  4  6  1  0
  7  6  1  1
  7  8  1  0
  8  9  1  0
  9 10  1  6
 11 10  1  6
 11 12  1  0
 12 13  1  0
 13 14  1  0
 14 15  2  0
 15 16  1  0
 16 17  1  1
 17 18  1  0
 18 19  2  0
 18 20  1  0
 20 21  1  1
 22 20  1  6
 14 23  1  0
 23 24  1  0
 24 25  1  0
 25 26  1  1
 22  7  1  0
 11  9  1  0
 22 16  1  0
 25  9  1  0
M  END
>  <id>  (81) 
SANC00298_minRM1.pdb

>  <SMILES>  (81) 
C=C(C)C(=O)O[C@H]1C[C@@]23O[C@@H]2CC/C(=C/[C@H]2OC(=O)[C@@H](C)[C@H]12)CO[C@@H]3O

>  <warheads>  (81) 
ab_unsat_carbonyl:1;exo_methylene_carbonyl:1

>  <n_warheads>  (81) 
2

>  <max_tier>  (81) 
1

>  <pains_flag>  (81) 


>  <MW>  (81) 
364.4

>  <cLogP>  (81) 
1.25

>  <HBD>  (81) 
1

>  <HBA>  (81) 
7

>  <TPSA>  (81) 
94.6

>  <ArRings>  (81) 
0

$$$$
SANC00299_minRM1.pdb
     RDKit          2D

 26 28  0  0  0  0  0  0  0  0999 V2000
    3.0000   -2.5981    0.0000 C   0  0  0  0  0  0  0  0  0  0  0  0
    2.2500   -1.2990    0.0000 C   0  0  0  0  0  0  0  0  0  0  0  0
    0.7500   -1.2990    0.0000 C   0  0  0  0  0  0  0  0  0  0  0  0
    1.5000    0.0000    0.0000 C   0  0  0  0  0  0  0  0  0  0  0  0
    0.7500    1.2990    0.0000 O   0  0  0  0  0  0  0  0  0  0  0  0
   -0.7500    1.2990    0.0000 C   0  0  0  0  0  0  0  0  0  0  0  0
   -1.5000    2.5981    0.0000 O   0  0  0  0  0  0  0  0  0  0  0  0
   -1.5000    0.0000    0.0000 C   0  0  0  0  0  0  0  0  0  0  0  0
   -3.0000    0.0000    0.0000 C   0  0  0  0  0  0  0  0  0  0  0  0
   -0.7500   -1.2990    0.0000 C   0  0  0  0  0  0  0  0  0  0  0  0
   -1.5000   -2.5981    0.0000 C   0  0  0  0  0  0  0  0  0  0  0  0
   -2.9672   -2.9099    0.0000 O   0  0  0  0  0  0  0  0  0  0  0  0
   -3.1240   -4.4017    0.0000 C   0  0  0  0  0  0  0  0  0  0  0  0
   -4.4231   -5.1517    0.0000 O   0  0  0  0  0  0  0  0  0  0  0  0
   -1.7537   -5.0118    0.0000 C   0  0  0  0  0  0  0  0  0  0  0  0
   -1.4418   -6.4791    0.0000 C   0  0  0  0  0  0  0  0  0  0  0  0
   -0.7500   -3.8971    0.0000 C   0  0  0  0  0  0  0  0  0  0  0  0
    0.7500   -3.8971    0.0000 C   0  0  0  0  0  0  0  0  0  0  0  0
    1.5000   -5.1962    0.0000 O   0  0  0  0  0  0  0  0  0  0  0  0
    3.0000   -5.1962    0.0000 C   0  0  0  0  0  0  0  0  0  0  0  0
    3.7500   -3.8971    0.0000 O   0  0  0  0  0  0  0  0  0  0  0  0
    3.7500   -6.4952    0.0000 C   0  0  0  0  0  0  0  0  0  0  0  0
    5.2500   -6.4952    0.0000 C   0  0  0  0  0  0  0  0  0  0  0  0
    3.0000   -7.7942    0.0000 C   0  0  0  0  0  0  0  0  0  0  0  0
    3.7500   -9.0933    0.0000 O   0  0  0  0  0  0  0  0  0  0  0  0
    1.5000   -2.5981    0.0000 C   0  0  0  0  0  0  0  0  0  0  0  0
  1  2  2  0
  3  2  1  6
  3  4  1  0
  4  5  1  0
  5  6  1  0
  6  7  2  0
  6  8  1  0
  8  9  2  0
 10  8  1  1
 10 11  1  0
 11 12  1  6
 12 13  1  0
 13 14  2  0
 13 15  1  0
 15 16  2  0
 17 15  1  1
 17 18  1  0
 18 19  1  6
 19 20  1  0
 20 21  2  0
 20 22  1  0
 22 23  2  0
 22 24  1  0
 24 25  1  0
 18 26  1  0
 10  3  1  0
 17 11  1  0
 26  3  1  0
M  END
>  <id>  (82) 
SANC00299_minRM1.pdb

>  <SMILES>  (82) 
C=C[C@@]12COC(=O)C(=C)[C@@H]1[C@H]1OC(=O)C(=C)[C@@H]1[C@@H](OC(=O)C(=C)CO)C2

>  <warheads>  (82) 
ab_unsat_carbonyl:3;exo_methylene_carbonyl:3

>  <n_warheads>  (82) 
6

>  <max_tier>  (82) 
1

>  <pains_flag>  (82) 


>  <MW>  (82) 
360.4

>  <cLogP>  (82) 
0.85

>  <HBD>  (82) 
1

>  <HBA>  (82) 
7

>  <TPSA>  (82) 
99.1

>  <ArRings>  (82) 
0

$$$$
SANC00300_minRM1.pdb
     RDKit          2D

 26 29  0  0  0  0  0  0  0  0999 V2000
   -0.5917    7.5619    0.0000 C   0  0  0  0  0  0  0  0  0  0  0  0
    0.4964    6.5294    0.0000 C   0  0  0  0  0  0  0  0  0  0  0  0
    1.9346    6.9554    0.0000 C   0  0  0  0  0  0  0  0  0  0  0  0
    0.1462    5.0708    0.0000 C   0  0  0  0  0  0  0  0  0  0  0  0
    1.2343    4.0383    0.0000 O   0  0  0  0  0  0  0  0  0  0  0  0
   -1.2920    4.6448    0.0000 O   0  0  0  0  0  0  0  0  0  0  0  0
   -1.6422    3.1862    0.0000 C   0  0  0  0  0  0  0  0  0  0  0  0
   -0.3632    2.4025    0.0000 C   0  0  0  0  0  0  0  0  0  0  0  0
   -0.4330    0.7500    0.0000 C   0  0  0  0  0  0  0  0  0  0  0  0
    0.8660    0.0000    0.0000 O   0  0  0  0  0  0  0  0  0  0  0  0
   -0.4330   -0.7500    0.0000 C   0  0  0  0  0  0  0  0  0  0  0  0
   -1.4937   -1.8107    0.0000 C   0  0  0  0  0  0  0  0  0  0  0  0
   -2.9937   -1.8107    0.0000 C   0  0  0  0  0  0  0  0  0  0  0  0
   -4.0543   -0.7500    0.0000 C   0  0  0  0  0  0  0  0  0  0  0  0
   -3.7042    0.7086    0.0000 C   0  0  0  0  0  0  0  0  0  0  0  0
   -4.2782    2.0944    0.0000 C   0  0  0  0  0  0  0  0  0  0  0  0
   -5.5572    2.8781    0.0000 O   0  0  0  0  0  0  0  0  0  0  0  0
   -5.2070    4.3367    0.0000 C   0  0  0  0  0  0  0  0  0  0  0  0
   -6.1812    5.4773    0.0000 O   0  0  0  0  0  0  0  0  0  0  0  0
   -3.7116    4.4544    0.0000 C   0  0  0  0  0  0  0  0  0  0  0  0
   -2.9279    5.7333    0.0000 C   0  0  0  0  0  0  0  0  0  0  0  0
   -3.1376    3.0685    0.0000 C   0  0  0  0  0  0  0  0  0  0  0  0
   -3.3631   -0.2165    0.0000 C   0  0  0  0  0  0  0  0  0  0  0  0
   -2.4579    0.5172    0.0000 O   0  0  0  0  0  0  0  0  0  0  0  0
   -1.2991    0.6385    0.0000 C   0  0  0  0  0  0  0  0  0  0  0  0
   -1.2813    2.3809    0.0000 O   0  0  0  0  0  0  0  0  0  0  0  0
  1  2  2  0
  2  3  1  0
  2  4  1  0
  4  5  2  0
  4  6  1  0
  7  6  1  1
  7  8  1  0
  8  9  1  0
  9 10  1  6
 11 10  1  6
 11 12  1  0
 12 13  1  0
 13 14  1  0
 14 15  2  0
 15 16  1  0
 16 17  1  1
 17 18  1  0
 18 19  2  0
 18 20  1  0
 20 21  2  0
 22 20  1  6
 14 23  1  0
 23 24  1  0
 24 25  1  0
 25 26  1  1
 22  7  1  0
 11  9  1  0
 22 16  1  0
 25  9  1  0
M  END
>  <id>  (83) 
SANC00300_minRM1.pdb

>  <SMILES>  (83) 
C=C(C)C(=O)O[C@H]1C[C@@]23O[C@@H]2CC/C(=C/[C@H]2OC(=O)C(=C)[C@H]12)CO[C@@H]3O

>  <warheads>  (83) 
ab_unsat_carbonyl:2;exo_methylene_carbonyl:2

>  <n_warheads>  (83) 
4

>  <max_tier>  (83) 
1

>  <pains_flag>  (83) 


>  <MW>  (83) 
362.4

>  <cLogP>  (83) 
1.17

>  <HBD>  (83) 
1

>  <HBA>  (83) 
7

>  <TPSA>  (83) 
94.6

>  <ArRings>  (83) 
0

$$$$
SANC00306_minRM1.pdb
     RDKit          2D

 23 25  0  0  0  0  0  0  0  0999 V2000
    3.7500   -1.2990    0.0000 C   0  0  0  0  0  0  0  0  0  0  0  0
    3.0000    0.0000    0.0000 O   0  0  0  0  0  0  0  0  0  0  0  0
    1.5000    0.0000    0.0000 C   0  0  0  0  0  0  0  0  0  0  0  0
    0.7500   -1.2990    0.0000 C   0  0  0  0  0  0  0  0  0  0  0  0
   -0.7500   -1.2990    0.0000 C   0  0  0  0  0  0  0  0  0  0  0  0
   -1.5000    0.0000    0.0000 C   0  0  0  0  0  0  0  0  0  0  0  0
   -3.0000    0.0000    0.0000 C   0  0  0  0  0  0  0  0  0  0  0  0
   -3.7500    1.2990    0.0000 C   0  0  0  0  0  0  0  0  0  0  0  0
   -3.1399    2.6694    0.0000 O   0  0  0  0  0  0  0  0  0  0  0  0
   -4.2546    3.6731    0.0000 C   0  0  0  0  0  0  0  0  0  0  0  0
   -4.0978    5.1648    0.0000 O   0  0  0  0  0  0  0  0  0  0  0  0
   -5.5537    2.9231    0.0000 C   0  0  0  0  0  0  0  0  0  0  0  0
   -5.2418    1.4558    0.0000 C   0  0  0  0  0  0  0  0  0  0  0  0
   -6.2455    0.3411    0.0000 C   0  0  0  0  0  0  0  0  0  0  0  0
   -7.7127    0.6530    0.0000 C   0  0  0  0  0  0  0  0  0  0  0  0
   -8.7164   -0.4617    0.0000 C   0  0  0  0  0  0  0  0  0  0  0  0
   -8.2529   -1.8883    0.0000 C   0  0  0  0  0  0  0  0  0  0  0  0
   -9.2566   -3.0030    0.0000 O   0  0  0  0  0  0  0  0  0  0  0  0
   -6.7856   -2.2002    0.0000 C   0  0  0  0  0  0  0  0  0  0  0  0
   -5.7820   -1.0855    0.0000 C   0  0  0  0  0  0  0  0  0  0  0  0
   -0.7500    1.2990    0.0000 C   0  0  0  0  0  0  0  0  0  0  0  0
    0.7500    1.2990    0.0000 C   0  0  0  0  0  0  0  0  0  0  0  0
    1.5000    2.5981    0.0000 Br  0  0  0  0  0  0  0  0  0  0  0  0
  1  2  1  0
  2  3  1  0
  3  4  2  0
  4  5  1  0
  5  6  2  0
  6  7  1  0
  7  8  2  0
  8  9  1  0
  9 10  1  0
 10 11  2  0
 10 12  1  0
 12 13  2  0
 13 14  1  0
 14 15  2  0
 15 16  1  0
 16 17  2  0
 17 18  1  0
 17 19  1  0
 19 20  2  0
  6 21  1  0
 21 22  2  0
 22 23  1  0
 22  3  1  0
 13  8  1  0
 20 14  1  0
M  END
>  <id>  (84) 
SANC00306_minRM1.pdb

>  <SMILES>  (84) 
COc1ccc(/C=C2\OC(=O)C=C2c2ccc(O)cc2)cc1Br

>  <warheads>  (84) 
ab_unsat_carbonyl:1

>  <n_warheads>  (84) 
1

>  <max_tier>  (84) 
1

>  <pains_flag>  (84) 


>  <MW>  (84) 
373.2

>  <cLogP>  (84) 
4.14

>  <HBD>  (84) 
1

>  <HBA>  (84) 
4

>  <TPSA>  (84) 
55.8

>  <ArRings>  (84) 
2

$$$$
SANC00307_minRM1.pdb
     RDKit          2D

 22 24  0  0  0  0  0  0  0  0999 V2000
    4.6740   -4.8322    0.0000 O   0  0  0  0  0  0  0  0  0  0  0  0
    3.3037   -4.2221    0.0000 C   0  0  0  0  0  0  0  0  0  0  0  0
    2.9918   -2.7549    0.0000 C   0  0  0  0  0  0  0  0  0  0  0  0
    1.5000   -2.5981    0.0000 C   0  0  0  0  0  0  0  0  0  0  0  0
    0.7500   -1.2990    0.0000 C   0  0  0  0  0  0  0  0  0  0  0  0
    1.5000    0.0000    0.0000 C   0  0  0  0  0  0  0  0  0  0  0  0
    0.7500    1.2990    0.0000 C   0  0  0  0  0  0  0  0  0  0  0  0
   -0.7500    1.2990    0.0000 C   0  0  0  0  0  0  0  0  0  0  0  0
   -1.5000    2.5981    0.0000 O   0  0  0  0  0  0  0  0  0  0  0  0
   -1.5000    0.0000    0.0000 C   0  0  0  0  0  0  0  0  0  0  0  0
   -3.0000    0.0000    0.0000 Br  0  0  0  0  0  0  0  0  0  0  0  0
   -0.7500   -1.2990    0.0000 C   0  0  0  0  0  0  0  0  0  0  0  0
    0.8899   -3.9684    0.0000 C   0  0  0  0  0  0  0  0  0  0  0  0
   -0.5773   -4.2803    0.0000 C   0  0  0  0  0  0  0  0  0  0  0  0
   -1.0409   -5.7068    0.0000 C   0  0  0  0  0  0  0  0  0  0  0  0
   -2.5081   -6.0187    0.0000 C   0  0  0  0  0  0  0  0  0  0  0  0
   -2.9716   -7.4453    0.0000 C   0  0  0  0  0  0  0  0  0  0  0  0
   -1.9679   -8.5600    0.0000 C   0  0  0  0  0  0  0  0  0  0  0  0
   -2.4314   -9.9866    0.0000 O   0  0  0  0  0  0  0  0  0  0  0  0
   -0.5007   -8.2481    0.0000 C   0  0  0  0  0  0  0  0  0  0  0  0
   -0.0372   -6.8216    0.0000 C   0  0  0  0  0  0  0  0  0  0  0  0
    2.0046   -4.9721    0.0000 O   0  0  0  0  0  0  0  0  0  0  0  0
  1  2  2  0
  2  3  1  0
  3  4  2  0
  4  5  1  0
  5  6  2  0
  6  7  1  0
  7  8  2  0
  8  9  1  0
  8 10  1  0
 10 11  1  0
 10 12  2  0
  4 13  1  0
 13 14  2  0
 14 15  1  0
 15 16  2  0
 16 17  1  0
 17 18  2  0
 18 19  1  0
 18 20  1  0
 20 21  2  0
 13 22  1  0
 22  2  1  0
 12  5  1  0
 21 15  1  0
M  END
>  <id>  (85) 
SANC00307_minRM1.pdb

>  <SMILES>  (85) 
O=C1C=C(c2ccc(O)c(Br)c2)/C(=C/c2ccc(O)cc2)O1

>  <warheads>  (85) 
ab_unsat_carbonyl:1

>  <n_warheads>  (85) 
1

>  <max_tier>  (85) 
1

>  <pains_flag>  (85) 


>  <MW>  (85) 
359.2

>  <cLogP>  (85) 
3.84

>  <HBD>  (85) 
2

>  <HBA>  (85) 
4

>  <TPSA>  (85) 
66.8

>  <ArRings>  (85) 
2

$$$$
SANC00308_minRM1.pdb
     RDKit          2D

 24 28  0  0  0  0  0  0  0  0999 V2000
   -4.0034    2.5242    0.0000 C   0  0  0  0  0  0  0  0  0  0  0  0
   -3.0682    1.3515    0.0000 C   0  0  0  0  0  0  0  0  0  0  0  0
   -1.6058    1.6852    0.0000 C   0  0  0  0  0  0  0  0  0  0  0  0
   -0.4330    0.7500    0.0000 C   0  0  0  0  0  0  0  0  0  0  0  0
    0.8660    0.0000    0.0000 C   0  0  0  0  0  0  0  0  0  0  0  0
    1.8302    1.1491    0.0000 C   0  0  0  0  0  0  0  0  0  0  0  0
    1.8302   -1.1491    0.0000 C   0  0  0  0  0  0  0  0  0  0  0  0
   -0.4330   -0.7500    0.0000 C   0  0  0  0  0  0  0  0  0  0  0  0
    0.8188   -1.5763    0.0000 O   0  0  0  0  0  0  0  0  0  0  0  0
    0.4198   -3.0223    0.0000 C   0  0  0  0  0  0  0  0  0  0  0  0
    1.3550   -4.1950    0.0000 C   0  0  0  0  0  0  0  0  0  0  0  0
   -1.6002   -3.4951    0.0000 C   0  0  0  0  0  0  0  0  0  0  0  0
   -2.9530   -2.8470    0.0000 C   0  0  0  0  0  0  0  0  0  0  0  0
   -4.3397   -3.4187    0.0000 C   0  0  0  0  0  0  0  0  0  0  0  0
   -4.6924   -4.8767    0.0000 O   0  0  0  0  0  0  0  0  0  0  0  0
   -5.3120   -2.2765    0.0000 C   0  0  0  0  0  0  0  0  0  0  0  0
   -6.8076   -2.3917    0.0000 C   0  0  0  0  0  0  0  0  0  0  0  0
   -4.5261   -0.9988    0.0000 C   0  0  0  0  0  0  0  0  0  0  0  0
   -3.0682   -1.3515    0.0000 C   0  0  0  0  0  0  0  0  0  0  0  0
   -3.7190    0.0000    0.0000 C   0  0  0  0  0  0  0  0  0  0  0  0
   -5.2190    0.0000    0.0000 O   0  0  0  0  0  0  0  0  0  0  0  0
   -1.6058   -1.6852    0.0000 C   0  0  0  0  0  0  0  0  0  0  0  0
   -0.6931   -2.5054    0.0000 C   0  0  0  0  0  0  0  0  0  0  0  0
   -1.9050   -4.3414    0.0000 O   0  0  0  0  0  0  0  0  0  0  0  0
  2  1  1  6
  2  3  1  0
  4  3  1  1
  4  5  1  0
  5  6  1  0
  5  7  1  0
  5  8  1  0
  8  9  1  6
  9 10  1  0
 10 11  1  1
 10 12  1  0
 12 13  2  0
 13 14  1  0
 14 15  2  0
 14 16  1  0
 16 17  1  1
 16 18  1  0
 19 18  1  1
 19 20  1  0
 20 21  2  0
 22 19  1  6
 22 23  1  0
 23 24  1  6
 20  2  1  0
  8  4  1  0
 23 10  1  0
 22  8  1  0
 19 13  1  0
M  END
>  <id>  (86) 
SANC00308_minRM1.pdb

>  <SMILES>  (86) 
C[C@@H]1C[C@H]2C(C)(C)[C@]23O[C@]2(C)C=C4C(=O)[C@@H](C)C[C@@]4(C1=O)[C@H]3[C@H]2O

>  <warheads>  (86) 
ab_unsat_carbonyl:1

>  <n_warheads>  (86) 
1

>  <max_tier>  (86) 
1

>  <pains_flag>  (86) 


>  <MW>  (86) 
330.4

>  <cLogP>  (86) 
2.29

>  <HBD>  (86) 
1

>  <HBA>  (86) 
4

>  <TPSA>  (86) 
63.6

>  <ArRings>  (86) 
0

$$$$
SANC00309_minRM1.pdb
     RDKit          2D

 23 25  0  0  0  0  0  0  0  0999 V2000
    3.7500   -1.2990    0.0000 C   0  0  0  0  0  0  0  0  0  0  0  0
    3.0000    0.0000    0.0000 O   0  0  0  0  0  0  0  0  0  0  0  0
    1.5000    0.0000    0.0000 C   0  0  0  0  0  0  0  0  0  0  0  0
    0.7500   -1.2990    0.0000 C   0  0  0  0  0  0  0  0  0  0  0  0
   -0.7500   -1.2990    0.0000 C   0  0  0  0  0  0  0  0  0  0  0  0
   -1.5000    0.0000    0.0000 C   0  0  0  0  0  0  0  0  0  0  0  0
   -3.0000    0.0000    0.0000 C   0  0  0  0  0  0  0  0  0  0  0  0
   -3.7500    1.2990    0.0000 C   0  0  0  0  0  0  0  0  0  0  0  0
   -3.1399    2.6694    0.0000 O   0  0  0  0  0  0  0  0  0  0  0  0
   -4.2546    3.6731    0.0000 C   0  0  0  0  0  0  0  0  0  0  0  0
   -4.0978    5.1648    0.0000 O   0  0  0  0  0  0  0  0  0  0  0  0
   -5.5537    2.9231    0.0000 C   0  0  0  0  0  0  0  0  0  0  0  0
   -5.2418    1.4558    0.0000 C   0  0  0  0  0  0  0  0  0  0  0  0
   -6.2455    0.3411    0.0000 C   0  0  0  0  0  0  0  0  0  0  0  0
   -7.7127    0.6530    0.0000 C   0  0  0  0  0  0  0  0  0  0  0  0
   -8.7164   -0.4617    0.0000 C   0  0  0  0  0  0  0  0  0  0  0  0
   -8.2529   -1.8883    0.0000 C   0  0  0  0  0  0  0  0  0  0  0  0
   -9.2566   -3.0030    0.0000 O   0  0  0  0  0  0  0  0  0  0  0  0
   -6.7856   -2.2002    0.0000 C   0  0  0  0  0  0  0  0  0  0  0  0
   -6.3221   -3.6268    0.0000 Br  0  0  0  0  0  0  0  0  0  0  0  0
   -5.7820   -1.0855    0.0000 C   0  0  0  0  0  0  0  0  0  0  0  0
   -0.7500    1.2990    0.0000 C   0  0  0  0  0  0  0  0  0  0  0  0
    0.7500    1.2990    0.0000 C   0  0  0  0  0  0  0  0  0  0  0  0
  1  2  1  0
  2  3  1  0
  3  4  2  0
  4  5  1  0
  5  6  2  0
  6  7  1  0
  7  8  2  0
  8  9  1  0
  9 10  1  0
 10 11  2  0
 10 12  1  0
 12 13  2  0
 13 14  1  0
 14 15  2  0
 15 16  1  0
 16 17  2  0
 17 18  1  0
 17 19  1  0
 19 20  1  0
 19 21  2  0
  6 22  1  0
 22 23  2  0
 23  3  1  0
 13  8  1  0
 21 14  1  0
M  END
>  <id>  (87) 
SANC00309_minRM1.pdb

>  <SMILES>  (87) 
COc1ccc(/C=C2\OC(=O)C=C2c2ccc(O)c(Br)c2)cc1

>  <warheads>  (87) 
ab_unsat_carbonyl:1

>  <n_warheads>  (87) 
1

>  <max_tier>  (87) 
1

>  <pains_flag>  (87) 


>  <MW>  (87) 
373.2

>  <cLogP>  (87) 
4.14

>  <HBD>  (87) 
1

>  <HBA>  (87) 
4

>  <TPSA>  (87) 
55.8

>  <ArRings>  (87) 
2

$$$$
SANC00312_minRM1.pdb
     RDKit          2D

 23 25  0  0  0  0  0  0  0  0999 V2000
    4.6740   -4.8322    0.0000 O   0  0  0  0  0  0  0  0  0  0  0  0
    3.3037   -4.2221    0.0000 C   0  0  0  0  0  0  0  0  0  0  0  0
    2.9918   -2.7549    0.0000 C   0  0  0  0  0  0  0  0  0  0  0  0
    1.5000   -2.5981    0.0000 C   0  0  0  0  0  0  0  0  0  0  0  0
    0.7500   -1.2990    0.0000 C   0  0  0  0  0  0  0  0  0  0  0  0
    1.5000    0.0000    0.0000 C   0  0  0  0  0  0  0  0  0  0  0  0
    0.7500    1.2990    0.0000 C   0  0  0  0  0  0  0  0  0  0  0  0
   -0.7500    1.2990    0.0000 C   0  0  0  0  0  0  0  0  0  0  0  0
   -1.5000    2.5981    0.0000 O   0  0  0  0  0  0  0  0  0  0  0  0
   -1.5000    0.0000    0.0000 C   0  0  0  0  0  0  0  0  0  0  0  0
   -3.0000    0.0000    0.0000 Br  0  0  0  0  0  0  0  0  0  0  0  0
   -0.7500   -1.2990    0.0000 C   0  0  0  0  0  0  0  0  0  0  0  0
    0.8899   -3.9684    0.0000 C   0  0  0  0  0  0  0  0  0  0  0  0
   -0.5773   -4.2803    0.0000 C   0  0  0  0  0  0  0  0  0  0  0  0
   -1.0409   -5.7068    0.0000 C   0  0  0  0  0  0  0  0  0  0  0  0
   -2.5081   -6.0187    0.0000 C   0  0  0  0  0  0  0  0  0  0  0  0
   -2.9716   -7.4453    0.0000 C   0  0  0  0  0  0  0  0  0  0  0  0
   -1.9679   -8.5600    0.0000 C   0  0  0  0  0  0  0  0  0  0  0  0
   -2.4314   -9.9866    0.0000 O   0  0  0  0  0  0  0  0  0  0  0  0
   -0.5007   -8.2481    0.0000 C   0  0  0  0  0  0  0  0  0  0  0  0
    0.5030   -9.3629    0.0000 Br  0  0  0  0  0  0  0  0  0  0  0  0
   -0.0372   -6.8216    0.0000 C   0  0  0  0  0  0  0  0  0  0  0  0
    2.0046   -4.9721    0.0000 O   0  0  0  0  0  0  0  0  0  0  0  0
  1  2  2  0
  2  3  1  0
  3  4  2  0
  4  5  1  0
  5  6  2  0
  6  7  1  0
  7  8  2  0
  8  9  1  0
  8 10  1  0
 10 11  1  0
 10 12  2  0
  4 13  1  0
 13 14  2  0
 14 15  1  0
 15 16  2  0
 16 17  1  0
 17 18  2  0
 18 19  1  0
 18 20  1  0
 20 21  1  0
 20 22  2  0
 13 23  1  0
 23  2  1  0
 12  5  1  0
 22 15  1  0
M  END
>  <id>  (88) 
SANC00312_minRM1.pdb

>  <SMILES>  (88) 
O=C1C=C(c2ccc(O)c(Br)c2)/C(=C/c2ccc(O)c(Br)c2)O1

>  <warheads>  (88) 
ab_unsat_carbonyl:1

>  <n_warheads>  (88) 
1

>  <max_tier>  (88) 
1

>  <pains_flag>  (88) 


>  <MW>  (88) 
438.1

>  <cLogP>  (88) 
4.6

>  <HBD>  (88) 
2

>  <HBA>  (88) 
4

>  <TPSA>  (88) 
66.8

>  <ArRings>  (88) 
2

$$$$
SANC00313_minRM1.pdb
     RDKit          2D

 21 23  0  0  0  0  0  0  0  0999 V2000
    4.6740   -4.8322    0.0000 O   0  0  0  0  0  0  0  0  0  0  0  0
    3.3037   -4.2221    0.0000 C   0  0  0  0  0  0  0  0  0  0  0  0
    2.9918   -2.7549    0.0000 C   0  0  0  0  0  0  0  0  0  0  0  0
    1.5000   -2.5981    0.0000 C   0  0  0  0  0  0  0  0  0  0  0  0
    0.7500   -1.2990    0.0000 C   0  0  0  0  0  0  0  0  0  0  0  0
    1.5000    0.0000    0.0000 C   0  0  0  0  0  0  0  0  0  0  0  0
    0.7500    1.2990    0.0000 C   0  0  0  0  0  0  0  0  0  0  0  0
   -0.7500    1.2990    0.0000 C   0  0  0  0  0  0  0  0  0  0  0  0
   -1.5000    2.5981    0.0000 O   0  0  0  0  0  0  0  0  0  0  0  0
   -1.5000    0.0000    0.0000 C   0  0  0  0  0  0  0  0  0  0  0  0
   -0.7500   -1.2990    0.0000 C   0  0  0  0  0  0  0  0  0  0  0  0
    0.8899   -3.9684    0.0000 C   0  0  0  0  0  0  0  0  0  0  0  0
   -0.5773   -4.2803    0.0000 C   0  0  0  0  0  0  0  0  0  0  0  0
   -1.0409   -5.7068    0.0000 C   0  0  0  0  0  0  0  0  0  0  0  0
   -2.5081   -6.0187    0.0000 C   0  0  0  0  0  0  0  0  0  0  0  0
   -2.9716   -7.4453    0.0000 C   0  0  0  0  0  0  0  0  0  0  0  0
   -1.9679   -8.5600    0.0000 C   0  0  0  0  0  0  0  0  0  0  0  0
   -2.4314   -9.9866    0.0000 O   0  0  0  0  0  0  0  0  0  0  0  0
   -0.5007   -8.2481    0.0000 C   0  0  0  0  0  0  0  0  0  0  0  0
   -0.0372   -6.8216    0.0000 C   0  0  0  0  0  0  0  0  0  0  0  0
    2.0046   -4.9721    0.0000 O   0  0  0  0  0  0  0  0  0  0  0  0
  1  2  2  0
  2  3  1  0
  3  4  2  0
  4  5  1  0
  5  6  2  0
  6  7  1  0
  7  8  2  0
  8  9  1  0
  8 10  1  0
 10 11  2  0
  4 12  1  0
 12 13  2  0
 13 14  1  0
 14 15  2  0
 15 16  1  0
 16 17  2  0
 17 18  1  0
 17 19  1  0
 19 20  2  0
 12 21  1  0
 21  2  1  0
 11  5  1  0
 20 14  1  0
M  END
>  <id>  (89) 
SANC00313_minRM1.pdb

>  <SMILES>  (89) 
O=C1C=C(c2ccc(O)cc2)/C(=C/c2ccc(O)cc2)O1

>  <warheads>  (89) 
ab_unsat_carbonyl:1

>  <n_warheads>  (89) 
1

>  <max_tier>  (89) 
1

>  <pains_flag>  (89) 


>  <MW>  (89) 
280.3

>  <cLogP>  (89) 
3.08

>  <HBD>  (89) 
2

>  <HBA>  (89) 
4

>  <TPSA>  (89) 
66.8

>  <ArRings>  (89) 
2

$$$$
SANC00314_minRM1.pdb
     RDKit          2D

 27 30  0  0  0  0  0  0  0  0999 V2000
   -0.0000   -6.0850    0.0000 C   0  0  0  0  0  0  0  0  0  0  0  0
   -0.0000   -4.5850    0.0000 C   0  0  0  0  0  0  0  0  0  0  0  0
    1.3515   -3.9342    0.0000 C   0  0  0  0  0  0  0  0  0  0  0  0
    1.6852   -2.4718    0.0000 C   0  0  0  0  0  0  0  0  0  0  0  0
    3.1476   -2.1380    0.0000 C   0  0  0  0  0  0  0  0  0  0  0  0
    2.9946   -0.6458    0.0000 C   0  0  0  0  0  0  0  0  0  0  0  0
    3.4814   -3.6004    0.0000 C   0  0  0  0  0  0  0  0  0  0  0  0
    4.6100   -1.8042    0.0000 O   0  0  0  0  0  0  0  0  0  0  0  0
    0.7500   -1.2990    0.0000 C   0  0  0  0  0  0  0  0  0  0  0  0
    2.2210   -1.0054    0.0000 O   0  0  0  0  0  0  0  0  0  0  0  0
    1.5000    0.0000    0.0000 O   0  0  0  0  0  0  0  0  0  0  0  0
    0.7500    1.2990    0.0000 O   0  0  0  0  0  0  0  0  0  0  0  0
   -0.7500    1.2990    0.0000 C   0  0  0  0  0  0  0  0  0  0  0  0
   -1.5000    2.5981    0.0000 C   0  0  0  0  0  0  0  0  0  0  0  0
   -2.4044    0.0248    0.0000 C   0  0  0  0  0  0  0  0  0  0  0  0
   -2.7655   -1.4311    0.0000 C   0  0  0  0  0  0  0  0  0  0  0  0
   -4.0891   -2.1370    0.0000 C   0  0  0  0  0  0  0  0  0  0  0  0
   -5.4381   -1.4811    0.0000 O   0  0  0  0  0  0  0  0  0  0  0  0
   -3.8268   -3.6139    0.0000 C   0  0  0  0  0  0  0  0  0  0  0  0
   -4.8674   -4.6942    0.0000 C   0  0  0  0  0  0  0  0  0  0  0  0
   -2.3411   -3.8208    0.0000 C   0  0  0  0  0  0  0  0  0  0  0  0
   -1.6852   -2.4718    0.0000 C   0  0  0  0  0  0  0  0  0  0  0  0
   -1.3515   -3.9342    0.0000 C   0  0  0  0  0  0  0  0  0  0  0  0
   -2.5242   -4.8694    0.0000 O   0  0  0  0  0  0  0  0  0  0  0  0
   -0.7500   -1.2990    0.0000 C   0  0  0  0  0  0  0  0  0  0  0  0
   -1.5000    0.0000    0.0000 C   0  0  0  0  0  0  0  0  0  0  0  0
   -2.2735   -0.1929    0.0000 O   0  0  0  0  0  0  0  0  0  0  0  0
  2  1  1  1
  2  3  1  0
  3  4  1  0
  4  5  1  6
  5  6  1  0
  5  7  1  0
  5  8  1  0
  4  9  1  0
  9 10  1  6
  9 11  1  0
 11 12  1  0
 12 13  1  0
 13 14  1  6
 13 15  1  0
 15 16  2  0
 16 17  1  0
 17 18  2  0
 17 19  1  0
 19 20  1  6
 19 21  1  0
 22 21  1  6
 22 23  1  0
 23 24  2  0
 25 22  1  1
 25 26  1  0
 26 27  1  1
 23  2  1  0
 25  9  1  0
 26 13  1  0
 22 16  1  0
M  END
>  <id>  (90) 
SANC00314_minRM1.pdb

>  <SMILES>  (90) 
C[C@@H]1C[C@@H](C(C)(C)O)[C@]2(O)OO[C@]3(C)C=C4C(=O)[C@@H](C)C[C@@]4(C1=O)[C@H]2[C@H]3O

>  <warheads>  (90) 
ab_unsat_carbonyl:1

>  <n_warheads>  (90) 
1

>  <max_tier>  (90) 
1

>  <pains_flag>  (90) 


>  <MW>  (90) 
380.4

>  <cLogP>  (90) 
0.9

>  <HBD>  (90) 
3

>  <HBA>  (90) 
7

>  <TPSA>  (90) 
113.3

>  <ArRings>  (90) 
0

$$$$
SANC00315_minRM1.pdb
     RDKit          2D

 22 24  0  0  0  0  0  0  0  0999 V2000
    3.7500   -1.2990    0.0000 C   0  0  0  0  0  0  0  0  0  0  0  0
    3.0000    0.0000    0.0000 O   0  0  0  0  0  0  0  0  0  0  0  0
    1.5000    0.0000    0.0000 C   0  0  0  0  0  0  0  0  0  0  0  0
    0.7500   -1.2990    0.0000 C   0  0  0  0  0  0  0  0  0  0  0  0
   -0.7500   -1.2990    0.0000 C   0  0  0  0  0  0  0  0  0  0  0  0
   -1.5000    0.0000    0.0000 C   0  0  0  0  0  0  0  0  0  0  0  0
   -3.0000    0.0000    0.0000 C   0  0  0  0  0  0  0  0  0  0  0  0
   -3.7500    1.2990    0.0000 C   0  0  0  0  0  0  0  0  0  0  0  0
   -3.1399    2.6694    0.0000 O   0  0  0  0  0  0  0  0  0  0  0  0
   -4.2546    3.6731    0.0000 C   0  0  0  0  0  0  0  0  0  0  0  0
   -4.0978    5.1648    0.0000 O   0  0  0  0  0  0  0  0  0  0  0  0
   -5.5537    2.9231    0.0000 C   0  0  0  0  0  0  0  0  0  0  0  0
   -5.2418    1.4558    0.0000 C   0  0  0  0  0  0  0  0  0  0  0  0
   -6.2455    0.3411    0.0000 C   0  0  0  0  0  0  0  0  0  0  0  0
   -7.7127    0.6530    0.0000 C   0  0  0  0  0  0  0  0  0  0  0  0
   -8.7164   -0.4617    0.0000 C   0  0  0  0  0  0  0  0  0  0  0  0
   -8.2529   -1.8883    0.0000 C   0  0  0  0  0  0  0  0  0  0  0  0
   -9.2566   -3.0030    0.0000 O   0  0  0  0  0  0  0  0  0  0  0  0
   -6.7856   -2.2002    0.0000 C   0  0  0  0  0  0  0  0  0  0  0  0
   -5.7820   -1.0855    0.0000 C   0  0  0  0  0  0  0  0  0  0  0  0
   -0.7500    1.2990    0.0000 C   0  0  0  0  0  0  0  0  0  0  0  0
    0.7500    1.2990    0.0000 C   0  0  0  0  0  0  0  0  0  0  0  0
  1  2  1  0
  2  3  1  0
  3  4  2  0
  4  5  1  0
  5  6  2  0
  6  7  1  0
  7  8  2  0
  8  9  1  0
  9 10  1  0
 10 11  2  0
 10 12  1  0
 12 13  2  0
 13 14  1  0
 14 15  2  0
 15 16  1  0
 16 17  2  0
 17 18  1  0
 17 19  1  0
 19 20  2  0
  6 21  1  0
 21 22  2  0
 22  3  1  0
 13  8  1  0
 20 14  1  0
M  END
>  <id>  (91) 
SANC00315_minRM1.pdb

>  <SMILES>  (91) 
COc1ccc(/C=C2\OC(=O)C=C2c2ccc(O)cc2)cc1

>  <warheads>  (91) 
ab_unsat_carbonyl:1

>  <n_warheads>  (91) 
1

>  <max_tier>  (91) 
1

>  <pains_flag>  (91) 


>  <MW>  (91) 
294.3

>  <cLogP>  (91) 
3.38

>  <HBD>  (91) 
1

>  <HBA>  (91) 
4

>  <TPSA>  (91) 
55.8

>  <ArRings>  (91) 
2

$$$$
SANC00341_minRM1.pdb
     RDKit          2D

 28 29  0  0  0  0  0  0  0  0999 V2000
    3.0000   -2.5981    0.0000 C   0  0  0  0  0  0  0  0  0  0  0  0
    2.2500   -1.2990    0.0000 C   0  0  0  0  0  0  0  0  0  0  0  0
    0.7500   -1.2990    0.0000 C   0  0  0  0  0  0  0  0  0  0  0  0
    1.5000    0.0000    0.0000 C   0  0  0  0  0  0  0  0  0  0  0  0
    0.7500    1.2990    0.0000 O   0  0  0  0  0  0  0  0  0  0  0  0
   -0.7500    1.2990    0.0000 C   0  0  0  0  0  0  0  0  0  0  0  0
   -1.5000    2.5981    0.0000 O   0  0  0  0  0  0  0  0  0  0  0  0
   -1.5000    0.0000    0.0000 C   0  0  0  0  0  0  0  0  0  0  0  0
   -3.0000    0.0000    0.0000 C   0  0  0  0  0  0  0  0  0  0  0  0
   -0.7500   -1.2990    0.0000 C   0  0  0  0  0  0  0  0  0  0  0  0
   -1.5000   -2.5981    0.0000 C   0  0  0  0  0  0  0  0  0  0  0  0
   -3.0000   -2.5981    0.0000 O   0  0  0  0  0  0  0  0  0  0  0  0
   -0.7500   -3.8971    0.0000 C   0  0  0  0  0  0  0  0  0  0  0  0
   -1.5000   -5.1962    0.0000 C   0  0  0  0  0  0  0  0  0  0  0  0
   -3.0000   -5.1962    0.0000 C   0  0  0  0  0  0  0  0  0  0  0  0
   -0.7500   -6.4952    0.0000 C   0  0  0  0  0  0  0  0  0  0  0  0
    0.7500   -6.4952    0.0000 O   0  0  0  0  0  0  0  0  0  0  0  0
   -1.5000   -7.7942    0.0000 O   0  0  0  0  0  0  0  0  0  0  0  0
   -0.7500   -9.0933    0.0000 C   0  0  0  0  0  0  0  0  0  0  0  0
    0.7500   -3.8971    0.0000 C   0  0  0  0  0  0  0  0  0  0  0  0
    1.5000   -5.1962    0.0000 O   0  0  0  0  0  0  0  0  0  0  0  0
    3.0000   -5.1962    0.0000 C   0  0  0  0  0  0  0  0  0  0  0  0
    3.7500   -3.8971    0.0000 O   0  0  0  0  0  0  0  0  0  0  0  0
    3.7500   -6.4952    0.0000 C   0  0  0  0  0  0  0  0  0  0  0  0
    5.2500   -6.4952    0.0000 C   0  0  0  0  0  0  0  0  0  0  0  0
    3.0000   -7.7942    0.0000 C   0  0  0  0  0  0  0  0  0  0  0  0
    3.7500   -9.0933    0.0000 O   0  0  0  0  0  0  0  0  0  0  0  0
    1.5000   -2.5981    0.0000 C   0  0  0  0  0  0  0  0  0  0  0  0
  1  2  2  0
  3  2  1  6
  3  4  1  0
  4  5  1  0
  5  6  1  0
  6  7  2  0
  6  8  1  0
  8  9  2  0
 10  8  1  1
 10 11  1  0
 11 12  1  6
 11 13  1  0
 13 14  1  1
 14 15  2  0
 14 16  1  0
 16 17  2  0
 16 18  1  0
 18 19  1  0
 13 20  1  0
 20 21  1  6
 21 22  1  0
 22 23  2  0
 22 24  1  0
 24 25  2  0
 24 26  1  0
 26 27  1  0
 20 28  1  0
 10  3  1  0
 28  3  1  0
M  END
>  <id>  (92) 
SANC00341_minRM1.pdb

>  <SMILES>  (92) 
C=C[C@@]12COC(=O)C(=C)[C@@H]1[C@@H](O)[C@H](C(=C)C(=O)OC)[C@@H](OC(=O)C(=C)CO)C2

>  <warheads>  (92) 
ab_unsat_carbonyl:3;exo_methylene_carbonyl:3

>  <n_warheads>  (92) 
6

>  <max_tier>  (92) 
1

>  <pains_flag>  (92) 


>  <MW>  (92) 
392.4

>  <cLogP>  (92) 
0.46

>  <HBD>  (92) 
2

>  <HBA>  (92) 
8

>  <TPSA>  (92) 
119.4

>  <ArRings>  (92) 
0

$$$$
SANC00345_minRM1.pdb
     RDKit          2D

 24 28  0  0  0  0  0  0  0  0999 V2000
   -5.9821    8.7029    0.0000 C   0  0  0  0  0  0  0  0  0  0  0  0
   -6.2940    7.2357    0.0000 O   0  0  0  0  0  0  0  0  0  0  0  0
   -5.1793    6.2320    0.0000 C   0  0  0  0  0  0  0  0  0  0  0  0
   -5.4912    4.7648    0.0000 C   0  0  0  0  0  0  0  0  0  0  0  0
   -4.3764    3.7611    0.0000 C   0  0  0  0  0  0  0  0  0  0  0  0
   -4.6883    2.2939    0.0000 O   0  0  0  0  0  0  0  0  0  0  0  0
   -2.9499    4.2246    0.0000 C   0  0  0  0  0  0  0  0  0  0  0  0
   -3.6999    5.5237    0.0000 C   0  0  0  0  0  0  0  0  0  0  0  0
   -2.6962    6.6384    0.0000 C   0  0  0  0  0  0  0  0  0  0  0  0
   -1.2114    6.1554    0.0000 N   0  0  0  0  0  0  0  0  0  0  0  0
   -0.0967    5.1517    0.0000 C   0  0  0  0  0  0  0  0  0  0  0  0
   -0.4086    3.6844    0.0000 C   0  0  0  0  0  0  0  0  0  0  0  0
   -1.8351    3.2209    0.0000 C   0  0  0  0  0  0  0  0  0  0  0  0
   -2.1470    1.7537    0.0000 C   0  0  0  0  0  0  0  0  0  0  0  0
   -1.0323    0.7500    0.0000 C   0  0  0  0  0  0  0  0  0  0  0  0
    0.3943    1.2135    0.0000 C   0  0  0  0  0  0  0  0  0  0  0  0
    0.7062    2.6807    0.0000 C   0  0  0  0  0  0  0  0  0  0  0  0
    2.1328    3.1443    0.0000 O   0  0  0  0  0  0  0  0  0  0  0  0
    3.2475    2.1406    0.0000 C   0  0  0  0  0  0  0  0  0  0  0  0
    1.2760    0.0000    0.0000 O   0  0  0  0  0  0  0  0  0  0  0  0
    0.3943   -1.2135    0.0000 C   0  0  0  0  0  0  0  0  0  0  0  0
   -1.0323   -0.7500    0.0000 O   0  0  0  0  0  0  0  0  0  0  0  0
   -2.6380    5.6918    0.0000 C   0  0  0  0  0  0  0  0  0  0  0  0
   -3.7527    6.6955    0.0000 C   0  0  0  0  0  0  0  0  0  0  0  0
  1  2  1  0
  2  3  1  0
  3  4  2  0
  4  5  1  0
  5  6  2  0
  5  7  1  0
  7  8  1  1
  8  9  1  0
  9 10  1  0
 10 11  1  0
 11 12  1  0
 12 13  2  0
 13 14  1  0
 14 15  2  0
 15 16  1  0
 16 17  2  0
 17 18  1  0
 18 19  1  0
 16 20  1  0
 20 21  1  0
 21 22  1  0
 10 23  1  0
 23 24  1  1
 24  3  1  0
 13  7  1  0
 22 15  1  0
 23  7  1  0
 17 12  1  0
M  END
>  <id>  (93) 
SANC00345_minRM1.pdb

>  <SMILES>  (93) 
COC1=CC(=O)[C@@]23CCN(Cc4c2cc2c(c4OC)OCO2)[C@@H]3C1

>  <warheads>  (93) 
ab_unsat_carbonyl:1

>  <n_warheads>  (93) 
1

>  <max_tier>  (93) 
1

>  <pains_flag>  (93) 


>  <MW>  (93) 
329.4

>  <cLogP>  (93) 
1.75

>  <HBD>  (93) 
0

>  <HBA>  (93) 
6

>  <TPSA>  (93) 
57.2

>  <ArRings>  (93) 
1

$$$$
SANC00349_minRM1.pdb
     RDKit          2D

 18 20  0  0  0  0  0  0  0  0999 V2000
    2.6401   -5.7872    0.0000 C   0  0  0  0  0  0  0  0  0  0  0  0
    1.2135   -5.3237    0.0000 C   0  0  0  0  0  0  0  0  0  0  0  0
    0.7500   -3.8971    0.0000 C   0  0  0  0  0  0  0  0  0  0  0  0
    1.5000   -2.5981    0.0000 C   0  0  0  0  0  0  0  0  0  0  0  0
    0.7500   -1.2990    0.0000 C   0  0  0  0  0  0  0  0  0  0  0  0
    1.5000    0.0000    0.0000 C   0  0  0  0  0  0  0  0  0  0  0  0
    0.7500    1.2990    0.0000 C   0  0  0  0  0  0  0  0  0  0  0  0
   -0.7500    1.2990    0.0000 C   0  0  0  0  0  0  0  0  0  0  0  0
   -1.5000    0.0000    0.0000 C   0  0  0  0  0  0  0  0  0  0  0  0
   -3.0000    0.0000    0.0000 O   0  0  0  0  0  0  0  0  0  0  0  0
   -0.7500   -1.2990    0.0000 C   0  0  0  0  0  0  0  0  0  0  0  0
   -2.2500   -1.2990    0.0000 C   0  0  0  0  0  0  0  0  0  0  0  0
   -1.5000   -2.5981    0.0000 C   0  0  0  0  0  0  0  0  0  0  0  0
   -0.7500   -3.8971    0.0000 C   0  0  0  0  0  0  0  0  0  0  0  0
   -2.2418   -4.0539    0.0000 O   0  0  0  0  0  0  0  0  0  0  0  0
   -1.2135   -5.3237    0.0000 O   0  0  0  0  0  0  0  0  0  0  0  0
   -0.0000   -6.2054    0.0000 C   0  0  0  0  0  0  0  0  0  0  0  0
   -0.0000   -7.7054    0.0000 O   0  0  0  0  0  0  0  0  0  0  0  0
  1  2  1  0
  2  3  2  0
  3  4  1  0
  5  4  1  6
  5  6  1  0
  6  7  1  0
  7  8  2  0
  8  9  1  0
  9 10  2  0
  9 11  1  0
 11 12  1  6
 11 13  1  0
 13 14  1  0
 14 15  1  6
 14 16  1  0
 16 17  1  0
 17 18  2  0
 17  2  1  0
 14  3  1  0
 11  5  1  0
M  END
>  <id>  (94) 
SANC00349_minRM1.pdb

>  <SMILES>  (94) 
CC1=C2C[C@H]3CC=CC(=O)[C@]3(C)C[C@]2(O)OC1=O

>  <warheads>  (94) 
ab_unsat_carbonyl:2

>  <n_warheads>  (94) 
2

>  <max_tier>  (94) 
1

>  <pains_flag>  (94) 


>  <MW>  (94) 
248.3

>  <cLogP>  (94) 
1.49

>  <HBD>  (94) 
1

>  <HBA>  (94) 
4

>  <TPSA>  (94) 
63.6

>  <ArRings>  (94) 
0

$$$$
SANC00350_minRM1.pdb
     RDKit          2D

 22 24  0  0  0  0  0  0  0  0999 V2000
   -3.0000   -7.7942    0.0000 C   0  0  0  0  0  0  0  0  0  0  0  0
   -1.5000   -7.7942    0.0000 O   0  0  0  0  0  0  0  0  0  0  0  0
   -0.7500   -6.4952    0.0000 C   0  0  0  0  0  0  0  0  0  0  0  0
   -1.5000   -5.1962    0.0000 C   0  0  0  0  0  0  0  0  0  0  0  0
   -0.7500   -3.8971    0.0000 C   0  0  0  0  0  0  0  0  0  0  0  0
    0.7500   -3.8971    0.0000 C   0  0  0  0  0  0  0  0  0  0  0  0
    1.5000   -2.5981    0.0000 C   0  0  0  0  0  0  0  0  0  0  0  0
    0.7500   -1.2990    0.0000 C   0  0  0  0  0  0  0  0  0  0  0  0
    1.5000    0.0000    0.0000 C   0  0  0  0  0  0  0  0  0  0  0  0
    0.7500    1.2990    0.0000 O   0  0  0  0  0  0  0  0  0  0  0  0
   -0.7500    1.2990    0.0000 C   0  0  0  0  0  0  0  0  0  0  0  0
   -1.5000    2.5981    0.0000 C   0  0  0  0  0  0  0  0  0  0  0  0
   -3.0000    2.5981    0.0000 C   0  0  0  0  0  0  0  0  0  0  0  0
   -3.7500    3.8971    0.0000 O   0  0  0  0  0  0  0  0  0  0  0  0
   -3.7500    1.2990    0.0000 C   0  0  0  0  0  0  0  0  0  0  0  0
   -3.0000    0.0000    0.0000 C   0  0  0  0  0  0  0  0  0  0  0  0
   -3.7500   -1.2990    0.0000 O   0  0  0  0  0  0  0  0  0  0  0  0
   -1.5000    0.0000    0.0000 C   0  0  0  0  0  0  0  0  0  0  0  0
   -0.7500   -1.2990    0.0000 C   0  0  0  0  0  0  0  0  0  0  0  0
   -1.5000   -2.5981    0.0000 O   0  0  0  0  0  0  0  0  0  0  0  0
    1.5000   -5.1962    0.0000 C   0  0  0  0  0  0  0  0  0  0  0  0
    0.7500   -6.4952    0.0000 C   0  0  0  0  0  0  0  0  0  0  0  0
  1  2  1  0
  2  3  1  0
  3  4  2  0
  4  5  1  0
  5  6  2  0
  6  7  1  0
  7  8  2  0
  8  9  1  0
  9 10  1  0
 10 11  1  0
 11 12  2  0
 12 13  1  0
 13 14  1  0
 13 15  2  0
 15 16  1  0
 16 17  1  0
 16 18  2  0
 18 19  1  0
 19 20  2  0
  6 21  1  0
 21 22  2  0
 22  3  1  0
 19  8  1  0
 18 11  1  0
M  END
>  <id>  (95) 
SANC00350_minRM1.pdb

>  <SMILES>  (95) 
COc1ccc(/C=C2/COc3cc(O)cc(O)c3C2=O)cc1

>  <warheads>  (95) 
ab_unsat_carbonyl:1

>  <n_warheads>  (95) 
1

>  <max_tier>  (95) 
1

>  <pains_flag>  (95) 


>  <MW>  (95) 
298.3

>  <cLogP>  (95) 
2.77

>  <HBD>  (95) 
2

>  <HBA>  (95) 
5

>  <TPSA>  (95) 
76.0

>  <ArRings>  (95) 
2

$$$$
SANC00353_minRM1.pdb
     RDKit          2D

 17 19  0  0  0  0  0  0  0  0999 V2000
    2.6401   -5.7872    0.0000 C   0  0  0  0  0  0  0  0  0  0  0  0
    1.2135   -5.3237    0.0000 C   0  0  0  0  0  0  0  0  0  0  0  0
    0.7500   -3.8971    0.0000 C   0  0  0  0  0  0  0  0  0  0  0  0
    1.5000   -2.5981    0.0000 C   0  0  0  0  0  0  0  0  0  0  0  0
    0.7500   -1.2990    0.0000 C   0  0  0  0  0  0  0  0  0  0  0  0
    1.5000    0.0000    0.0000 C   0  0  0  0  0  0  0  0  0  0  0  0
    0.7500    1.2990    0.0000 C   0  0  0  0  0  0  0  0  0  0  0  0
   -0.7500    1.2990    0.0000 C   0  0  0  0  0  0  0  0  0  0  0  0
   -1.5000    0.0000    0.0000 C   0  0  0  0  0  0  0  0  0  0  0  0
   -3.0000    0.0000    0.0000 O   0  0  0  0  0  0  0  0  0  0  0  0
   -0.7500   -1.2990    0.0000 C   0  0  0  0  0  0  0  0  0  0  0  0
   -2.2500   -1.2990    0.0000 C   0  0  0  0  0  0  0  0  0  0  0  0
   -1.5000   -2.5981    0.0000 C   0  0  0  0  0  0  0  0  0  0  0  0
   -0.7500   -3.8971    0.0000 C   0  0  0  0  0  0  0  0  0  0  0  0
   -1.2135   -5.3237    0.0000 O   0  0  0  0  0  0  0  0  0  0  0  0
   -0.0000   -6.2054    0.0000 C   0  0  0  0  0  0  0  0  0  0  0  0
   -0.0000   -7.7054    0.0000 O   0  0  0  0  0  0  0  0  0  0  0  0
  1  2  1  0
  2  3  2  0
  3  4  1  0
  5  4  1  6
  5  6  1  0
  6  7  1  0
  7  8  2  0
  8  9  1  0
  9 10  2  0
  9 11  1  0
 11 12  1  6
 11 13  1  0
 14 13  1  1
 14 15  1  0
 15 16  1  0
 16 17  2  0
 16  2  1  0
 14  3  1  0
 11  5  1  0
M  END
>  <id>  (96) 
SANC00353_minRM1.pdb

>  <SMILES>  (96) 
CC1=C2C[C@H]3CC=CC(=O)[C@]3(C)C[C@@H]2OC1=O

>  <warheads>  (96) 
ab_unsat_carbonyl:2

>  <n_warheads>  (96) 
2

>  <max_tier>  (96) 
1

>  <pains_flag>  (96) 


>  <MW>  (96) 
232.3

>  <cLogP>  (96) 
2.17

>  <HBD>  (96) 
0

>  <HBA>  (96) 
3

>  <TPSA>  (96) 
43.4

>  <ArRings>  (96) 
0

$$$$
SANC00354_minRM1.pdb
     RDKit          2D

 17 19  0  0  0  0  0  0  0  0999 V2000
    2.6401   -5.7872    0.0000 C   0  0  0  0  0  0  0  0  0  0  0  0
    1.2135   -5.3237    0.0000 C   0  0  0  0  0  0  0  0  0  0  0  0
    0.7500   -3.8971    0.0000 C   0  0  0  0  0  0  0  0  0  0  0  0
    1.5000   -2.5981    0.0000 C   0  0  0  0  0  0  0  0  0  0  0  0
    0.7500   -1.2990    0.0000 C   0  0  0  0  0  0  0  0  0  0  0  0
    1.5000    0.0000    0.0000 C   0  0  0  0  0  0  0  0  0  0  0  0
    0.7500    1.2990    0.0000 C   0  0  0  0  0  0  0  0  0  0  0  0
   -0.7500    1.2990    0.0000 C   0  0  0  0  0  0  0  0  0  0  0  0
   -1.5000    0.0000    0.0000 C   0  0  0  0  0  0  0  0  0  0  0  0
   -3.0000    0.0000    0.0000 O   0  0  0  0  0  0  0  0  0  0  0  0
   -0.7500   -1.2990    0.0000 C   0  0  0  0  0  0  0  0  0  0  0  0
   -2.2500   -1.2990    0.0000 C   0  0  0  0  0  0  0  0  0  0  0  0
   -1.5000   -2.5981    0.0000 C   0  0  0  0  0  0  0  0  0  0  0  0
   -0.7500   -3.8971    0.0000 C   0  0  0  0  0  0  0  0  0  0  0  0
   -1.2135   -5.3237    0.0000 O   0  0  0  0  0  0  0  0  0  0  0  0
   -0.0000   -6.2054    0.0000 C   0  0  0  0  0  0  0  0  0  0  0  0
   -0.0000   -7.7054    0.0000 O   0  0  0  0  0  0  0  0  0  0  0  0
  1  2  1  0
  2  3  2  0
  3  4  1  0
  5  4  1  6
  5  6  1  0
  6  7  1  0
  7  8  2  0
  8  9  1  0
  9 10  2  0
  9 11  1  0
 11 12  1  6
 11 13  1  0
 13 14  2  0
 14 15  1  0
 15 16  1  0
 16 17  2  0
 16  2  1  0
 14  3  1  0
 11  5  1  0
M  END
>  <id>  (97) 
SANC00354_minRM1.pdb

>  <SMILES>  (97) 
CC1=C2C[C@H]3CC=CC(=O)[C@]3(C)C=C2OC1=O

>  <warheads>  (97) 
ab_unsat_carbonyl:2

>  <n_warheads>  (97) 
2

>  <max_tier>  (97) 
1

>  <pains_flag>  (97) 


>  <MW>  (97) 
230.3

>  <cLogP>  (97) 
2.3

>  <HBD>  (97) 
0

>  <HBA>  (97) 
3

>  <TPSA>  (97) 
43.4

>  <ArRings>  (97) 
0

$$$$
SANC00364_minRM1.pdb
     RDKit          2D

 28 30  0  0  0  0  0  0  0  0999 V2000
   -3.7500   -6.4952    0.0000 C   0  0  0  0  0  0  0  0  0  0  0  0
   -3.0000   -5.1962    0.0000 C   0  0  0  0  0  0  0  0  0  0  0  0
   -3.7500   -3.8971    0.0000 O   0  0  0  0  0  0  0  0  0  0  0  0
   -1.5000   -5.1962    0.0000 O   0  0  0  0  0  0  0  0  0  0  0  0
   -0.7500   -3.8971    0.0000 C   0  0  0  0  0  0  0  0  0  0  0  0
    0.7500   -3.8971    0.0000 C   0  0  0  0  0  0  0  0  0  0  0  0
    1.5000   -2.5981    0.0000 C   0  0  0  0  0  0  0  0  0  0  0  0
    3.0000   -2.5981    0.0000 C   0  0  0  0  0  0  0  0  0  0  0  0
    3.7500   -1.2990    0.0000 O   0  0  0  0  0  0  0  0  0  0  0  0
    3.7500   -3.8971    0.0000 C   0  0  0  0  0  0  0  0  0  0  0  0
    5.2500   -3.8971    0.0000 O   0  0  0  0  0  0  0  0  0  0  0  0
    3.0000   -5.1962    0.0000 C   0  0  0  0  0  0  0  0  0  0  0  0
    3.7500   -6.4952    0.0000 C   0  0  0  0  0  0  0  0  0  0  0  0
    3.0000   -7.7942    0.0000 C   0  0  0  0  0  0  0  0  0  0  0  0
    5.2500   -6.4952    0.0000 C   0  0  0  0  0  0  0  0  0  0  0  0
    1.5000   -5.1962    0.0000 C   0  0  0  0  0  0  0  0  0  0  0  0
    0.7500   -6.4952    0.0000 O   0  0  0  0  0  0  0  0  0  0  0  0
    0.7500   -1.2990    0.0000 C   0  0  0  0  0  0  0  0  0  0  0  0
    2.2500   -1.2990    0.0000 C   0  0  0  0  0  0  0  0  0  0  0  0
    1.5000    0.0000    0.0000 C   0  0  0  0  0  0  0  0  0  0  0  0
    0.7500    1.2990    0.0000 C   0  0  0  0  0  0  0  0  0  0  0  0
   -0.7500    1.2990    0.0000 C   0  0  0  0  0  0  0  0  0  0  0  0
   -1.5000    0.0000    0.0000 C   0  0  0  0  0  0  0  0  0  0  0  0
   -2.6491   -0.9642    0.0000 C   0  0  0  0  0  0  0  0  0  0  0  0
   -2.6491    0.9642    0.0000 C   0  0  0  0  0  0  0  0  0  0  0  0
   -0.7500   -1.2990    0.0000 C   0  0  0  0  0  0  0  0  0  0  0  0
   -1.5000   -2.5981    0.0000 C   0  0  0  0  0  0  0  0  0  0  0  0
   -3.0000   -2.5981    0.0000 O   0  0  0  0  0  0  0  0  0  0  0  0
  1  2  1  0
  2  3  2  0
  2  4  1  0
  5  4  1  6
  5  6  1  0
  6  7  2  0
  7  8  1  0
  8  9  2  0
  8 10  1  0
 10 11  1  0
 10 12  2  0
 12 13  1  0
 13 14  1  0
 13 15  1  0
 12 16  1  0
 16 17  2  0
  7 18  1  0
 18 19  1  1
 18 20  1  0
 20 21  1  0
 21 22  1  0
 22 23  1  0
 23 24  1  0
 23 25  1  0
 26 23  1  1
 26 27  1  0
 27 28  1  1
 27  5  1  0
 16  6  1  0
 26 18  1  0
M  END
>  <id>  (98) 
SANC00364_minRM1.pdb

>  <SMILES>  (98) 
CC(=O)O[C@H]1C2=C(C(=O)C(O)=C(C(C)C)C2=O)[C@@]2(C)CCCC(C)(C)[C@@H]2[C@@H]1O

>  <warheads>  (98) 
ab_unsat_carbonyl:4;para_quinone:1

>  <n_warheads>  (98) 
5

>  <max_tier>  (98) 
2

>  <pains_flag>  (98) 
quinone_A(370)

>  <MW>  (98) 
390.5

>  <cLogP>  (98) 
3.04

>  <HBD>  (98) 
2

>  <HBA>  (98) 
6

>  <TPSA>  (98) 
100.9

>  <ArRings>  (98) 
0

$$$$
SANC00365_minRM1.pdb
     RDKit          2D

 27 29  0  0  0  0  0  0  0  0999 V2000
   -5.2500   -6.4952    0.0000 C   0  0  0  0  0  0  0  0  0  0  0  0
   -3.7500   -6.4952    0.0000 C   0  0  0  0  0  0  0  0  0  0  0  0
   -3.0000   -7.7942    0.0000 C   0  0  0  0  0  0  0  0  0  0  0  0
   -3.0000   -5.1962    0.0000 C   0  0  0  0  0  0  0  0  0  0  0  0
   -3.7500   -3.8971    0.0000 C   0  0  0  0  0  0  0  0  0  0  0  0
   -5.2500   -3.8971    0.0000 O   0  0  0  0  0  0  0  0  0  0  0  0
   -3.0000   -2.5981    0.0000 C   0  0  0  0  0  0  0  0  0  0  0  0
   -3.7500   -1.2990    0.0000 O   0  0  0  0  0  0  0  0  0  0  0  0
   -1.5000   -2.5981    0.0000 C   0  0  0  0  0  0  0  0  0  0  0  0
   -0.7500   -3.8971    0.0000 C   0  0  0  0  0  0  0  0  0  0  0  0
   -1.5000   -5.1962    0.0000 C   0  0  0  0  0  0  0  0  0  0  0  0
   -0.7500   -6.4952    0.0000 O   0  0  0  0  0  0  0  0  0  0  0  0
    0.7500   -3.8971    0.0000 C   0  0  0  0  0  0  0  0  0  0  0  0
    1.5000   -5.1962    0.0000 O   0  0  0  0  0  0  0  0  0  0  0  0
    0.7500   -6.4952    0.0000 C   0  0  0  0  0  0  0  0  0  0  0  0
    1.5000   -7.7942    0.0000 O   0  0  0  0  0  0  0  0  0  0  0  0
    1.5000   -2.5981    0.0000 C   0  0  0  0  0  0  0  0  0  0  0  0
    3.0000   -2.5981    0.0000 O   0  0  0  0  0  0  0  0  0  0  0  0
    0.7500   -1.2990    0.0000 C   0  0  0  0  0  0  0  0  0  0  0  0
    1.5000    0.0000    0.0000 C   0  0  0  0  0  0  0  0  0  0  0  0
    2.6491    0.9642    0.0000 C   0  0  0  0  0  0  0  0  0  0  0  0
    2.6491   -0.9642    0.0000 C   0  0  0  0  0  0  0  0  0  0  0  0
    0.7500    1.2990    0.0000 C   0  0  0  0  0  0  0  0  0  0  0  0
   -0.7500    1.2990    0.0000 C   0  0  0  0  0  0  0  0  0  0  0  0
   -1.5000    0.0000    0.0000 C   0  0  0  0  0  0  0  0  0  0  0  0
   -0.7500   -1.2990    0.0000 C   0  0  0  0  0  0  0  0  0  0  0  0
   -2.2500   -1.2990    0.0000 C   0  0  0  0  0  0  0  0  0  0  0  0
  1  2  1  0
  2  3  1  0
  2  4  1  0
  4  5  2  0
  5  6  1  0
  5  7  1  0
  7  8  2  0
  7  9  1  0
  9 10  2  0
 10 11  1  0
 11 12  2  0
 10 13  1  0
 13 14  1  1
 14 15  1  0
 15 16  2  0
 13 17  1  0
 17 18  1  6
 17 19  1  0
 19 20  1  6
 20 21  1  0
 20 22  1  0
 20 23  1  0
 23 24  1  0
 24 25  1  0
 25 26  1  0
 26 27  1  6
 11  4  1  0
 26 19  1  0
 26  9  1  0
M  END
>  <id>  (99) 
SANC00365_minRM1.pdb

>  <SMILES>  (99) 
CC(C)C1=C(O)C(=O)C2=C(C1=O)[C@H](OC=O)[C@@H](O)[C@H]1C(C)(C)CCC[C@]21C

>  <warheads>  (99) 
ab_unsat_carbonyl:4;para_quinone:1

>  <n_warheads>  (99) 
5

>  <max_tier>  (99) 
2

>  <pains_flag>  (99) 
quinone_A(370)

>  <MW>  (99) 
376.4

>  <cLogP>  (99) 
2.65

>  <HBD>  (99) 
2

>  <HBA>  (99) 
6

>  <TPSA>  (99) 
100.9

>  <ArRings>  (99) 
0

$$$$
SANC00367_minRM1.pdb
     RDKit          2D

 32 35  0  0  0  0  0  0  0  0999 V2000
    0.7500   -6.4952    0.0000 C   0  0  0  0  0  0  0  0  0  0  0  0
    1.5000   -5.1962    0.0000 C   0  0  0  0  0  0  0  0  0  0  0  0
    3.0000   -5.1962    0.0000 C   0  0  0  0  0  0  0  0  0  0  0  0
    0.7500   -3.8971    0.0000 C   0  0  0  0  0  0  0  0  0  0  0  0
    1.5000   -2.5981    0.0000 C   0  0  0  0  0  0  0  0  0  0  0  0
    0.7500   -1.2990    0.0000 C   0  0  0  0  0  0  0  0  0  0  0  0
    1.5000    0.0000    0.0000 C   0  0  0  0  0  0  0  0  0  0  0  0
    0.7500    1.2990    0.0000 C   0  0  0  0  0  0  0  0  0  0  0  0
   -0.7500    1.2990    0.0000 C   0  0  0  0  0  0  0  0  0  0  0  0
   -1.5000    2.5981    0.0000 C   0  0  0  0  0  0  0  0  0  0  0  0
   -1.7605    4.0753    0.0000 C   0  0  0  0  0  0  0  0  0  0  0  0
   -0.0905    3.1111    0.0000 C   0  0  0  0  0  0  0  0  0  0  0  0
   -3.0000    2.5981    0.0000 C   0  0  0  0  0  0  0  0  0  0  0  0
   -3.7500    1.2990    0.0000 C   0  0  0  0  0  0  0  0  0  0  0  0
   -5.2500    1.2990    0.0000 O   0  0  0  0  0  0  0  0  0  0  0  0
   -6.0000    2.5981    0.0000 C   0  0  0  0  0  0  0  0  0  0  0  0
   -5.2500    3.8971    0.0000 O   0  0  0  0  0  0  0  0  0  0  0  0
   -7.5000    2.5981    0.0000 C   0  0  0  0  0  0  0  0  0  0  0  0
   -8.2500    3.8971    0.0000 C   0  0  0  0  0  0  0  0  0  0  0  0
   -9.7500    3.8971    0.0000 C   0  0  0  0  0  0  0  0  0  0  0  0
  -10.5000    2.5981    0.0000 C   0  0  0  0  0  0  0  0  0  0  0  0
  -12.0000    2.5981    0.0000 O   0  0  0  0  0  0  0  0  0  0  0  0
   -9.7500    1.2990    0.0000 C   0  0  0  0  0  0  0  0  0  0  0  0
   -8.2500    1.2990    0.0000 C   0  0  0  0  0  0  0  0  0  0  0  0
   -3.0000    0.0000    0.0000 C   0  0  0  0  0  0  0  0  0  0  0  0
   -1.5000    0.0000    0.0000 C   0  0  0  0  0  0  0  0  0  0  0  0
   -2.2500   -1.2990    0.0000 C   0  0  0  0  0  0  0  0  0  0  0  0
   -0.7500   -1.2990    0.0000 C   0  0  0  0  0  0  0  0  0  0  0  0
   -1.5000   -2.5981    0.0000 C   0  0  0  0  0  0  0  0  0  0  0  0
   -3.0000   -2.5981    0.0000 O   0  0  0  0  0  0  0  0  0  0  0  0
   -0.7500   -3.8971    0.0000 C   0  0  0  0  0  0  0  0  0  0  0  0
   -1.5000   -5.1962    0.0000 O   0  0  0  0  0  0  0  0  0  0  0  0
  1  2  1  0
  2  3  1  0
  2  4  1  0
  4  5  2  0
  5  6  1  0
  6  7  2  0
  7  8  1  0
  8  9  2  0
  9 10  1  0
 10 11  1  0
 10 12  1  0
 10 13  1  0
 13 14  1  0
 14 15  1  1
 15 16  1  0
 16 17  2  0
 16 18  1  0
 18 19  2  0
 19 20  1  0
 20 21  2  0
 21 22  1  0
 21 23  1  0
 23 24  2  0
 14 25  1  0
 25 26  1  0
 26 27  1  6
 26 28  1  0
 28 29  2  0
 29 30  1  0
 29 31  1  0
 31 32  2  0
 31  4  1  0
 28  6  1  0
 26  9  1  0
 24 18  1  0
M  END
>  <id>  (100) 
SANC00367_minRM1.pdb

>  <SMILES>  (100) 
CC(C)C1=CC2=CC=C3C(C)(C)C[C@H](OC(=O)c4ccc(O)cc4)C[C@]3(C)C2=C(O)C1=O

>  <warheads>  (100) 
ab_unsat_carbonyl:2

>  <n_warheads>  (100) 
2

>  <max_tier>  (100) 
1

>  <pains_flag>  (100) 


>  <MW>  (100) 
434.5

>  <cLogP>  (100) 
5.59

>  <HBD>  (100) 
2

>  <HBA>  (100) 
5

>  <TPSA>  (100) 
83.8

>  <ArRings>  (100) 
1

$$$$
SANC00369_minRM1.pdb
     RDKit          2D

 33 36  0  0  0  0  0  0  0  0999 V2000
    0.7500   -6.4952    0.0000 C   0  0  0  0  0  0  0  0  0  0  0  0
    1.5000   -5.1962    0.0000 C   0  0  0  0  0  0  0  0  0  0  0  0
    3.0000   -5.1962    0.0000 C   0  0  0  0  0  0  0  0  0  0  0  0
    0.7500   -3.8971    0.0000 C   0  0  0  0  0  0  0  0  0  0  0  0
    1.5000   -2.5981    0.0000 C   0  0  0  0  0  0  0  0  0  0  0  0
    0.7500   -1.2990    0.0000 C   0  0  0  0  0  0  0  0  0  0  0  0
    1.5000    0.0000    0.0000 C   0  0  0  0  0  0  0  0  0  0  0  0
    0.7500    1.2990    0.0000 C   0  0  0  0  0  0  0  0  0  0  0  0
   -0.7500    1.2990    0.0000 C   0  0  0  0  0  0  0  0  0  0  0  0
   -1.5000    2.5981    0.0000 C   0  0  0  0  0  0  0  0  0  0  0  0
   -1.7605    4.0753    0.0000 C   0  0  0  0  0  0  0  0  0  0  0  0
   -0.0905    3.1111    0.0000 C   0  0  0  0  0  0  0  0  0  0  0  0
   -3.0000    2.5981    0.0000 C   0  0  0  0  0  0  0  0  0  0  0  0
   -3.7500    1.2990    0.0000 C   0  0  0  0  0  0  0  0  0  0  0  0
   -5.2500    1.2990    0.0000 O   0  0  0  0  0  0  0  0  0  0  0  0
   -6.0000    2.5981    0.0000 C   0  0  0  0  0  0  0  0  0  0  0  0
   -5.2500    3.8971    0.0000 O   0  0  0  0  0  0  0  0  0  0  0  0
   -7.5000    2.5981    0.0000 C   0  0  0  0  0  0  0  0  0  0  0  0
   -8.2500    3.8971    0.0000 C   0  0  0  0  0  0  0  0  0  0  0  0
   -9.7500    3.8971    0.0000 C   0  0  0  0  0  0  0  0  0  0  0  0
  -10.5000    2.5981    0.0000 C   0  0  0  0  0  0  0  0  0  0  0  0
  -12.0000    2.5981    0.0000 O   0  0  0  0  0  0  0  0  0  0  0  0
   -9.7500    1.2990    0.0000 C   0  0  0  0  0  0  0  0  0  0  0  0
  -10.5000   -0.0000    0.0000 O   0  0  0  0  0  0  0  0  0  0  0  0
   -8.2500    1.2990    0.0000 C   0  0  0  0  0  0  0  0  0  0  0  0
   -3.0000    0.0000    0.0000 C   0  0  0  0  0  0  0  0  0  0  0  0
   -1.5000    0.0000    0.0000 C   0  0  0  0  0  0  0  0  0  0  0  0
   -2.2500   -1.2990    0.0000 C   0  0  0  0  0  0  0  0  0  0  0  0
   -0.7500   -1.2990    0.0000 C   0  0  0  0  0  0  0  0  0  0  0  0
   -1.5000   -2.5981    0.0000 C   0  0  0  0  0  0  0  0  0  0  0  0
   -3.0000   -2.5981    0.0000 O   0  0  0  0  0  0  0  0  0  0  0  0
   -0.7500   -3.8971    0.0000 C   0  0  0  0  0  0  0  0  0  0  0  0
   -1.5000   -5.1962    0.0000 O   0  0  0  0  0  0  0  0  0  0  0  0
  1  2  1  0
  2  3  1  0
  2  4  1  0
  4  5  2  0
  5  6  1  0
  6  7  2  0
  7  8  1  0
  8  9  2  0
  9 10  1  0
 10 11  1  0
 10 12  1  0
 10 13  1  0
 13 14  1  0
 14 15  1  1
 15 16  1  0
 16 17  2  0
 16 18  1  0
 18 19  2  0
 19 20  1  0
 20 21  2  0
 21 22  1  0
 21 23  1  0
 23 24  1  0
 23 25  2  0
 14 26  1  0
 26 27  1  0
 27 28  1  6
 27 29  1  0
 29 30  2  0
 30 31  1  0
 30 32  1  0
 32 33  2  0
 32  4  1  0
 29  6  1  0
 27  9  1  0
 25 18  1  0
M  END
>  <id>  (101) 
SANC00369_minRM1.pdb

>  <SMILES>  (101) 
CC(C)C1=CC2=CC=C3C(C)(C)C[C@H](OC(=O)c4ccc(O)c(O)c4)C[C@]3(C)C2=C(O)C1=O

>  <warheads>  (101) 
ab_unsat_carbonyl:2

>  <n_warheads>  (101) 
2

>  <max_tier>  (101) 
1

>  <pains_flag>  (101) 
catechol_A(92)

>  <MW>  (101) 
450.5

>  <cLogP>  (101) 
5.29

>  <HBD>  (101) 
3

>  <HBA>  (101) 
6

>  <TPSA>  (101) 
104.1

>  <ArRings>  (101) 
1

$$$$
SANC00370_minRM1.pdb
     RDKit          2D

 44 47  0  0  0  0  0  0  0  0999 V2000
    3.0000    0.0000    0.0000 C   0  0  0  0  0  0  0  0  0  0  0  0
    1.5000    0.0000    0.0000 C   0  0  0  0  0  0  0  0  0  0  0  0
    0.7500   -1.2990    0.0000 O   0  0  0  0  0  0  0  0  0  0  0  0
   -0.7500   -1.2990    0.0000 C   0  0  0  0  0  0  0  0  0  0  0  0
   -1.5000   -2.5981    0.0000 O   0  0  0  0  0  0  0  0  0  0  0  0
   -0.7500   -3.8971    0.0000 C   0  0  0  0  0  0  0  0  0  0  0  0
   -1.5000   -5.1962    0.0000 C   0  0  0  0  0  0  0  0  0  0  0  0
   -3.0000   -5.1962    0.0000 O   0  0  0  0  0  0  0  0  0  0  0  0
   -0.7500   -6.4952    0.0000 C   0  0  0  0  0  0  0  0  0  0  0  0
   -1.5000   -7.7942    0.0000 O   0  0  0  0  0  0  0  0  0  0  0  0
   -0.7500   -9.0933    0.0000 C   0  0  0  0  0  0  0  0  0  0  0  0
   -1.5000  -10.3923    0.0000 C   0  0  0  0  0  0  0  0  0  0  0  0
   -0.7500  -11.6913    0.0000 C   0  0  0  0  0  0  0  0  0  0  0  0
   -1.5000  -12.9904    0.0000 C   0  0  0  0  0  0  0  0  0  0  0  0
   -0.7500  -14.2894    0.0000 C   0  0  0  0  0  0  0  0  0  0  0  0
    0.7500  -14.2894    0.0000 C   0  0  0  0  0  0  0  0  0  0  0  0
    1.5000  -15.5885    0.0000 O   0  0  0  0  0  0  0  0  0  0  0  0
    1.5000  -12.9904    0.0000 C   0  0  0  0  0  0  0  0  0  0  0  0
    3.0000  -12.9904    0.0000 O   0  0  0  0  0  0  0  0  0  0  0  0
    0.7500  -11.6913    0.0000 C   0  0  0  0  0  0  0  0  0  0  0  0
    0.7500   -6.4952    0.0000 O   0  0  0  0  0  0  0  0  0  0  0  0
    1.5000   -5.1962    0.0000 C   0  0  0  0  0  0  0  0  0  0  0  0
    3.0000   -5.1962    0.0000 C   0  0  0  0  0  0  0  0  0  0  0  0
    3.7500   -6.4952    0.0000 O   0  0  0  0  0  0  0  0  0  0  0  0
    0.7500   -3.8971    0.0000 C   0  0  0  0  0  0  0  0  0  0  0  0
    1.5000   -2.5981    0.0000 O   0  0  0  0  0  0  0  0  0  0  0  0
    3.0000   -2.5981    0.0000 C   0  0  0  0  0  0  0  0  0  0  0  0
    3.7500   -3.8971    0.0000 O   0  0  0  0  0  0  0  0  0  0  0  0
    3.7500   -1.2990    0.0000 C   0  0  0  0  0  0  0  0  0  0  0  0
    5.2500   -1.2990    0.0000 C   0  0  0  0  0  0  0  0  0  0  0  0
    6.0000   -0.0000    0.0000 C   0  0  0  0  0  0  0  0  0  0  0  0
    7.5000   -0.0000    0.0000 C   0  0  0  0  0  0  0  0  0  0  0  0
    8.2500    1.2990    0.0000 C   0  0  0  0  0  0  0  0  0  0  0  0
    7.5000    2.5981    0.0000 C   0  0  0  0  0  0  0  0  0  0  0  0
    8.2500    3.8971    0.0000 O   0  0  0  0  0  0  0  0  0  0  0  0
    6.0000    2.5981    0.0000 C   0  0  0  0  0  0  0  0  0  0  0  0
    5.2500    3.8971    0.0000 O   0  0  0  0  0  0  0  0  0  0  0  0
    5.2500    1.2990    0.0000 C   0  0  0  0  0  0  0  0  0  0  0  0
   -1.5000    0.0000    0.0000 C   0  0  0  0  0  0  0  0  0  0  0  0
   -3.0000    0.0000    0.0000 O   0  0  0  0  0  0  0  0  0  0  0  0
   -0.7500    1.2990    0.0000 C   0  0  0  0  0  0  0  0  0  0  0  0
   -1.5000    2.5981    0.0000 O   0  0  0  0  0  0  0  0  0  0  0  0
    0.7500    1.2990    0.0000 C   0  0  0  0  0  0  0  0  0  0  0  0
    1.5000    2.5981    0.0000 O   0  0  0  0  0  0  0  0  0  0  0  0
  2  1  1  6
  2  3  1  0
  3  4  1  0
  4  5  1  1
  6  5  1  1
  6  7  1  0
  7  8  1  6
  7  9  1  0
  9 10  1  1
 10 11  1  0
 11 12  1  0
 12 13  1  0
 13 14  2  0
 14 15  1  0
 15 16  2  0
 16 17  1  0
 16 18  1  0
 18 19  1  0
 18 20  2  0
  9 21  1  0
 21 22  1  0
 22 23  1  1
 23 24  1  0
 22 25  1  0
 25 26  1  6
 26 27  1  0
 27 28  2  0
 27 29  1  0
 29 30  2  0
 30 31  1  0
 31 32  2  0
 32 33  1  0
 33 34  2  0
 34 35  1  0
 34 36  1  0
 36 37  1  0
 36 38  2  0
  4 39  1  0
 39 40  1  6
 39 41  1  0
 41 42  1  6
 41 43  1  0
 43 44  1  1
 43  2  1  0
 25  6  1  0
 38 31  1  0
 20 13  1  0
M  END
>  <id>  (102) 
SANC00370_minRM1.pdb

>  <SMILES>  (102) 
C[C@@H]1O[C@@H](O[C@@H]2[C@@H](O)[C@H](OCCc3ccc(O)c(O)c3)O[C@H](CO)[C@H]2OC(=O)/C=C/c2ccc(O)c(O)c2)[C@H](O)[C@H](O)[C@H]1O

>  <warheads>  (102) 
ab_unsat_carbonyl:1

>  <n_warheads>  (102) 
1

>  <max_tier>  (102) 
1

>  <pains_flag>  (102) 
catechol_A(92)

>  <MW>  (102) 
624.6

>  <cLogP>  (102) 
-1.02

>  <HBD>  (102) 
9

>  <HBA>  (102) 
15

>  <TPSA>  (102) 
245.3

>  <ArRings>  (102) 
2

$$$$
SANC00371_minRM1.pdb
     RDKit          2D

 29 31  0  0  0  0  0  0  0  0999 V2000
    4.1658   -7.3242    0.0000 C   0  0  0  0  0  0  0  0  0  0  0  0
    4.4263   -5.8470    0.0000 C   0  0  0  0  0  0  0  0  0  0  0  0
    5.8358   -5.3339    0.0000 C   0  0  0  0  0  0  0  0  0  0  0  0
    3.2772   -4.8828    0.0000 C   0  0  0  0  0  0  0  0  0  0  0  0
    3.5377   -3.4056    0.0000 C   0  0  0  0  0  0  0  0  0  0  0  0
    4.9472   -2.8925    0.0000 O   0  0  0  0  0  0  0  0  0  0  0  0
    2.3886   -2.4414    0.0000 O   0  0  0  0  0  0  0  0  0  0  0  0
    2.6491   -0.9642    0.0000 C   0  0  0  0  0  0  0  0  0  0  0  0
    1.5000    0.0000    0.0000 C   0  0  0  0  0  0  0  0  0  0  0  0
    2.6491    0.9642    0.0000 C   0  0  0  0  0  0  0  0  0  0  0  0
    0.7500   -1.2990    0.0000 C   0  0  0  0  0  0  0  0  0  0  0  0
   -0.7500   -1.2990    0.0000 C   0  0  0  0  0  0  0  0  0  0  0  0
   -1.5000    0.0000    0.0000 C   0  0  0  0  0  0  0  0  0  0  0  0
   -0.7500    1.2990    0.0000 C   0  0  0  0  0  0  0  0  0  0  0  0
   -2.2500    1.2990    0.0000 C   0  0  0  0  0  0  0  0  0  0  0  0
    0.7500    1.2990    0.0000 C   0  0  0  0  0  0  0  0  0  0  0  0
    1.5000    2.5981    0.0000 C   0  0  0  0  0  0  0  0  0  0  0  0
    0.7500    3.8971    0.0000 C   0  0  0  0  0  0  0  0  0  0  0  0
   -0.7500    3.8971    0.0000 C   0  0  0  0  0  0  0  0  0  0  0  0
   -1.5000    5.1962    0.0000 C   0  0  0  0  0  0  0  0  0  0  0  0
   -3.0000    5.1962    0.0000 C   0  0  0  0  0  0  0  0  0  0  0  0
   -3.7500    6.4952    0.0000 C   0  0  0  0  0  0  0  0  0  0  0  0
   -3.0000    7.7942    0.0000 C   0  0  0  0  0  0  0  0  0  0  0  0
   -5.2500    6.4952    0.0000 C   0  0  0  0  0  0  0  0  0  0  0  0
   -3.7500    3.8971    0.0000 C   0  0  0  0  0  0  0  0  0  0  0  0
   -5.2500    3.8971    0.0000 O   0  0  0  0  0  0  0  0  0  0  0  0
   -3.0000    2.5981    0.0000 C   0  0  0  0  0  0  0  0  0  0  0  0
   -3.7500    1.2990    0.0000 O   0  0  0  0  0  0  0  0  0  0  0  0
   -1.5000    2.5981    0.0000 C   0  0  0  0  0  0  0  0  0  0  0  0
  1  2  1  0
  2  3  1  0
  2  4  2  0
  4  5  1  0
  5  6  2  0
  5  7  1  0
  7  8  1  0
  8  9  1  0
  9 10  1  6
  9 11  1  0
 11 12  1  0
 12 13  1  0
 13 14  1  0
 14 15  1  1
 14 16  1  0
 16 17  2  0
 17 18  1  0
 18 19  2  0
 19 20  1  0
 20 21  2  0
 21 22  1  0
 22 23  1  0
 22 24  1  0
 21 25  1  0
 25 26  2  0
 25 27  1  0
 27 28  1  0
 27 29  2  0
 16  9  1  0
 29 19  1  0
 29 14  1  0
M  END
>  <id>  (103) 
SANC00371_minRM1.pdb

>  <SMILES>  (103) 
CC(C)=CC(=O)OC[C@@]1(C)CCC[C@@]2(C)C1=CC=C1C=C(C(C)C)C(=O)C(O)=C12

>  <warheads>  (103) 
ab_unsat_carbonyl:3

>  <n_warheads>  (103) 
3

>  <max_tier>  (103) 
1

>  <pains_flag>  (103) 


>  <MW>  (103) 
396.5

>  <cLogP>  (103) 
5.54

>  <HBD>  (103) 
1

>  <HBA>  (103) 
4

>  <TPSA>  (103) 
63.6

>  <ArRings>  (103) 
0

$$$$
SANC00372_minRM1.pdb
     RDKit          2D

 32 35  0  0  0  0  0  0  0  0999 V2000
   -8.2500    1.2990    0.0000 C   0  0  0  0  0  0  0  0  0  0  0  0
   -7.5000    0.0000    0.0000 C   0  0  0  0  0  0  0  0  0  0  0  0
   -8.2500   -1.2990    0.0000 C   0  0  0  0  0  0  0  0  0  0  0  0
   -6.0000    0.0000    0.0000 C   0  0  0  0  0  0  0  0  0  0  0  0
   -5.2500   -1.2990    0.0000 C   0  0  0  0  0  0  0  0  0  0  0  0
   -3.7500   -1.2990    0.0000 C   0  0  0  0  0  0  0  0  0  0  0  0
   -3.0000   -2.5981    0.0000 C   0  0  0  0  0  0  0  0  0  0  0  0
   -1.5000   -2.5981    0.0000 C   0  0  0  0  0  0  0  0  0  0  0  0
   -0.7500   -1.2990    0.0000 C   0  0  0  0  0  0  0  0  0  0  0  0
    0.7500   -1.2990    0.0000 C   0  0  0  0  0  0  0  0  0  0  0  0
    2.1595   -1.8121    0.0000 C   0  0  0  0  0  0  0  0  0  0  0  0
    0.4895   -2.7762    0.0000 C   0  0  0  0  0  0  0  0  0  0  0  0
    1.6386   -3.7404    0.0000 O   0  0  0  0  0  0  0  0  0  0  0  0
    1.3781   -5.2176    0.0000 C   0  0  0  0  0  0  0  0  0  0  0  0
   -0.0314   -5.7307    0.0000 O   0  0  0  0  0  0  0  0  0  0  0  0
    2.5272   -6.1818    0.0000 C   0  0  0  0  0  0  0  0  0  0  0  0
    2.2667   -7.6590    0.0000 C   0  0  0  0  0  0  0  0  0  0  0  0
    3.4158   -8.6232    0.0000 C   0  0  0  0  0  0  0  0  0  0  0  0
    4.8253   -8.1102    0.0000 C   0  0  0  0  0  0  0  0  0  0  0  0
    5.9744   -9.0744    0.0000 O   0  0  0  0  0  0  0  0  0  0  0  0
    5.0858   -6.6330    0.0000 C   0  0  0  0  0  0  0  0  0  0  0  0
    3.9367   -5.6688    0.0000 C   0  0  0  0  0  0  0  0  0  0  0  0
    1.5000    0.0000    0.0000 C   0  0  0  0  0  0  0  0  0  0  0  0
    0.7500    1.2990    0.0000 C   0  0  0  0  0  0  0  0  0  0  0  0
   -0.7500    1.2990    0.0000 C   0  0  0  0  0  0  0  0  0  0  0  0
   -1.5000    0.0000    0.0000 C   0  0  0  0  0  0  0  0  0  0  0  0
   -2.2500    1.2990    0.0000 C   0  0  0  0  0  0  0  0  0  0  0  0
   -3.0000    0.0000    0.0000 C   0  0  0  0  0  0  0  0  0  0  0  0
   -3.7500    1.2990    0.0000 C   0  0  0  0  0  0  0  0  0  0  0  0
   -3.0000    2.5981    0.0000 O   0  0  0  0  0  0  0  0  0  0  0  0
   -5.2500    1.2990    0.0000 C   0  0  0  0  0  0  0  0  0  0  0  0
   -6.0000    2.5981    0.0000 O   0  0  0  0  0  0  0  0  0  0  0  0
  1  2  1  0
  2  3  1  0
  2  4  1  0
  4  5  2  0
  5  6  1  0
  6  7  2  0
  7  8  1  0
  8  9  2  0
  9 10  1  0
 10 11  1  1
 10 12  1  0
 12 13  1  0
 13 14  1  0
 14 15  2  0
 14 16  1  0
 16 17  2  0
 17 18  1  0
 18 19  2  0
 19 20  1  0
 19 21  1  0
 21 22  2  0
 10 23  1  0
 23 24  1  0
 24 25  1  0
 25 26  1  0
 26 27  1  6
 26 28  1  0
 28 29  2  0
 29 30  1  0
 29 31  1  0
 31 32  2  0
 31  4  1  0
 28  6  1  0
 26  9  1  0
 22 16  1  0
M  END
>  <id>  (104) 
SANC00372_minRM1.pdb

>  <SMILES>  (104) 
CC(C)C1=CC2=CC=C3[C@@](C)(COC(=O)c4ccc(O)cc4)CCC[C@]3(C)C2=C(O)C1=O

>  <warheads>  (104) 
ab_unsat_carbonyl:2

>  <n_warheads>  (104) 
2

>  <max_tier>  (104) 
1

>  <pains_flag>  (104) 


>  <MW>  (104) 
434.5

>  <cLogP>  (104) 
5.59

>  <HBD>  (104) 
2

>  <HBA>  (104) 
5

>  <TPSA>  (104) 
83.8

>  <ArRings>  (104) 
1

$$$$
SANC00373_minRM1.pdb
     RDKit          2D

 33 36  0  0  0  0  0  0  0  0999 V2000
   -8.2500    1.2990    0.0000 C   0  0  0  0  0  0  0  0  0  0  0  0
   -7.5000    0.0000    0.0000 C   0  0  0  0  0  0  0  0  0  0  0  0
   -8.2500   -1.2990    0.0000 C   0  0  0  0  0  0  0  0  0  0  0  0
   -6.0000    0.0000    0.0000 C   0  0  0  0  0  0  0  0  0  0  0  0
   -5.2500   -1.2990    0.0000 C   0  0  0  0  0  0  0  0  0  0  0  0
   -3.7500   -1.2990    0.0000 C   0  0  0  0  0  0  0  0  0  0  0  0
   -3.0000   -2.5981    0.0000 C   0  0  0  0  0  0  0  0  0  0  0  0
   -1.5000   -2.5981    0.0000 C   0  0  0  0  0  0  0  0  0  0  0  0
   -0.7500   -1.2990    0.0000 C   0  0  0  0  0  0  0  0  0  0  0  0
    0.7500   -1.2990    0.0000 C   0  0  0  0  0  0  0  0  0  0  0  0
    2.1595   -1.8121    0.0000 C   0  0  0  0  0  0  0  0  0  0  0  0
    0.4895   -2.7762    0.0000 C   0  0  0  0  0  0  0  0  0  0  0  0
    1.6386   -3.7404    0.0000 O   0  0  0  0  0  0  0  0  0  0  0  0
    1.3781   -5.2176    0.0000 C   0  0  0  0  0  0  0  0  0  0  0  0
   -0.0314   -5.7307    0.0000 O   0  0  0  0  0  0  0  0  0  0  0  0
    2.5272   -6.1818    0.0000 C   0  0  0  0  0  0  0  0  0  0  0  0
    2.2667   -7.6590    0.0000 C   0  0  0  0  0  0  0  0  0  0  0  0
    3.4158   -8.6232    0.0000 C   0  0  0  0  0  0  0  0  0  0  0  0
    4.8253   -8.1102    0.0000 C   0  0  0  0  0  0  0  0  0  0  0  0
    5.9744   -9.0744    0.0000 O   0  0  0  0  0  0  0  0  0  0  0  0
    5.0858   -6.6330    0.0000 C   0  0  0  0  0  0  0  0  0  0  0  0
    6.4953   -6.1199    0.0000 O   0  0  0  0  0  0  0  0  0  0  0  0
    3.9367   -5.6688    0.0000 C   0  0  0  0  0  0  0  0  0  0  0  0
    1.5000    0.0000    0.0000 C   0  0  0  0  0  0  0  0  0  0  0  0
    0.7500    1.2990    0.0000 C   0  0  0  0  0  0  0  0  0  0  0  0
   -0.7500    1.2990    0.0000 C   0  0  0  0  0  0  0  0  0  0  0  0
   -1.5000    0.0000    0.0000 C   0  0  0  0  0  0  0  0  0  0  0  0
   -2.2500    1.2990    0.0000 C   0  0  0  0  0  0  0  0  0  0  0  0
   -3.0000    0.0000    0.0000 C   0  0  0  0  0  0  0  0  0  0  0  0
   -3.7500    1.2990    0.0000 C   0  0  0  0  0  0  0  0  0  0  0  0
   -3.0000    2.5981    0.0000 O   0  0  0  0  0  0  0  0  0  0  0  0
   -5.2500    1.2990    0.0000 C   0  0  0  0  0  0  0  0  0  0  0  0
   -6.0000    2.5981    0.0000 O   0  0  0  0  0  0  0  0  0  0  0  0
  1  2  1  0
  2  3  1  0
  2  4  1  0
  4  5  2  0
  5  6  1  0
  6  7  2  0
  7  8  1  0
  8  9  2  0
  9 10  1  0
 10 11  1  1
 10 12  1  0
 12 13  1  0
 13 14  1  0
 14 15  2  0
 14 16  1  0
 16 17  2  0
 17 18  1  0
 18 19  2  0
 19 20  1  0
 19 21  1  0
 21 22  1  0
 21 23  2  0
 10 24  1  0
 24 25  1  0
 25 26  1  0
 26 27  1  0
 27 28  1  6
 27 29  1  0
 29 30  2  0
 30 31  1  0
 30 32  1  0
 32 33  2  0
 32  4  1  0
 29  6  1  0
 27  9  1  0
 23 16  1  0
M  END
>  <id>  (105) 
SANC00373_minRM1.pdb

>  <SMILES>  (105) 
CC(C)C1=CC2=CC=C3[C@@](C)(COC(=O)c4ccc(O)c(O)c4)CCC[C@]3(C)C2=C(O)C1=O

>  <warheads>  (105) 
ab_unsat_carbonyl:2

>  <n_warheads>  (105) 
2

>  <max_tier>  (105) 
1

>  <pains_flag>  (105) 
catechol_A(92)

>  <MW>  (105) 
450.5

>  <cLogP>  (105) 
5.29

>  <HBD>  (105) 
3

>  <HBA>  (105) 
6

>  <TPSA>  (105) 
104.1

>  <ArRings>  (105) 
1

$$$$
SANC00377_minRM1.pdb
     RDKit          2D

 22 25  0  0  0  0  0  0  0  0999 V2000
   -3.3370   -6.5309    0.0000 C   0  0  0  0  0  0  0  0  0  0  0  0
   -3.0251   -5.0636    0.0000 O   0  0  0  0  0  0  0  0  0  0  0  0
   -1.5986   -4.6001    0.0000 C   0  0  0  0  0  0  0  0  0  0  0  0
   -0.4838   -5.6038    0.0000 C   0  0  0  0  0  0  0  0  0  0  0  0
    0.9427   -5.1403    0.0000 C   0  0  0  0  0  0  0  0  0  0  0  0
    1.2546   -3.6731    0.0000 C   0  0  0  0  0  0  0  0  0  0  0  0
    0.1399   -2.6694    0.0000 C   0  0  0  0  0  0  0  0  0  0  0  0
   -1.2867   -3.1329    0.0000 C   0  0  0  0  0  0  0  0  0  0  0  0
   -2.4014   -2.1292    0.0000 O   0  0  0  0  0  0  0  0  0  0  0  0
    0.7500   -1.2990    0.0000 C   0  0  0  0  0  0  0  0  0  0  0  0
    1.5000    0.0000    0.0000 C   0  0  0  0  0  0  0  0  0  0  0  0
    0.7500    1.2990    0.0000 C   0  0  0  0  0  0  0  0  0  0  0  0
   -0.7500    1.2990    0.0000 C   0  0  0  0  0  0  0  0  0  0  0  0
   -1.5000    2.5981    0.0000 O   0  0  0  0  0  0  0  0  0  0  0  0
   -1.5000    0.0000    0.0000 C   0  0  0  0  0  0  0  0  0  0  0  0
   -0.7500   -1.2990    0.0000 C   0  0  0  0  0  0  0  0  0  0  0  0
    2.2418   -1.4558    0.0000 C   0  0  0  0  0  0  0  0  0  0  0  0
    2.5537   -2.9231    0.0000 C   0  0  0  0  0  0  0  0  0  0  0  0
    3.6834   -3.9201    0.0000 N   0  0  0  0  0  0  0  0  0  0  0  0
    5.0537   -3.3100    0.0000 C   0  0  0  0  0  0  0  0  0  0  0  0
    3.5266   -5.4118    0.0000 C   0  0  0  0  0  0  0  0  0  0  0  0
    2.1563   -6.0220    0.0000 C   0  0  0  0  0  0  0  0  0  0  0  0
  1  2  1  0
  2  3  1  0
  3  4  2  0
  4  5  1  0
  5  6  2  0
  6  7  1  0
  7  8  2  0
  8  9  1  0
  7 10  1  0
 10 11  1  0
 11 12  2  0
 12 13  1  0
 13 14  2  0
 13 15  1  0
 15 16  2  0
 10 17  1  0
 18 17  1  6
 18 19  1  0
 19 20  1  0
 19 21  1  0
 21 22  1  0
  8  3  1  0
 16 10  1  0
 22  5  1  0
 18  6  1  0
M  END
>  <id>  (106) 
SANC00377_minRM1.pdb

>  <SMILES>  (106) 
COc1cc2c3c(c1O)C1(C=CC(=O)C=C1)C[C@@H]3N(C)CC2

>  <warheads>  (106) 
ab_unsat_carbonyl:2

>  <n_warheads>  (106) 
2

>  <max_tier>  (106) 
1

>  <pains_flag>  (106) 


>  <MW>  (106) 
297.4

>  <cLogP>  (106) 
2.27

>  <HBD>  (106) 
1

>  <HBA>  (106) 
4

>  <TPSA>  (106) 
49.8

>  <ArRings>  (106) 
1

$$$$
SANC00378_minRM1.pdb
     RDKit          2D

 23 26  0  0  0  0  0  0  0  0999 V2000
   -4.1399   -4.0599    0.0000 C   0  0  0  0  0  0  0  0  0  0  0  0
   -3.0251   -5.0636    0.0000 O   0  0  0  0  0  0  0  0  0  0  0  0
   -1.5986   -4.6001    0.0000 C   0  0  0  0  0  0  0  0  0  0  0  0
   -0.4838   -5.6038    0.0000 C   0  0  0  0  0  0  0  0  0  0  0  0
    0.9427   -5.1403    0.0000 C   0  0  0  0  0  0  0  0  0  0  0  0
    1.2546   -3.6731    0.0000 C   0  0  0  0  0  0  0  0  0  0  0  0
    0.1399   -2.6694    0.0000 C   0  0  0  0  0  0  0  0  0  0  0  0
   -1.2867   -3.1329    0.0000 C   0  0  0  0  0  0  0  0  0  0  0  0
   -2.4014   -2.1292    0.0000 O   0  0  0  0  0  0  0  0  0  0  0  0
   -3.8280   -2.5927    0.0000 C   0  0  0  0  0  0  0  0  0  0  0  0
    0.7500   -1.2990    0.0000 C   0  0  0  0  0  0  0  0  0  0  0  0
    1.5000    0.0000    0.0000 C   0  0  0  0  0  0  0  0  0  0  0  0
    0.7500    1.2990    0.0000 C   0  0  0  0  0  0  0  0  0  0  0  0
   -0.7500    1.2990    0.0000 C   0  0  0  0  0  0  0  0  0  0  0  0
   -1.5000    2.5981    0.0000 O   0  0  0  0  0  0  0  0  0  0  0  0
   -1.5000    0.0000    0.0000 C   0  0  0  0  0  0  0  0  0  0  0  0
   -0.7500   -1.2990    0.0000 C   0  0  0  0  0  0  0  0  0  0  0  0
    2.2418   -1.4558    0.0000 C   0  0  0  0  0  0  0  0  0  0  0  0
    2.5537   -2.9231    0.0000 C   0  0  0  0  0  0  0  0  0  0  0  0
    3.6834   -3.9201    0.0000 N   0  0  0  0  0  0  0  0  0  0  0  0
    5.0537   -3.3100    0.0000 C   0  0  0  0  0  0  0  0  0  0  0  0
    3.5266   -5.4118    0.0000 C   0  0  0  0  0  0  0  0  0  0  0  0
    2.1563   -6.0220    0.0000 C   0  0  0  0  0  0  0  0  0  0  0  0
  1  2  1  0
  2  3  1  0
  3  4  2  0
  4  5  1  0
  5  6  2  0
  6  7  1  0
  7  8  2  0
  8  9  1  0
  9 10  1  0
  7 11  1  0
 11 12  1  0
 12 13  2  0
 13 14  1  0
 14 15  2  0
 14 16  1  0
 16 17  2  0
 11 18  1  0
 19 18  1  1
 19 20  1  0
 20 21  1  0
 20 22  1  0
 22 23  1  0
  8  3  1  0
 17 11  1  0
 23  5  1  0
 19  6  1  0
M  END
>  <id>  (107) 
SANC00378_minRM1.pdb

>  <SMILES>  (107) 
COc1cc2c3c(c1OC)C1(C=CC(=O)C=C1)C[C@H]3N(C)CC2

>  <warheads>  (107) 
ab_unsat_carbonyl:2

>  <n_warheads>  (107) 
2

>  <max_tier>  (107) 
1

>  <pains_flag>  (107) 


>  <MW>  (107) 
311.4

>  <cLogP>  (107) 
2.57

>  <HBD>  (107) 
0

>  <HBA>  (107) 
4

>  <TPSA>  (107) 
38.8

>  <ArRings>  (107) 
1

$$$$
SANC00379_minRM1.pdb
     RDKit          2D

 24 27  0  0  0  0  0  0  0  0999 V2000
    3.7500   -1.2990    0.0000 C   0  0  0  0  0  0  0  0  0  0  0  0
    3.0000    0.0000    0.0000 O   0  0  0  0  0  0  0  0  0  0  0  0
    0.8000   -0.0000    0.0000 C   0  0  0  0  0  0  0  0  0  0  0  0
    0.4000   -0.6928    0.0000 C   0  0  0  0  0  0  0  0  0  0  0  0
   -0.7500   -1.2990    0.0000 C   0  0  0  0  0  0  0  0  0  0  0  0
   -1.5000   -2.5981    0.0000 C   0  0  0  0  0  0  0  0  0  0  0  0
   -3.0000   -2.5981    0.0000 C   0  0  0  0  0  0  0  0  0  0  0  0
   -3.7500   -1.2990    0.0000 N   0  0  0  0  0  0  0  0  0  0  0  0
   -5.2500   -1.2990    0.0000 C   0  0  0  0  0  0  0  0  0  0  0  0
   -3.0000    0.0000    0.0000 C   0  0  0  0  0  0  0  0  0  0  0  0
   -2.2500    1.2990    0.0000 C   0  0  0  0  0  0  0  0  0  0  0  0
   -0.7500    1.2990    0.0000 C   0  0  0  0  0  0  0  0  0  0  0  0
    0.3500    1.9919    0.0000 C   0  0  0  0  0  0  0  0  0  0  0  0
    1.1500    1.9919    0.0000 C   0  0  0  0  0  0  0  0  0  0  0  0
    1.5500    1.2990    0.0000 C   0  0  0  0  0  0  0  0  0  0  0  0
    3.7500    1.2990    0.0000 O   0  0  0  0  0  0  0  0  0  0  0  0
    4.5000    2.5981    0.0000 C   0  0  0  0  0  0  0  0  0  0  0  0
    1.1500    0.6062    0.0000 C   0  0  0  0  0  0  0  0  0  0  0  0
    2.2500   -1.2990    0.0000 O   0  0  0  0  0  0  0  0  0  0  0  0
   -0.0000    0.0000    0.0000 C   0  0  0  0  0  0  0  0  0  0  0  0
   -1.5000    0.0000    0.0000 C   0  0  0  0  0  0  0  0  0  0  0  0
   -0.4000    0.6928    0.0000 C   0  0  0  0  0  0  0  0  0  0  0  0
    0.4000    0.6928    0.0000 C   0  0  0  0  0  0  0  0  0  0  0  0
    0.8854    1.2804    0.0000 O   0  0  0  0  0  0  0  0  0  0  0  0
  1  2  1  0
  2  3  1  0
  3  4  2  0
  4  5  1  0
  5  6  1  6
  6  7  1  0
  7  8  1  0
  8  9  1  0
  8 10  1  0
 10 11  1  6
 11 12  1  0
 12 13  2  0
 13 14  1  0
 14 15  2  0
 15 16  1  0
 16 17  1  0
 15 18  1  0
 18 19  1  0
 18 20  2  0
 10 21  1  0
 21 22  2  0
 22 23  1  0
 23 24  2  0
 23  3  1  0
 20  5  1  0
 21  5  1  0
 20 12  1  0
M  END
>  <id>  (108) 
SANC00379_minRM1.pdb

>  <SMILES>  (108) 
COC1=C[C@]23CCN(C)[C@H](Cc4ccc(OC)c(O)c42)C3=CC1=O

>  <warheads>  (108) 
ab_unsat_carbonyl:2

>  <n_warheads>  (108) 
2

>  <max_tier>  (108) 
1

>  <pains_flag>  (108) 


>  <MW>  (108) 
327.4

>  <cLogP>  (108) 
1.94

>  <HBD>  (108) 
1

>  <HBA>  (108) 
5

>  <TPSA>  (108) 
59.0

>  <ArRings>  (108) 
1

$$$$
SANC00382_minRM1.pdb
     RDKit          2D

 21 24  0  0  0  0  0  0  0  0999 V2000
   -3.3370   -6.5309    0.0000 C   0  0  0  0  0  0  0  0  0  0  0  0
   -3.0251   -5.0636    0.0000 O   0  0  0  0  0  0  0  0  0  0  0  0
   -1.5986   -4.6001    0.0000 C   0  0  0  0  0  0  0  0  0  0  0  0
   -0.4838   -5.6038    0.0000 C   0  0  0  0  0  0  0  0  0  0  0  0
    0.9427   -5.1403    0.0000 C   0  0  0  0  0  0  0  0  0  0  0  0
    1.2546   -3.6731    0.0000 C   0  0  0  0  0  0  0  0  0  0  0  0
    0.1399   -2.6694    0.0000 C   0  0  0  0  0  0  0  0  0  0  0  0
   -1.2867   -3.1329    0.0000 C   0  0  0  0  0  0  0  0  0  0  0  0
   -2.4014   -2.1292    0.0000 O   0  0  0  0  0  0  0  0  0  0  0  0
    0.7500   -1.2990    0.0000 C   0  0  0  0  0  0  0  0  0  0  0  0
    1.5000    0.0000    0.0000 C   0  0  0  0  0  0  0  0  0  0  0  0
    0.7500    1.2990    0.0000 C   0  0  0  0  0  0  0  0  0  0  0  0
   -0.7500    1.2990    0.0000 C   0  0  0  0  0  0  0  0  0  0  0  0
   -1.5000    2.5981    0.0000 O   0  0  0  0  0  0  0  0  0  0  0  0
   -1.5000    0.0000    0.0000 C   0  0  0  0  0  0  0  0  0  0  0  0
   -0.7500   -1.2990    0.0000 C   0  0  0  0  0  0  0  0  0  0  0  0
    2.2418   -1.4558    0.0000 C   0  0  0  0  0  0  0  0  0  0  0  0
    2.5537   -2.9231    0.0000 C   0  0  0  0  0  0  0  0  0  0  0  0
    3.6834   -3.9201    0.0000 N   0  0  0  0  0  0  0  0  0  0  0  0
    3.5266   -5.4118    0.0000 C   0  0  0  0  0  0  0  0  0  0  0  0
    2.1563   -6.0220    0.0000 C   0  0  0  0  0  0  0  0  0  0  0  0
  1  2  1  0
  2  3  1  0
  3  4  2  0
  4  5  1  0
  5  6  2  0
  6  7  1  0
  7  8  2  0
  8  9  1  0
  7 10  1  0
 10 11  1  0
 11 12  2  0
 12 13  1  0
 13 14  2  0
 13 15  1  0
 15 16  2  0
 10 17  1  0
 18 17  1  6
 18 19  1  0
 19 20  1  0
 20 21  1  0
  8  3  1  0
 16 10  1  0
 21  5  1  0
 18  6  1  0
M  END
>  <id>  (109) 
SANC00382_minRM1.pdb

>  <SMILES>  (109) 
COc1cc2c3c(c1O)C1(C=CC(=O)C=C1)C[C@@H]3NCC2

>  <warheads>  (109) 
ab_unsat_carbonyl:2

>  <n_warheads>  (109) 
2

>  <max_tier>  (109) 
1

>  <pains_flag>  (109) 


>  <MW>  (109) 
283.3

>  <cLogP>  (109) 
1.92

>  <HBD>  (109) 
2

>  <HBA>  (109) 
4

>  <TPSA>  (109) 
58.6

>  <ArRings>  (109) 
1

$$$$
SANC00412_minRM1.pdb
     RDKit          2D

 39 42  0  0  0  0  0  0  0  0999 V2000
    5.2500   -1.2990    0.0000 C   0  0  0  0  0  0  0  0  0  0  0  0
    3.7500   -1.2990    0.0000 C   0  0  0  0  0  0  0  0  0  0  0  0
    3.0000   -2.5981    0.0000 O   0  0  0  0  0  0  0  0  0  0  0  0
    3.0000    0.0000    0.0000 C   0  0  0  0  0  0  0  0  0  0  0  0
    1.5000    0.0000    0.0000 C   0  0  0  0  0  0  0  0  0  0  0  0
    0.7500   -1.2990    0.0000 C   0  0  0  0  0  0  0  0  0  0  0  0
   -0.7500   -1.2990    0.0000 C   0  0  0  0  0  0  0  0  0  0  0  0
   -1.5000   -2.5981    0.0000 O   0  0  0  0  0  0  0  0  0  0  0  0
   -1.5000    0.0000    0.0000 C   0  0  0  0  0  0  0  0  0  0  0  0
   -3.0000    0.0000    0.0000 C   0  0  0  0  0  0  0  0  0  0  0  0
   -3.7500   -1.2990    0.0000 C   0  0  0  0  0  0  0  0  0  0  0  0
   -3.7500    1.2990    0.0000 C   0  0  0  0  0  0  0  0  0  0  0  0
   -3.0000    2.5981    0.0000 C   0  0  0  0  0  0  0  0  0  0  0  0
   -3.7500    3.8971    0.0000 O   0  0  0  0  0  0  0  0  0  0  0  0
   -1.5000    2.5981    0.0000 C   0  0  0  0  0  0  0  0  0  0  0  0
   -0.7500    3.8971    0.0000 C   0  0  0  0  0  0  0  0  0  0  0  0
    0.7500    3.8971    0.0000 O   0  0  0  0  0  0  0  0  0  0  0  0
    1.5000    5.1962    0.0000 C   0  0  0  0  0  0  0  0  0  0  0  0
    3.0000    5.1962    0.0000 C   0  0  0  0  0  0  0  0  0  0  0  0
    3.7500    3.8971    0.0000 O   0  0  0  0  0  0  0  0  0  0  0  0
    5.2500    3.8971    0.0000 C   0  0  0  0  0  0  0  0  0  0  0  0
    6.0000    5.1962    0.0000 O   0  0  0  0  0  0  0  0  0  0  0  0
    6.0000    2.5981    0.0000 C   0  0  0  0  0  0  0  0  0  0  0  0
    7.5000    2.5981    0.0000 C   0  0  0  0  0  0  0  0  0  0  0  0
    8.2500    1.2990    0.0000 C   0  0  0  0  0  0  0  0  0  0  0  0
    7.5000   -0.0000    0.0000 C   0  0  0  0  0  0  0  0  0  0  0  0
    8.2500   -1.2990    0.0000 C   0  0  0  0  0  0  0  0  0  0  0  0
    9.7500   -1.2990    0.0000 C   0  0  0  0  0  0  0  0  0  0  0  0
   10.5000   -2.5981    0.0000 O   0  0  0  0  0  0  0  0  0  0  0  0
   10.5000   -0.0000    0.0000 C   0  0  0  0  0  0  0  0  0  0  0  0
    9.7500    1.2990    0.0000 C   0  0  0  0  0  0  0  0  0  0  0  0
    0.7500    6.4952    0.0000 C   0  0  0  0  0  0  0  0  0  0  0  0
    1.5000    7.7942    0.0000 O   0  0  0  0  0  0  0  0  0  0  0  0
   -0.7500    6.4952    0.0000 C   0  0  0  0  0  0  0  0  0  0  0  0
   -1.5000    7.7942    0.0000 O   0  0  0  0  0  0  0  0  0  0  0  0
   -1.5000    5.1962    0.0000 C   0  0  0  0  0  0  0  0  0  0  0  0
   -3.0000    5.1962    0.0000 O   0  0  0  0  0  0  0  0  0  0  0  0
   -0.7500    1.2990    0.0000 C   0  0  0  0  0  0  0  0  0  0  0  0
    0.7500    1.2990    0.0000 O   0  0  0  0  0  0  0  0  0  0  0  0
  1  2  1  0
  2  3  2  0
  2  4  1  0
  4  5  1  0
  5  6  2  0
  6  7  1  0
  7  8  2  0
  7  9  1  0
  9 10  2  0
 10 11  1  0
 10 12  1  0
 12 13  2  0
 13 14  1  0
 13 15  1  0
 16 15  1  1
 16 17  1  0
 17 18  1  0
 18 19  1  6
 19 20  1  0
 20 21  1  0
 21 22  2  0
 21 23  1  0
 23 24  2  0
 24 25  1  0
 25 26  2  0
 26 27  1  0
 27 28  2  0
 28 29  1  0
 28 30  1  0
 30 31  2  0
 18 32  1  0
 32 33  1  6
 32 34  1  0
 34 35  1  1
 34 36  1  0
 36 37  1  6
 15 38  2  0
 38 39  1  0
 39  5  1  0
 38  9  1  0
 36 16  1  0
 31 25  1  0
M  END
>  <id>  (110) 
SANC00412_minRM1.pdb

>  <SMILES>  (110) 
CC(=O)Cc1cc(=O)c2c(C)cc(O)c([C@@H]3O[C@@H](COC(=O)/C=C/c4ccc(O)cc4)[C@@H](O)[C@H](O)[C@H]3O)c2o1

>  <warheads>  (110) 
ab_unsat_carbonyl:1

>  <n_warheads>  (110) 
1

>  <max_tier>  (110) 
1

>  <pains_flag>  (110) 


>  <MW>  (110) 
540.5

>  <cLogP>  (110) 
1.42

>  <HBD>  (110) 
5

>  <HBA>  (110) 
11

>  <TPSA>  (110) 
184.0

>  <ArRings>  (110) 
3

$$$$
SANC00421_minRM1.pdb
     RDKit          2D

 34 37  0  0  0  0  0  0  0  0999 V2000
   -4.7718    2.6866    0.0000 C   0  0  0  0  0  0  0  0  0  0  0  0
   -5.2140    4.1199    0.0000 C   0  0  0  0  0  0  0  0  0  0  0  0
   -4.1937    5.2195    0.0000 C   0  0  0  0  0  0  0  0  0  0  0  0
   -2.7313    4.8857    0.0000 C   0  0  0  0  0  0  0  0  0  0  0  0
   -2.2892    3.4524    0.0000 C   0  0  0  0  0  0  0  0  0  0  0  0
   -0.8268    3.1186    0.0000 C   0  0  0  0  0  0  0  0  0  0  0  0
    0.1935    4.2182    0.0000 C   0  0  0  0  0  0  0  0  0  0  0  0
   -0.2487    5.6515    0.0000 C   0  0  0  0  0  0  0  0  0  0  0  0
    1.6559    3.8844    0.0000 C   0  0  0  0  0  0  0  0  0  0  0  0
    2.0980    2.4510    0.0000 C   0  0  0  0  0  0  0  0  0  0  0  0
    1.0777    1.3515    0.0000 C   0  0  0  0  0  0  0  0  0  0  0  0
    1.7286    0.0000    0.0000 O   0  0  0  0  0  0  0  0  0  0  0  0
    1.0777   -1.3515    0.0000 C   0  0  0  0  0  0  0  0  0  0  0  0
    2.5401   -1.6852    0.0000 C   0  0  0  0  0  0  0  0  0  0  0  0
    1.0777   -2.8515    0.0000 C   0  0  0  0  0  0  0  0  0  0  0  0
   -0.3846   -1.6852    0.0000 C   0  0  0  0  0  0  0  0  0  0  0  0
   -0.7184   -3.1476    0.0000 O   0  0  0  0  0  0  0  0  0  0  0  0
   -1.5574   -0.7500    0.0000 C   0  0  0  0  0  0  0  0  0  0  0  0
   -1.5574    0.7500    0.0000 C   0  0  0  0  0  0  0  0  0  0  0  0
   -0.3846    1.6852    0.0000 C   0  0  0  0  0  0  0  0  0  0  0  0
   -1.8180    2.1274    0.0000 C   0  0  0  0  0  0  0  0  0  0  0  0
   -4.6358    6.6529    0.0000 C   0  0  0  0  0  0  0  0  0  0  0  0
   -3.1734    6.3191    0.0000 C   0  0  0  0  0  0  0  0  0  0  0  0
   -3.6156    7.7525    0.0000 C   0  0  0  0  0  0  0  0  0  0  0  0
   -4.0577    9.1858    0.0000 C   0  0  0  0  0  0  0  0  0  0  0  0
   -5.5201    9.5196    0.0000 C   0  0  0  0  0  0  0  0  0  0  0  0
   -5.9622   10.9530    0.0000 O   0  0  0  0  0  0  0  0  0  0  0  0
   -6.5404    8.4200    0.0000 C   0  0  0  0  0  0  0  0  0  0  0  0
   -7.8752    7.7357    0.0000 C   0  0  0  0  0  0  0  0  0  0  0  0
   -7.4461    9.6157    0.0000 C   0  0  0  0  0  0  0  0  0  0  0  0
   -6.0982    6.9867    0.0000 C   0  0  0  0  0  0  0  0  0  0  0  0
   -7.1185    5.8871    0.0000 C   0  0  0  0  0  0  0  0  0  0  0  0
   -6.6763    4.4537    0.0000 C   0  0  0  0  0  0  0  0  0  0  0  0
   -7.6966    3.3541    0.0000 O   0  0  0  0  0  0  0  0  0  0  0  0
  1  2  1  0
  2  3  2  0
  3  4  1  0
  4  5  1  0
  6  5  1  6
  6  7  1  0
  7  8  1  6
  7  9  1  0
  9 10  1  0
 11 10  1  6
 11 12  1  0
 12 13  1  0
 13 14  1  0
 13 15  1  0
 13 16  1  0
 16 17  2  0
 16 18  1  0
 18 19  1  0
 19 20  1  0
 20 21  1  6
  3 22  1  0
 22 23  1  1
 22 24  1  0
 24 25  1  0
 25 26  1  0
 26 27  2  0
 26 28  1  0
 28 29  1  0
 28 30  1  0
 28 31  1  0
 31 32  1  1
 32 33  1  0
 33 34  2  0
 33  2  1  0
 20  6  1  0
 31 22  1  0
 20 11  1  0
M  END
>  <id>  (111) 
SANC00421_minRM1.pdb

>  <SMILES>  (111) 
CC1=C(CC[C@@H]2[C@H](C)CC[C@@H]3OC(C)(C)C(=O)CC[C@]32C)[C@@]2(C)CCC(=O)C(C)(C)[C@@H]2CC1=O

>  <warheads>  (111) 
ab_unsat_carbonyl:1

>  <n_warheads>  (111) 
1

>  <max_tier>  (111) 
1

>  <pains_flag>  (111) 


>  <MW>  (111) 
470.7

>  <cLogP>  (111) 
6.65

>  <HBD>  (111) 
0

>  <HBA>  (111) 
4

>  <TPSA>  (111) 
60.4

>  <ArRings>  (111) 
0

$$$$
SANC00430_minRM1.pdb
     RDKit          2D

 30 31  0  0  0  0  0  0  0  0999 V2000
    2.7760    0.0000    0.0000 C   0  0  0  0  0  0  0  0  0  0  0  0
    1.2760    0.0000    0.0000 C   0  0  0  0  0  0  0  0  0  0  0  0
    0.3943    1.2135    0.0000 C   0  0  0  0  0  0  0  0  0  0  0  0
    0.8578    2.6401    0.0000 O   0  0  0  0  0  0  0  0  0  0  0  0
   -1.0323    0.7500    0.0000 O   0  0  0  0  0  0  0  0  0  0  0  0
   -1.0323   -0.7500    0.0000 C   0  0  0  0  0  0  0  0  0  0  0  0
   -2.4589   -1.2135    0.0000 C   0  0  0  0  0  0  0  0  0  0  0  0
   -3.3405   -2.4271    0.0000 C   0  0  0  0  0  0  0  0  0  0  0  0
   -4.7671   -1.9635    0.0000 C   0  0  0  0  0  0  0  0  0  0  0  0
   -3.3405   -3.9271    0.0000 C   0  0  0  0  0  0  0  0  0  0  0  0
   -4.7671   -4.3906    0.0000 O   0  0  0  0  0  0  0  0  0  0  0  0
   -5.0790   -5.8578    0.0000 C   0  0  0  0  0  0  0  0  0  0  0  0
   -6.5056   -6.3213    0.0000 C   0  0  0  0  0  0  0  0  0  0  0  0
   -3.9643   -6.8615    0.0000 O   0  0  0  0  0  0  0  0  0  0  0  0
   -2.4589   -5.1406    0.0000 C   0  0  0  0  0  0  0  0  0  0  0  0
   -1.0323   -5.6041    0.0000 C   0  0  0  0  0  0  0  0  0  0  0  0
    0.3943   -5.1406    0.0000 C   0  0  0  0  0  0  0  0  0  0  0  0
    1.2760   -6.3541    0.0000 C   0  0  0  0  0  0  0  0  0  0  0  0
    1.2760   -3.9271    0.0000 C   0  0  0  0  0  0  0  0  0  0  0  0
    1.2760   -2.4271    0.0000 C   0  0  0  0  0  0  0  0  0  0  0  0
    2.7026   -1.9635    0.0000 O   0  0  0  0  0  0  0  0  0  0  0  0
    3.8173   -2.9672    0.0000 C   0  0  0  0  0  0  0  0  0  0  0  0
    3.5054   -4.4344    0.0000 O   0  0  0  0  0  0  0  0  0  0  0  0
    5.2439   -2.5037    0.0000 C   0  0  0  0  0  0  0  0  0  0  0  0
    6.3586   -3.5074    0.0000 C   0  0  0  0  0  0  0  0  0  0  0  0
    7.7852   -3.0439    0.0000 C   0  0  0  0  0  0  0  0  0  0  0  0
    8.8999   -4.0476    0.0000 O   0  0  0  0  0  0  0  0  0  0  0  0
    5.5557   -1.0365    0.0000 C   0  0  0  0  0  0  0  0  0  0  0  0
    6.9823   -0.5729    0.0000 O   0  0  0  0  0  0  0  0  0  0  0  0
    0.3943   -1.2135    0.0000 C   0  0  0  0  0  0  0  0  0  0  0  0
  1  2  2  0
  2  3  1  0
  3  4  2  0
  3  5  1  0
  6  5  1  1
  6  7  1  0
  7  8  2  0
  8  9  1  0
  8 10  1  0
 10 11  1  6
 11 12  1  0
 12 13  1  0
 12 14  2  0
 10 15  1  0
 15 16  1  0
 16 17  2  0
 17 18  1  0
 17 19  1  0
 19 20  1  0
 20 21  1  6
 21 22  1  0
 22 23  2  0
 22 24  1  0
 24 25  2  0
 25 26  1  0
 26 27  1  0
 24 28  1  0
 28 29  1  0
 20 30  1  0
 30  2  1  6
 30  6  1  0
M  END
>  <id>  (112) 
SANC00430_minRM1.pdb

>  <SMILES>  (112) 
C=C1C(=O)O[C@@H]2/C=C(/C)[C@@H](OC(C)=O)C/C=C(/C)C[C@@H](OC(=O)/C(=C/CO)CO)[C@@H]12

>  <warheads>  (112) 
ab_unsat_carbonyl:2;exo_methylene_carbonyl:1

>  <n_warheads>  (112) 
3

>  <max_tier>  (112) 
1

>  <pains_flag>  (112) 


>  <MW>  (112) 
420.5

>  <cLogP>  (112) 
1.53

>  <HBD>  (112) 
2

>  <HBA>  (112) 
8

>  <TPSA>  (112) 
119.4

>  <ArRings>  (112) 
0

$$$$
SANC00431_minRM1.pdb
     RDKit          2D

 19 20  0  0  0  0  0  0  0  0999 V2000
    2.7760    0.0000    0.0000 C   0  0  0  0  0  0  0  0  0  0  0  0
    1.2760    0.0000    0.0000 C   0  0  0  0  0  0  0  0  0  0  0  0
    0.3943    1.2135    0.0000 C   0  0  0  0  0  0  0  0  0  0  0  0
    0.8578    2.6401    0.0000 O   0  0  0  0  0  0  0  0  0  0  0  0
   -1.0323    0.7500    0.0000 O   0  0  0  0  0  0  0  0  0  0  0  0
   -1.0323   -0.7500    0.0000 C   0  0  0  0  0  0  0  0  0  0  0  0
   -2.4589   -1.2135    0.0000 C   0  0  0  0  0  0  0  0  0  0  0  0
   -3.3405   -2.4271    0.0000 C   0  0  0  0  0  0  0  0  0  0  0  0
   -4.7671   -1.9635    0.0000 C   0  0  0  0  0  0  0  0  0  0  0  0
   -3.3405   -3.9271    0.0000 C   0  0  0  0  0  0  0  0  0  0  0  0
   -4.7671   -4.3906    0.0000 O   0  0  0  0  0  0  0  0  0  0  0  0
   -2.4589   -5.1406    0.0000 C   0  0  0  0  0  0  0  0  0  0  0  0
   -1.0323   -5.6041    0.0000 C   0  0  0  0  0  0  0  0  0  0  0  0
   -0.1506   -4.3906    0.0000 C   0  0  0  0  0  0  0  0  0  0  0  0
   -1.0323   -3.1771    0.0000 C   0  0  0  0  0  0  0  0  0  0  0  0
    1.2760   -3.9271    0.0000 C   0  0  0  0  0  0  0  0  0  0  0  0
    1.2760   -2.4271    0.0000 C   0  0  0  0  0  0  0  0  0  0  0  0
    2.7026   -1.9635    0.0000 O   0  0  0  0  0  0  0  0  0  0  0  0
    0.3943   -1.2135    0.0000 C   0  0  0  0  0  0  0  0  0  0  0  0
  1  2  2  0
  2  3  1  0
  3  4  2  0
  3  5  1  0
  6  5  1  6
  6  7  1  0
  7  8  2  0
  8  9  1  0
  8 10  1  0
 10 11  1  6
 10 12  1  0
 12 13  1  0
 13 14  1  0
 14 15  1  0
 14 16  2  0
 16 17  1  0
 17 18  1  6
 17 19  1  0
 19  2  1  1
 19  6  1  0
M  END
>  <id>  (113) 
SANC00431_minRM1.pdb

>  <SMILES>  (113) 
C=C1C(=O)O[C@H]2/C=C(/C)[C@@H](O)CC/C(C)=C/[C@@H](O)[C@H]12

>  <warheads>  (113) 
ab_unsat_carbonyl:1;exo_methylene_carbonyl:1

>  <n_warheads>  (113) 
2

>  <max_tier>  (113) 
1

>  <pains_flag>  (113) 


>  <MW>  (113) 
264.3

>  <cLogP>  (113) 
1.49

>  <HBD>  (113) 
2

>  <HBA>  (113) 
4

>  <TPSA>  (113) 
66.8

>  <ArRings>  (113) 
0

$$$$
SANC00432_minRM1.pdb
     RDKit          2D

 19 21  0  0  0  0  0  0  0  0999 V2000
    2.6401   -5.7872    0.0000 C   0  0  0  0  0  0  0  0  0  0  0  0
    1.2135   -5.3237    0.0000 C   0  0  0  0  0  0  0  0  0  0  0  0
   -0.0000   -6.2054    0.0000 C   0  0  0  0  0  0  0  0  0  0  0  0
   -0.0000   -7.7054    0.0000 O   0  0  0  0  0  0  0  0  0  0  0  0
   -1.2135   -5.3237    0.0000 O   0  0  0  0  0  0  0  0  0  0  0  0
   -0.7500   -3.8971    0.0000 C   0  0  0  0  0  0  0  0  0  0  0  0
   -1.5000   -2.5981    0.0000 C   0  0  0  0  0  0  0  0  0  0  0  0
   -0.7500   -1.2990    0.0000 C   0  0  0  0  0  0  0  0  0  0  0  0
   -2.2500   -1.2990    0.0000 C   0  0  0  0  0  0  0  0  0  0  0  0
    0.7500   -1.2990    0.0000 C   0  0  0  0  0  0  0  0  0  0  0  0
    1.5000    0.0000    0.0000 C   0  0  0  0  0  0  0  0  0  0  0  0
    3.0000    0.0000    0.0000 C   0  0  0  0  0  0  0  0  0  0  0  0
    0.7500    1.2990    0.0000 C   0  0  0  0  0  0  0  0  0  0  0  0
   -0.7500    1.2990    0.0000 C   0  0  0  0  0  0  0  0  0  0  0  0
   -1.5000    0.0000    0.0000 C   0  0  0  0  0  0  0  0  0  0  0  0
   -3.0000    0.0000    0.0000 O   0  0  0  0  0  0  0  0  0  0  0  0
    1.5000   -2.5981    0.0000 C   0  0  0  0  0  0  0  0  0  0  0  0
    3.0000   -2.5981    0.0000 O   0  0  0  0  0  0  0  0  0  0  0  0
    0.7500   -3.8971    0.0000 C   0  0  0  0  0  0  0  0  0  0  0  0
  1  2  2  0
  2  3  1  0
  3  4  2  0
  3  5  1  0
  5  6  1  0
  6  7  1  1
  7  8  1  0
  8  9  1  1
  8 10  1  0
 10 11  1  6
 11 12  2  0
 11 13  1  0
 13 14  1  0
 14 15  1  0
 15 16  1  1
 10 17  1  0
 17 18  1  1
 17 19  1  0
 19  2  1  6
 19  6  1  0
 15  8  1  0
M  END
>  <id>  (114) 
SANC00432_minRM1.pdb

>  <SMILES>  (114) 
C=C1C(=O)O[C@H]2C[C@@]3(C)[C@H](C(=C)CC[C@@H]3O)[C@@H](O)[C@H]12

>  <warheads>  (114) 
ab_unsat_carbonyl:1;exo_methylene_carbonyl:1

>  <n_warheads>  (114) 
2

>  <max_tier>  (114) 
1

>  <pains_flag>  (114) 


>  <MW>  (114) 
264.3

>  <cLogP>  (114) 
1.18

>  <HBD>  (114) 
2

>  <HBA>  (114) 
4

>  <TPSA>  (114) 
66.8

>  <ArRings>  (114) 
0

$$$$
SANC00433_minRM1.pdb
     RDKit          2D

 25 29  0  0  0  0  0  0  0  0999 V2000
   -7.5341   -2.1628    0.0000 C   0  0  0  0  0  0  0  0  0  0  0  0
   -6.1638   -1.5527    0.0000 C   0  0  0  0  0  0  0  0  0  0  0  0
   -4.8647   -2.3027    0.0000 C   0  0  0  0  0  0  0  0  0  0  0  0
   -4.7079   -3.7945    0.0000 O   0  0  0  0  0  0  0  0  0  0  0  0
   -3.7500   -1.2990    0.0000 C   0  0  0  0  0  0  0  0  0  0  0  0
   -3.0000   -2.5981    0.0000 C   0  0  0  0  0  0  0  0  0  0  0  0
   -1.5000   -2.5981    0.0000 C   0  0  0  0  0  0  0  0  0  0  0  0
   -0.7500   -1.2990    0.0000 C   0  0  0  0  0  0  0  0  0  0  0  0
    0.7500   -1.2990    0.0000 C   0  0  0  0  0  0  0  0  0  0  0  0
    1.5000   -2.5981    0.0000 C   0  0  0  0  0  0  0  0  0  0  0  0
    1.5000    0.0000    0.0000 C   0  0  0  0  0  0  0  0  0  0  0  0
    0.7500    1.2990    0.0000 C   0  0  0  0  0  0  0  0  0  0  0  0
   -0.7500    1.2990    0.0000 C   0  0  0  0  0  0  0  0  0  0  0  0
   -1.5000    0.0000    0.0000 C   0  0  0  0  0  0  0  0  0  0  0  0
   -1.8119   -1.4672    0.0000 O   0  0  0  0  0  0  0  0  0  0  0  0
   -0.5128   -2.2172    0.0000 C   0  0  0  0  0  0  0  0  0  0  0  0
   -0.3560   -3.7090    0.0000 O   0  0  0  0  0  0  0  0  0  0  0  0
   -3.0000    0.0000    0.0000 C   0  0  0  0  0  0  0  0  0  0  0  0
   -2.2500    1.2990    0.0000 C   0  0  0  0  0  0  0  0  0  0  0  0
   -3.7500    1.2990    0.0000 C   0  0  0  0  0  0  0  0  0  0  0  0
   -5.2500    1.2990    0.0000 C   0  0  0  0  0  0  0  0  0  0  0  0
   -6.0000    0.0000    0.0000 C   0  0  0  0  0  0  0  0  0  0  0  0
   -7.5000    0.0000    0.0000 O   0  0  0  0  0  0  0  0  0  0  0  0
   -8.2500    1.2990    0.0000 C   0  0  0  0  0  0  0  0  0  0  0  0
   -5.2500   -1.2990    0.0000 C   0  0  0  0  0  0  0  0  0  0  0  0
  1  2  2  0
  2  3  1  0
  3  4  2  0
  3  5  1  0
  5  6  1  1
  6  7  1  0
  8  7  1  1
  8  9  1  0
  9 10  1  6
  9 11  1  0
 11 12  1  0
 12 13  1  0
 14 13  1  1
 14 15  1  0
 15 16  1  0
 16 17  2  0
 14 18  1  0
 18 19  1  1
 18 20  1  0
 20 21  1  0
 21 22  1  0
 22 23  1  1
 23 24  1  0
 22 25  1  0
 22  2  1  0
 18  5  1  0
 25  5  1  0
 14  8  1  0
 16  9  1  0
M  END
>  <id>  (115) 
SANC00433_minRM1.pdb

>  <SMILES>  (115) 
C=C1C(=O)[C@@]23CC[C@@H]4[C@@]5(C)CCC[C@@]4(OC5=O)[C@@]2(C)CC[C@]1(OC)C3

>  <warheads>  (115) 
ab_unsat_carbonyl:1;exo_methylene_carbonyl:1

>  <n_warheads>  (115) 
2

>  <max_tier>  (115) 
1

>  <pains_flag>  (115) 


>  <MW>  (115) 
344.5

>  <cLogP>  (115) 
3.58

>  <HBD>  (115) 
0

>  <HBA>  (115) 
4

>  <TPSA>  (115) 
52.6

>  <ArRings>  (115) 
0

$$$$
SANC00434_minRM1.pdb
     RDKit          2D

 28 31  0  0  0  0  0  0  0  0999 V2000
    3.0000    0.0000    0.0000 C   0  0  0  0  0  0  0  0  0  0  0  0
    1.5000    0.0000    0.0000 C   0  0  0  0  0  0  0  0  0  0  0  0
    0.7500   -1.2990    0.0000 C   0  0  0  0  0  0  0  0  0  0  0  0
   -0.7500   -1.2990    0.0000 C   0  0  0  0  0  0  0  0  0  0  0  0
   -1.5000   -2.5981    0.0000 O   0  0  0  0  0  0  0  0  0  0  0  0
   -1.5000    0.0000    0.0000 C   0  0  0  0  0  0  0  0  0  0  0  0
   -0.7500    1.2990    0.0000 C   0  0  0  0  0  0  0  0  0  0  0  0
    0.7500    1.2990    0.0000 C   0  0  0  0  0  0  0  0  0  0  0  0
   -1.5000    2.5981    0.0000 C   0  0  0  0  0  0  0  0  0  0  0  0
   -0.7500    3.8971    0.0000 O   0  0  0  0  0  0  0  0  0  0  0  0
   -3.0000    2.5981    0.0000 C   0  0  0  0  0  0  0  0  0  0  0  0
   -3.7500    3.8971    0.0000 C   0  0  0  0  0  0  0  0  0  0  0  0
   -3.0000    5.1962    0.0000 C   0  0  0  0  0  0  0  0  0  0  0  0
   -1.5000    5.1962    0.0000 C   0  0  0  0  0  0  0  0  0  0  0  0
   -3.7500    6.4952    0.0000 C   0  0  0  0  0  0  0  0  0  0  0  0
   -5.2500    6.4952    0.0000 C   0  0  0  0  0  0  0  0  0  0  0  0
   -6.0000    5.1962    0.0000 C   0  0  0  0  0  0  0  0  0  0  0  0
   -5.2500    3.8971    0.0000 C   0  0  0  0  0  0  0  0  0  0  0  0
   -6.0000    2.5981    0.0000 O   0  0  0  0  0  0  0  0  0  0  0  0
   -7.5000    5.1962    0.0000 C   0  0  0  0  0  0  0  0  0  0  0  0
   -8.2500    3.8971    0.0000 O   0  0  0  0  0  0  0  0  0  0  0  0
   -8.2500    6.4952    0.0000 C   0  0  0  0  0  0  0  0  0  0  0  0
   -7.5000    7.7942    0.0000 C   0  0  0  0  0  0  0  0  0  0  0  0
   -6.0000    7.7942    0.0000 C   0  0  0  0  0  0  0  0  0  0  0  0
   -5.2500    9.0933    0.0000 O   0  0  0  0  0  0  0  0  0  0  0  0
   -3.7500    1.2990    0.0000 C   0  0  0  0  0  0  0  0  0  0  0  0
   -3.0000    0.0000    0.0000 C   0  0  0  0  0  0  0  0  0  0  0  0
   -3.7500   -1.2990    0.0000 O   0  0  0  0  0  0  0  0  0  0  0  0
  1  2  1  0
  2  3  2  0
  3  4  1  0
  4  5  1  0
  4  6  2  0
  6  7  1  0
  7  8  2  0
  7  9  1  0
  9 10  2  0
  9 11  1  0
 11 12  1  0
 12 13  2  0
 13 14  1  0
 13 15  1  0
 15 16  2  0
 16 17  1  0
 17 18  2  0
 18 19  1  0
 17 20  1  0
 20 21  2  0
 20 22  1  0
 22 23  2  0
 23 24  1  0
 24 25  2  0
 11 26  2  0
 26 27  1  0
 27 28  2  0
  8  2  1  0
 18 12  1  0
 27  6  1  0
 24 16  1  0
M  END
>  <id>  (116) 
SANC00434_minRM1.pdb

>  <SMILES>  (116) 
Cc1cc(O)c2c(c1)C(=O)C(c1c(C)cc3c(c1O)C(=O)C=CC3=O)=CC2=O

>  <warheads>  (116) 
ab_unsat_carbonyl:4

>  <n_warheads>  (116) 
4

>  <max_tier>  (116) 
1

>  <pains_flag>  (116) 
quinone_A(370)

>  <MW>  (116) 
374.3

>  <cLogP>  (116) 
3.11

>  <HBD>  (116) 
2

>  <HBA>  (116) 
6

>  <TPSA>  (116) 
108.7

>  <ArRings>  (116) 
2

$$$$
SANC00435_minRM1.pdb
     RDKit          2D

 28 31  0  0  0  0  0  0  0  0999 V2000
   -1.4081   -4.7704    0.0000 C   0  0  0  0  0  0  0  0  0  0  0  0
   -0.7500   -3.8971    0.0000 C   0  0  0  0  0  0  0  0  0  0  0  0
   -1.5000   -2.5981    0.0000 C   0  0  0  0  0  0  0  0  0  0  0  0
   -0.7500   -1.2990    0.0000 C   0  0  0  0  0  0  0  0  0  0  0  0
    0.7500   -1.2990    0.0000 C   0  0  0  0  0  0  0  0  0  0  0  0
    1.5000   -2.5981    0.0000 C   0  0  0  0  0  0  0  0  0  0  0  0
    3.0000   -2.5981    0.0000 O   0  0  0  0  0  0  0  0  0  0  0  0
    0.7500   -3.8971    0.0000 C   0  0  0  0  0  0  0  0  0  0  0  0
    1.5000   -5.1962    0.0000 C   0  0  0  0  0  0  0  0  0  0  0  0
    3.0000   -5.1962    0.0000 C   0  0  0  0  0  0  0  0  0  0  0  0
    3.7500   -3.8971    0.0000 C   0  0  0  0  0  0  0  0  0  0  0  0
    3.7500   -6.4952    0.0000 C   0  0  0  0  0  0  0  0  0  0  0  0
    3.0000   -7.7942    0.0000 C   0  0  0  0  0  0  0  0  0  0  0  0
    3.7500   -9.0933    0.0000 O   0  0  0  0  0  0  0  0  0  0  0  0
    1.5000   -7.7942    0.0000 C   0  0  0  0  0  0  0  0  0  0  0  0
    0.7500   -6.4952    0.0000 C   0  0  0  0  0  0  0  0  0  0  0  0
   -0.7500   -6.4952    0.0000 C   0  0  0  0  0  0  0  0  0  0  0  0
   -1.4081   -5.6219    0.0000 O   0  0  0  0  0  0  0  0  0  0  0  0
   -1.5000   -7.7942    0.0000 C   0  0  0  0  0  0  0  0  0  0  0  0
   -0.7500   -9.0933    0.0000 C   0  0  0  0  0  0  0  0  0  0  0  0
    0.7500   -9.0933    0.0000 C   0  0  0  0  0  0  0  0  0  0  0  0
    1.5000  -10.3923    0.0000 O   0  0  0  0  0  0  0  0  0  0  0  0
    1.5000    0.0000    0.0000 C   0  0  0  0  0  0  0  0  0  0  0  0
    3.0000    0.0000    0.0000 O   0  0  0  0  0  0  0  0  0  0  0  0
    0.7500    1.2990    0.0000 C   0  0  0  0  0  0  0  0  0  0  0  0
   -0.7500    1.2990    0.0000 C   0  0  0  0  0  0  0  0  0  0  0  0
   -1.5000   -0.0000    0.0000 C   0  0  0  0  0  0  0  0  0  0  0  0
   -3.0000   -0.0000    0.0000 O   0  0  0  0  0  0  0  0  0  0  0  0
  1  2  1  0
  2  3  2  0
  3  4  1  0
  4  5  2  0
  5  6  1  0
  6  7  1  0
  6  8  2  0
  8  9  1  0
  9 10  2  0
 10 11  1  0
 10 12  1  0
 12 13  2  0
 13 14  1  0
 13 15  1  0
 15 16  2  0
 16 17  1  0
 17 18  2  0
 17 19  1  0
 19 20  2  0
 20 21  1  0
 21 22  2  0
  5 23  1  0
 23 24  2  0
 23 25  1  0
 25 26  2  0
 26 27  1  0
 27 28  2  0
  8  2  1  0
 16  9  1  0
 27  4  1  0
 21 15  1  0
M  END
>  <id>  (117) 
SANC00435_minRM1.pdb

>  <SMILES>  (117) 
Cc1cc2c(c(O)c1-c1c(C)cc(O)c3c1C(=O)C=CC3=O)C(=O)C=CC2=O

>  <warheads>  (117) 
ab_unsat_carbonyl:4

>  <n_warheads>  (117) 
4

>  <max_tier>  (117) 
1

>  <pains_flag>  (117) 
quinone_A(370)

>  <MW>  (117) 
374.3

>  <cLogP>  (117) 
3.25

>  <HBD>  (117) 
2

>  <HBA>  (117) 
6

>  <TPSA>  (117) 
108.7

>  <ArRings>  (117) 
2

$$$$
SANC00436_minRM1.pdb
     RDKit          2D

 28 31  0  0  0  0  0  0  0  0999 V2000
    3.0000    0.0000    0.0000 C   0  0  0  0  0  0  0  0  0  0  0  0
    1.5000    0.0000    0.0000 C   0  0  0  0  0  0  0  0  0  0  0  0
    0.7500   -1.2990    0.0000 C   0  0  0  0  0  0  0  0  0  0  0  0
   -0.7500   -1.2990    0.0000 C   0  0  0  0  0  0  0  0  0  0  0  0
   -1.5000   -2.5981    0.0000 O   0  0  0  0  0  0  0  0  0  0  0  0
   -1.5000    0.0000    0.0000 C   0  0  0  0  0  0  0  0  0  0  0  0
   -0.7500    1.2990    0.0000 C   0  0  0  0  0  0  0  0  0  0  0  0
    0.7500    1.2990    0.0000 C   0  0  0  0  0  0  0  0  0  0  0  0
   -1.5000    2.5981    0.0000 C   0  0  0  0  0  0  0  0  0  0  0  0
   -0.7500    3.8971    0.0000 O   0  0  0  0  0  0  0  0  0  0  0  0
   -3.0000    2.5981    0.0000 C   0  0  0  0  0  0  0  0  0  0  0  0
   -3.7500    1.2990    0.0000 C   0  0  0  0  0  0  0  0  0  0  0  0
   -5.2500    1.2990    0.0000 C   0  0  0  0  0  0  0  0  0  0  0  0
   -6.0000   -0.0000    0.0000 C   0  0  0  0  0  0  0  0  0  0  0  0
   -7.5000   -0.0000    0.0000 C   0  0  0  0  0  0  0  0  0  0  0  0
   -8.2500   -1.2990    0.0000 O   0  0  0  0  0  0  0  0  0  0  0  0
   -8.2500    1.2990    0.0000 C   0  0  0  0  0  0  0  0  0  0  0  0
   -9.7500    1.2990    0.0000 C   0  0  0  0  0  0  0  0  0  0  0  0
  -10.5000    2.5981    0.0000 C   0  0  0  0  0  0  0  0  0  0  0  0
  -12.0000    2.5981    0.0000 C   0  0  0  0  0  0  0  0  0  0  0  0
   -9.7500    3.8971    0.0000 C   0  0  0  0  0  0  0  0  0  0  0  0
   -8.2500    3.8971    0.0000 C   0  0  0  0  0  0  0  0  0  0  0  0
   -7.5000    5.1962    0.0000 O   0  0  0  0  0  0  0  0  0  0  0  0
   -7.5000    2.5981    0.0000 C   0  0  0  0  0  0  0  0  0  0  0  0
   -6.0000    2.5981    0.0000 C   0  0  0  0  0  0  0  0  0  0  0  0
   -5.2500    3.8971    0.0000 O   0  0  0  0  0  0  0  0  0  0  0  0
   -3.0000    0.0000    0.0000 C   0  0  0  0  0  0  0  0  0  0  0  0
   -3.7500   -1.2990    0.0000 O   0  0  0  0  0  0  0  0  0  0  0  0
  1  2  1  0
  2  3  2  0
  3  4  1  0
  4  5  1  0
  4  6  2  0
  6  7  1  0
  7  8  2  0
  7  9  1  0
  9 10  2  0
  9 11  1  0
 11 12  2  0
 12 13  1  0
 13 14  2  0
 14 15  1  0
 15 16  2  0
 15 17  1  0
 17 18  2  0
 18 19  1  0
 19 20  1  0
 19 21  2  0
 21 22  1  0
 22 23  1  0
 22 24  2  0
 24 25  1  0
 25 26  2  0
 12 27  1  0
 27 28  2  0
  8  2  1  0
 25 13  1  0
 27  6  1  0
 24 17  1  0
M  END
>  <id>  (118) 
SANC00436_minRM1.pdb

>  <SMILES>  (118) 
Cc1cc(O)c2c(c1)C(=O)C=C(C1=CC(=O)c3cc(C)cc(O)c3C1=O)C2=O

>  <warheads>  (118) 
ab_unsat_carbonyl:4

>  <n_warheads>  (118) 
4

>  <max_tier>  (118) 
1

>  <pains_flag>  (118) 
quinone_A(370)

>  <MW>  (118) 
374.3

>  <cLogP>  (118) 
3.03

>  <HBD>  (118) 
2

>  <HBA>  (118) 
6

>  <TPSA>  (118) 
108.7

>  <ArRings>  (118) 
2

$$$$
SANC00437_minRM1.pdb
     RDKit          2D

 14 15  0  0  0  0  0  0  0  0999 V2000
    3.0000    0.0000    0.0000 C   0  0  0  0  0  0  0  0  0  0  0  0
    1.5000    0.0000    0.0000 C   0  0  0  0  0  0  0  0  0  0  0  0
    0.7500   -1.2990    0.0000 C   0  0  0  0  0  0  0  0  0  0  0  0
   -0.7500   -1.2990    0.0000 C   0  0  0  0  0  0  0  0  0  0  0  0
   -1.5000   -2.5981    0.0000 O   0  0  0  0  0  0  0  0  0  0  0  0
   -1.5000    0.0000    0.0000 C   0  0  0  0  0  0  0  0  0  0  0  0
   -0.7500    1.2990    0.0000 C   0  0  0  0  0  0  0  0  0  0  0  0
    0.7500    1.2990    0.0000 C   0  0  0  0  0  0  0  0  0  0  0  0
   -1.5000    2.5981    0.0000 C   0  0  0  0  0  0  0  0  0  0  0  0
   -0.7500    3.8971    0.0000 O   0  0  0  0  0  0  0  0  0  0  0  0
   -3.0000    2.5981    0.0000 C   0  0  0  0  0  0  0  0  0  0  0  0
   -3.7500    1.2990    0.0000 C   0  0  0  0  0  0  0  0  0  0  0  0
   -3.0000    0.0000    0.0000 C   0  0  0  0  0  0  0  0  0  0  0  0
   -3.7500   -1.2990    0.0000 O   0  0  0  0  0  0  0  0  0  0  0  0
  1  2  1  0
  2  3  2  0
  3  4  1  0
  4  5  1  0
  4  6  2  0
  6  7  1  0
  7  8  2  0
  7  9  1  0
  9 10  2  0
  9 11  1  0
 11 12  2  0
 12 13  1  0
 13 14  2  0
  8  2  1  0
 13  6  1  0
M  END
>  <id>  (119) 
SANC00437_minRM1.pdb

>  <SMILES>  (119) 
Cc1cc(O)c2c(c1)C(=O)C=CC2=O

>  <warheads>  (119) 
ab_unsat_carbonyl:2

>  <n_warheads>  (119) 
2

>  <max_tier>  (119) 
1

>  <pains_flag>  (119) 
quinone_A(370)

>  <MW>  (119) 
188.2

>  <cLogP>  (119) 
1.64

>  <HBD>  (119) 
1

>  <HBA>  (119) 
3

>  <TPSA>  (119) 
54.4

>  <ArRings>  (119) 
1

$$$$
SANC00438_minRM1.pdb
     RDKit          2D

 28 31  0  0  0  0  0  0  0  0999 V2000
    3.0000    0.0000    0.0000 C   0  0  0  0  0  0  0  0  0  0  0  0
    1.5000    0.0000    0.0000 C   0  0  0  0  0  0  0  0  0  0  0  0
    0.7500   -1.2990    0.0000 C   0  0  0  0  0  0  0  0  0  0  0  0
   -0.7500   -1.2990    0.0000 C   0  0  0  0  0  0  0  0  0  0  0  0
   -1.5000   -2.5981    0.0000 O   0  0  0  0  0  0  0  0  0  0  0  0
   -1.5000    0.0000    0.0000 C   0  0  0  0  0  0  0  0  0  0  0  0
   -0.7500    1.2990    0.0000 C   0  0  0  0  0  0  0  0  0  0  0  0
    0.7500    1.2990    0.0000 C   0  0  0  0  0  0  0  0  0  0  0  0
   -1.5000    2.5981    0.0000 C   0  0  0  0  0  0  0  0  0  0  0  0
   -0.7500    3.8971    0.0000 O   0  0  0  0  0  0  0  0  0  0  0  0
   -3.0000    2.5981    0.0000 C   0  0  0  0  0  0  0  0  0  0  0  0
   -3.7500    1.2990    0.0000 C   0  0  0  0  0  0  0  0  0  0  0  0
   -5.2500    1.2990    0.0000 C   0  0  0  0  0  0  0  0  0  0  0  0
   -6.0000   -0.0000    0.0000 C   0  0  0  0  0  0  0  0  0  0  0  0
   -5.2500   -1.2990    0.0000 C   0  0  0  0  0  0  0  0  0  0  0  0
   -7.5000   -0.0000    0.0000 C   0  0  0  0  0  0  0  0  0  0  0  0
   -8.2500    1.2990    0.0000 C   0  0  0  0  0  0  0  0  0  0  0  0
   -9.7500    1.2990    0.0000 O   0  0  0  0  0  0  0  0  0  0  0  0
   -7.5000    2.5981    0.0000 C   0  0  0  0  0  0  0  0  0  0  0  0
   -6.0000    2.5981    0.0000 C   0  0  0  0  0  0  0  0  0  0  0  0
   -5.2500    3.8971    0.0000 C   0  0  0  0  0  0  0  0  0  0  0  0
   -3.7500    3.8971    0.0000 O   0  0  0  0  0  0  0  0  0  0  0  0
   -6.0000    5.1962    0.0000 C   0  0  0  0  0  0  0  0  0  0  0  0
   -7.5000    5.1962    0.0000 C   0  0  0  0  0  0  0  0  0  0  0  0
   -8.2500    3.8971    0.0000 C   0  0  0  0  0  0  0  0  0  0  0  0
   -9.7500    3.8971    0.0000 O   0  0  0  0  0  0  0  0  0  0  0  0
   -3.0000    0.0000    0.0000 C   0  0  0  0  0  0  0  0  0  0  0  0
   -3.7500   -1.2990    0.0000 O   0  0  0  0  0  0  0  0  0  0  0  0
  1  2  1  0
  2  3  2  0
  3  4  1  0
  4  5  1  0
  4  6  2  0
  6  7  1  0
  7  8  2  0
  7  9  1  0
  9 10  2  0
  9 11  1  0
 11 12  2  0
 12 13  1  0
 13 14  2  0
 14 15  1  0
 14 16  1  0
 16 17  2  0
 17 18  1  0
 17 19  1  0
 19 20  2  0
 20 21  1  0
 21 22  2  0
 21 23  1  0
 23 24  2  0
 24 25  1  0
 25 26  2  0
 12 27  1  0
 27 28  2  0
  8  2  1  0
 20 13  1  0
 27  6  1  0
 25 19  1  0
M  END
>  <id>  (120) 
SANC00438_minRM1.pdb

>  <SMILES>  (120) 
Cc1cc(O)c2c(c1)C(=O)C=C(c1c(C)cc(O)c3c1C(=O)C=CC3=O)C2=O

>  <warheads>  (120) 
ab_unsat_carbonyl:4

>  <n_warheads>  (120) 
4

>  <max_tier>  (120) 
1

>  <pains_flag>  (120) 
quinone_A(370)

>  <MW>  (120) 
374.3

>  <cLogP>  (120) 
3.11

>  <HBD>  (120) 
2

>  <HBA>  (120) 
6

>  <TPSA>  (120) 
108.7

>  <ArRings>  (120) 
2

$$$$
SANC00454_minRM1.pdb
     RDKit          2D

 62 68  0  0  0  0  0  0  0  0999 V2000
   -9.7500   -1.2990    0.0000 C   0  0  0  0  0  0  0  0  0  0  0  0
   -8.2500   -1.2990    0.0000 C   0  0  0  0  0  0  0  0  0  0  0  0
   -7.5000   -2.5981    0.0000 C   0  0  0  0  0  0  0  0  0  0  0  0
   -8.2500   -3.8971    0.0000 C   0  0  0  0  0  0  0  0  0  0  0  0
   -6.0000   -2.5981    0.0000 C   0  0  0  0  0  0  0  0  0  0  0  0
   -5.2500   -1.2990    0.0000 O   0  0  0  0  0  0  0  0  0  0  0  0
   -5.2500   -3.8971    0.0000 O   0  0  0  0  0  0  0  0  0  0  0  0
   -3.7500   -3.8971    0.0000 C   0  0  0  0  0  0  0  0  0  0  0  0
   -3.0000   -2.5981    0.0000 C   0  0  0  0  0  0  0  0  0  0  0  0
   -1.5000   -2.5981    0.0000 C   0  0  0  0  0  0  0  0  0  0  0  0
   -0.7500   -3.8971    0.0000 C   0  0  0  0  0  0  0  0  0  0  0  0
    0.7500   -3.8971    0.0000 C   0  0  0  0  0  0  0  0  0  0  0  0
    1.5000   -2.5981    0.0000 C   0  0  0  0  0  0  0  0  0  0  0  0
    0.7500   -1.2990    0.0000 C   0  0  0  0  0  0  0  0  0  0  0  0
    1.5000    0.0000    0.0000 C   0  0  0  0  0  0  0  0  0  0  0  0
    0.7500    1.2990    0.0000 C   0  0  0  0  0  0  0  0  0  0  0  0
    1.5000    2.5981    0.0000 O   0  0  0  0  0  0  0  0  0  0  0  0
    3.0000    2.5981    0.0000 C   0  0  0  0  0  0  0  0  0  0  0  0
    3.7500    1.2990    0.0000 C   0  0  0  0  0  0  0  0  0  0  0  0
    5.2500    1.2990    0.0000 C   0  0  0  0  0  0  0  0  0  0  0  0
    6.0000   -0.0000    0.0000 O   0  0  0  0  0  0  0  0  0  0  0  0
    5.2500   -1.2990    0.0000 C   0  0  0  0  0  0  0  0  0  0  0  0
    6.0000    2.5981    0.0000 C   0  0  0  0  0  0  0  0  0  0  0  0
    7.5000    2.5981    0.0000 O   0  0  0  0  0  0  0  0  0  0  0  0
    8.2500    3.8971    0.0000 C   0  0  0  0  0  0  0  0  0  0  0  0
    9.7500    3.8971    0.0000 C   0  0  0  0  0  0  0  0  0  0  0  0
   10.5000    5.1962    0.0000 C   0  0  0  0  0  0  0  0  0  0  0  0
   12.0000    5.1962    0.0000 O   0  0  0  0  0  0  0  0  0  0  0  0
   12.7500    3.8971    0.0000 C   0  0  0  0  0  0  0  0  0  0  0  0
    9.7500    6.4952    0.0000 C   0  0  0  0  0  0  0  0  0  0  0  0
   10.5000    7.7942    0.0000 O   0  0  0  0  0  0  0  0  0  0  0  0
    9.7500    9.0933    0.0000 C   0  0  0  0  0  0  0  0  0  0  0  0
    8.2500    9.0933    0.0000 O   0  0  0  0  0  0  0  0  0  0  0  0
    7.5000   10.3923    0.0000 C   0  0  0  0  0  0  0  0  0  0  0  0
    6.0000   10.3923    0.0000 C   0  0  0  0  0  0  0  0  0  0  0  0
    8.2500   11.6913    0.0000 C   0  0  0  0  0  0  0  0  0  0  0  0
    7.5000   12.9904    0.0000 O   0  0  0  0  0  0  0  0  0  0  0  0
    9.7500   11.6913    0.0000 C   0  0  0  0  0  0  0  0  0  0  0  0
   10.5000   12.9904    0.0000 O   0  0  0  0  0  0  0  0  0  0  0  0
    9.7500   14.2894    0.0000 C   0  0  0  0  0  0  0  0  0  0  0  0
   10.5000   10.3923    0.0000 C   0  0  0  0  0  0  0  0  0  0  0  0
   12.0000   10.3923    0.0000 O   0  0  0  0  0  0  0  0  0  0  0  0
    8.2500    6.4952    0.0000 C   0  0  0  0  0  0  0  0  0  0  0  0
    7.5000    7.7942    0.0000 C   0  0  0  0  0  0  0  0  0  0  0  0
    7.5000    5.1962    0.0000 O   0  0  0  0  0  0  0  0  0  0  0  0
    5.2500    3.8971    0.0000 C   0  0  0  0  0  0  0  0  0  0  0  0
    6.0000    5.1962    0.0000 C   0  0  0  0  0  0  0  0  0  0  0  0
    3.7500    3.8971    0.0000 O   0  0  0  0  0  0  0  0  0  0  0  0
   -0.7500    1.2990    0.0000 C   0  0  0  0  0  0  0  0  0  0  0  0
   -1.5000    0.0000    0.0000 C   0  0  0  0  0  0  0  0  0  0  0  0
   -0.7500   -1.2990    0.0000 C   0  0  0  0  0  0  0  0  0  0  0  0
   -2.2500   -1.2990    0.0000 C   0  0  0  0  0  0  0  0  0  0  0  0
   -1.5000   -5.1962    0.0000 C   0  0  0  0  0  0  0  0  0  0  0  0
   -0.0082   -5.3529    0.0000 O   0  0  0  0  0  0  0  0  0  0  0  0
   -1.0365   -6.6227    0.0000 C   0  0  0  0  0  0  0  0  0  0  0  0
   -2.2500   -7.5044    0.0000 C   0  0  0  0  0  0  0  0  0  0  0  0
   -3.4635   -6.6227    0.0000 C   0  0  0  0  0  0  0  0  0  0  0  0
   -4.8901   -7.0863    0.0000 C   0  0  0  0  0  0  0  0  0  0  0  0
   -5.2020   -8.5535    0.0000 C   0  0  0  0  0  0  0  0  0  0  0  0
   -6.0048   -6.0826    0.0000 O   0  0  0  0  0  0  0  0  0  0  0  0
   -3.0000   -5.1962    0.0000 C   0  0  0  0  0  0  0  0  0  0  0  0
   -4.4918   -5.3529    0.0000 C   0  0  0  0  0  0  0  0  0  0  0  0
  1  2  1  0
  2  3  2  0
  3  4  1  0
  3  5  1  0
  5  6  2  0
  5  7  1  0
  8  7  1  6
  8  9  1  0
 10  9  1  6
 10 11  1  0
 11 12  1  1
 12 13  1  0
 13 14  2  0
 14 15  1  0
 15 16  1  0
 16 17  1  6
 18 17  1  6
 18 19  1  0
 19 20  1  0
 20 21  1  1
 21 22  1  0
 20 23  1  0
 23 24  1  1
 25 24  1  6
 25 26  1  0
 26 27  1  0
 27 28  1  1
 28 29  1  0
 27 30  1  0
 30 31  1  1
 32 31  1  6
 32 33  1  0
 33 34  1  0
 34 35  1  6
 34 36  1  0
 36 37  1  1
 36 38  1  0
 38 39  1  6
 39 40  1  0
 38 41  1  0
 41 42  1  1
 30 43  1  0
 43 44  1  6
 43 45  1  0
 23 46  1  0
 46 47  1  6
 46 48  1  0
 16 49  1  0
 49 50  1  0
 50 51  1  0
 51 52  1  6
 11 53  1  0
 53 54  1  6
 53 55  1  0
 55 56  1  0
 56 57  1  0
 57 58  1  6
 58 59  1  0
 58 60  2  0
 57 61  1  0
 61 62  1  6
 61  8  1  0
 51 10  1  0
 61 53  1  0
 51 14  1  0
 48 18  1  0
 45 25  1  0
 41 32  1  0
M  END
>  <id>  (121) 
SANC00454_minRM1.pdb

>  <SMILES>  (121) 
C/C=C(\C)C(=O)O[C@@H]1C[C@H]2[C@@H](CC=C3C[C@@H](O[C@H]4C[C@H](OC)[C@H](O[C@H]5C[C@H](OC)[C@H](O[C@@H]6O[C@H](C)[C@@H](O)[C@H](OC)[C@H]6O)[C@@H](C)O5)[C@@H](C)O4)CC[C@@]32C)[C@@]2(O)CC[C@H](C(C)=O)[C@@]12C

>  <warheads>  (121) 
ab_unsat_carbonyl:1

>  <n_warheads>  (121) 
1

>  <max_tier>  (121) 
1

>  <pains_flag>  (121) 


>  <MW>  (121) 
879.1

>  <cLogP>  (121) 
4.69

>  <HBD>  (121) 
3

>  <HBA>  (121) 
15

>  <TPSA>  (121) 
187.1

>  <ArRings>  (121) 
0

$$$$
SANC00455_minRM1.pdb
     RDKit          2D

 72 79  0  0  0  0  0  0  0  0999 V2000
   -9.7500   -1.2990    0.0000 C   0  0  0  0  0  0  0  0  0  0  0  0
   -8.2500   -1.2990    0.0000 C   0  0  0  0  0  0  0  0  0  0  0  0
   -7.5000   -2.5981    0.0000 C   0  0  0  0  0  0  0  0  0  0  0  0
   -8.2500   -3.8971    0.0000 C   0  0  0  0  0  0  0  0  0  0  0  0
   -6.0000   -2.5981    0.0000 C   0  0  0  0  0  0  0  0  0  0  0  0
   -5.2500   -1.2990    0.0000 O   0  0  0  0  0  0  0  0  0  0  0  0
   -5.2500   -3.8971    0.0000 O   0  0  0  0  0  0  0  0  0  0  0  0
   -3.7500   -3.8971    0.0000 C   0  0  0  0  0  0  0  0  0  0  0  0
   -3.0000   -2.5981    0.0000 C   0  0  0  0  0  0  0  0  0  0  0  0
   -1.5000   -2.5981    0.0000 C   0  0  0  0  0  0  0  0  0  0  0  0
   -0.7500   -3.8971    0.0000 C   0  0  0  0  0  0  0  0  0  0  0  0
    0.7500   -3.8971    0.0000 C   0  0  0  0  0  0  0  0  0  0  0  0
    1.5000   -2.5981    0.0000 C   0  0  0  0  0  0  0  0  0  0  0  0
    0.7500   -1.2990    0.0000 C   0  0  0  0  0  0  0  0  0  0  0  0
    1.5000    0.0000    0.0000 C   0  0  0  0  0  0  0  0  0  0  0  0
    0.7500    1.2990    0.0000 C   0  0  0  0  0  0  0  0  0  0  0  0
    1.5000    2.5981    0.0000 O   0  0  0  0  0  0  0  0  0  0  0  0
    3.0000    2.5981    0.0000 C   0  0  0  0  0  0  0  0  0  0  0  0
    3.7500    1.2990    0.0000 C   0  0  0  0  0  0  0  0  0  0  0  0
    5.2500    1.2990    0.0000 C   0  0  0  0  0  0  0  0  0  0  0  0
    6.0000   -0.0000    0.0000 O   0  0  0  0  0  0  0  0  0  0  0  0
    5.2500   -1.2990    0.0000 C   0  0  0  0  0  0  0  0  0  0  0  0
    6.0000    2.5981    0.0000 C   0  0  0  0  0  0  0  0  0  0  0  0
    7.5000    2.5981    0.0000 O   0  0  0  0  0  0  0  0  0  0  0  0
    8.2500    3.8971    0.0000 C   0  0  0  0  0  0  0  0  0  0  0  0
    9.7500    3.8971    0.0000 C   0  0  0  0  0  0  0  0  0  0  0  0
   10.5000    5.1962    0.0000 C   0  0  0  0  0  0  0  0  0  0  0  0
   12.0000    5.1962    0.0000 O   0  0  0  0  0  0  0  0  0  0  0  0
   12.7500    3.8971    0.0000 C   0  0  0  0  0  0  0  0  0  0  0  0
    9.7500    6.4952    0.0000 C   0  0  0  0  0  0  0  0  0  0  0  0
   10.5000    7.7942    0.0000 O   0  0  0  0  0  0  0  0  0  0  0  0
   12.0000    7.7942    0.0000 C   0  0  0  0  0  0  0  0  0  0  0  0
   12.7500    6.4952    0.0000 O   0  0  0  0  0  0  0  0  0  0  0  0
   14.2500    6.4952    0.0000 C   0  0  0  0  0  0  0  0  0  0  0  0
   15.0000    5.1962    0.0000 C   0  0  0  0  0  0  0  0  0  0  0  0
   15.0000    7.7942    0.0000 C   0  0  0  0  0  0  0  0  0  0  0  0
   16.5000    7.7942    0.0000 O   0  0  0  0  0  0  0  0  0  0  0  0
   17.2500    9.0933    0.0000 C   0  0  0  0  0  0  0  0  0  0  0  0
   18.7500    9.0933    0.0000 C   0  0  0  0  0  0  0  0  0  0  0  0
   19.5000   10.3923    0.0000 C   0  0  0  0  0  0  0  0  0  0  0  0
   21.0000   10.3923    0.0000 O   0  0  0  0  0  0  0  0  0  0  0  0
   21.7500    9.0933    0.0000 C   0  0  0  0  0  0  0  0  0  0  0  0
   18.7500   11.6913    0.0000 C   0  0  0  0  0  0  0  0  0  0  0  0
   19.5000   12.9904    0.0000 O   0  0  0  0  0  0  0  0  0  0  0  0
   17.2500   11.6913    0.0000 C   0  0  0  0  0  0  0  0  0  0  0  0
   16.5000   12.9904    0.0000 C   0  0  0  0  0  0  0  0  0  0  0  0
   16.5000   10.3923    0.0000 O   0  0  0  0  0  0  0  0  0  0  0  0
   14.2500    9.0933    0.0000 C   0  0  0  0  0  0  0  0  0  0  0  0
   15.0000   10.3923    0.0000 O   0  0  0  0  0  0  0  0  0  0  0  0
   14.2500   11.6913    0.0000 C   0  0  0  0  0  0  0  0  0  0  0  0
   12.7500    9.0933    0.0000 C   0  0  0  0  0  0  0  0  0  0  0  0
   12.0000   10.3923    0.0000 O   0  0  0  0  0  0  0  0  0  0  0  0
    8.2500    6.4952    0.0000 C   0  0  0  0  0  0  0  0  0  0  0  0
    7.5000    7.7942    0.0000 C   0  0  0  0  0  0  0  0  0  0  0  0
    7.5000    5.1962    0.0000 O   0  0  0  0  0  0  0  0  0  0  0  0
    5.2500    3.8971    0.0000 C   0  0  0  0  0  0  0  0  0  0  0  0
    6.0000    5.1962    0.0000 C   0  0  0  0  0  0  0  0  0  0  0  0
    3.7500    3.8971    0.0000 O   0  0  0  0  0  0  0  0  0  0  0  0
   -0.7500    1.2990    0.0000 C   0  0  0  0  0  0  0  0  0  0  0  0
   -1.5000    0.0000    0.0000 C   0  0  0  0  0  0  0  0  0  0  0  0
   -0.7500   -1.2990    0.0000 C   0  0  0  0  0  0  0  0  0  0  0  0
   -2.2500   -1.2990    0.0000 C   0  0  0  0  0  0  0  0  0  0  0  0
   -1.5000   -5.1962    0.0000 C   0  0  0  0  0  0  0  0  0  0  0  0
   -0.0082   -5.3529    0.0000 O   0  0  0  0  0  0  0  0  0  0  0  0
   -1.0365   -6.6227    0.0000 C   0  0  0  0  0  0  0  0  0  0  0  0
   -2.2500   -7.5044    0.0000 C   0  0  0  0  0  0  0  0  0  0  0  0
   -3.4635   -6.6227    0.0000 C   0  0  0  0  0  0  0  0  0  0  0  0
   -4.8901   -7.0863    0.0000 C   0  0  0  0  0  0  0  0  0  0  0  0
   -5.2020   -8.5535    0.0000 C   0  0  0  0  0  0  0  0  0  0  0  0
   -6.0048   -6.0826    0.0000 O   0  0  0  0  0  0  0  0  0  0  0  0
   -3.0000   -5.1962    0.0000 C   0  0  0  0  0  0  0  0  0  0  0  0
   -4.4918   -5.3529    0.0000 C   0  0  0  0  0  0  0  0  0  0  0  0
  1  2  1  0
  2  3  2  0
  3  4  1  0
  3  5  1  0
  5  6  2  0
  5  7  1  0
  8  7  1  6
  8  9  1  0
 10  9  1  6
 10 11  1  0
 11 12  1  1
 12 13  1  0
 13 14  2  0
 14 15  1  0
 15 16  1  0
 16 17  1  6
 18 17  1  6
 18 19  1  0
 19 20  1  0
 20 21  1  1
 21 22  1  0
 20 23  1  0
 23 24  1  1
 25 24  1  6
 25 26  1  0
 26 27  1  0
 27 28  1  1
 28 29  1  0
 27 30  1  0
 30 31  1  1
 32 31  1  1
 32 33  1  0
 33 34  1  0
 34 35  1  1
 34 36  1  0
 36 37  1  6
 38 37  1  6
 38 39  1  0
 39 40  1  0
 40 41  1  1
 41 42  1  0
 40 43  1  0
 43 44  1  1
 43 45  1  0
 45 46  1  6
 45 47  1  0
 36 48  1  0
 48 49  1  1
 49 50  1  0
 48 51  1  0
 51 52  1  6
 30 53  1  0
 53 54  1  6
 53 55  1  0
 23 56  1  0
 56 57  1  6
 56 58  1  0
 16 59  1  0
 59 60  1  0
 60 61  1  0
 61 62  1  6
 11 63  1  0
 63 64  1  6
 63 65  1  0
 65 66  1  0
 66 67  1  0
 67 68  1  6
 68 69  1  0
 68 70  2  0
 67 71  1  0
 71 72  1  6
 71  8  1  0
 61 10  1  0
 71 63  1  0
 61 14  1  0
 58 18  1  0
 55 25  1  0
 51 32  1  0
 47 38  1  0
M  END
>  <id>  (122) 
SANC00455_minRM1.pdb

>  <SMILES>  (122) 
C/C=C(\C)C(=O)O[C@@H]1C[C@H]2[C@@H](CC=C3C[C@@H](O[C@H]4C[C@H](OC)[C@H](O[C@H]5C[C@H](OC)[C@H](O[C@@H]6O[C@H](C)[C@@H](O[C@H]7C[C@H](OC)[C@H](O)[C@@H](C)O7)[C@H](OC)[C@H]6O)[C@@H](C)O5)[C@@H](C)O4)CC[C@@]32C)[C@@]2(O)CC[C@H](C(C)=O)[C@@]12C

>  <warheads>  (122) 
ab_unsat_carbonyl:1

>  <n_warheads>  (122) 
1

>  <max_tier>  (122) 
1

>  <pains_flag>  (122) 


>  <MW>  (122) 
1023.3

>  <cLogP>  (122) 
5.23

>  <HBD>  (122) 
3

>  <HBA>  (122) 
18

>  <TPSA>  (122) 
214.8

>  <ArRings>  (122) 
0

$$$$
SANC00456_minRM1.pdb
     RDKit          2D

 31 34  0  0  0  0  0  0  0  0999 V2000
    9.7500   -1.2990    0.0000 C   0  0  0  0  0  0  0  0  0  0  0  0
    8.2500   -1.2990    0.0000 C   0  0  0  0  0  0  0  0  0  0  0  0
    7.5000   -2.5981    0.0000 C   0  0  0  0  0  0  0  0  0  0  0  0
    8.2500   -3.8971    0.0000 C   0  0  0  0  0  0  0  0  0  0  0  0
    6.0000   -2.5981    0.0000 C   0  0  0  0  0  0  0  0  0  0  0  0
    5.2500   -1.2990    0.0000 O   0  0  0  0  0  0  0  0  0  0  0  0
    5.2500   -3.8971    0.0000 O   0  0  0  0  0  0  0  0  0  0  0  0
    3.7500   -3.8971    0.0000 C   0  0  0  0  0  0  0  0  0  0  0  0
    3.0000   -2.5981    0.0000 C   0  0  0  0  0  0  0  0  0  0  0  0
    1.5000   -2.5981    0.0000 C   0  0  0  0  0  0  0  0  0  0  0  0
    0.7500   -1.2990    0.0000 C   0  0  0  0  0  0  0  0  0  0  0  0
    1.5000    0.0000    0.0000 C   0  0  0  0  0  0  0  0  0  0  0  0
    0.7500    1.2990    0.0000 C   0  0  0  0  0  0  0  0  0  0  0  0
   -0.7500    1.2990    0.0000 C   0  0  0  0  0  0  0  0  0  0  0  0
   -1.5000    2.5981    0.0000 O   0  0  0  0  0  0  0  0  0  0  0  0
   -1.5000    0.0000    0.0000 C   0  0  0  0  0  0  0  0  0  0  0  0
   -0.7500   -1.2990    0.0000 C   0  0  0  0  0  0  0  0  0  0  0  0
   -1.5000   -2.5981    0.0000 C   0  0  0  0  0  0  0  0  0  0  0  0
   -0.7500   -3.8971    0.0000 C   0  0  0  0  0  0  0  0  0  0  0  0
    0.7500   -3.8971    0.0000 C   0  0  0  0  0  0  0  0  0  0  0  0
   -0.0000   -5.1962    0.0000 C   0  0  0  0  0  0  0  0  0  0  0  0
    1.5000   -5.1962    0.0000 C   0  0  0  0  0  0  0  0  0  0  0  0
    2.3817   -3.9826    0.0000 O   0  0  0  0  0  0  0  0  0  0  0  0
    1.0365   -6.6227    0.0000 C   0  0  0  0  0  0  0  0  0  0  0  0
    2.2500   -7.5044    0.0000 C   0  0  0  0  0  0  0  0  0  0  0  0
    3.4635   -6.6227    0.0000 C   0  0  0  0  0  0  0  0  0  0  0  0
    4.8901   -7.0863    0.0000 C   0  0  0  0  0  0  0  0  0  0  0  0
    5.2020   -8.5535    0.0000 C   0  0  0  0  0  0  0  0  0  0  0  0
    6.0048   -6.0826    0.0000 O   0  0  0  0  0  0  0  0  0  0  0  0
    3.0000   -5.1962    0.0000 C   0  0  0  0  0  0  0  0  0  0  0  0
    4.4918   -5.3529    0.0000 C   0  0  0  0  0  0  0  0  0  0  0  0
  1  2  1  0
  2  3  2  0
  3  4  1  0
  3  5  1  0
  5  6  2  0
  5  7  1  0
  8  7  1  1
  8  9  1  0
 10  9  1  1
 10 11  1  0
 11 12  1  1
 12 13  1  0
 13 14  1  0
 14 15  1  1
 14 16  1  0
 16 17  1  0
 17 18  2  0
 18 19  1  0
 19 20  1  0
 20 21  1  1
 20 22  1  0
 22 23  1  1
 22 24  1  0
 24 25  1  0
 25 26  1  0
 26 27  1  1
 27 28  1  0
 27 29  2  0
 26 30  1  0
 30 31  1  1
 30  8  1  0
 20 10  1  0
 30 22  1  0
 17 11  1  0
M  END
>  <id>  (123) 
SANC00456_minRM1.pdb

>  <SMILES>  (123) 
C/C=C(\C)C(=O)O[C@@H]1C[C@@H]2[C@@H]3CC[C@H](O)CC3=CC[C@@]2(C)[C@@]2(O)CC[C@H](C(C)=O)[C@@]12C

>  <warheads>  (123) 
ab_unsat_carbonyl:1

>  <n_warheads>  (123) 
1

>  <max_tier>  (123) 
1

>  <pains_flag>  (123) 


>  <MW>  (123) 
430.6

>  <cLogP>  (123) 
4.12

>  <HBD>  (123) 
2

>  <HBA>  (123) 
5

>  <TPSA>  (123) 
83.8

>  <ArRings>  (123) 
0

$$$$
SANC00459_minRM1.pdb
     RDKit          2D

 41 45  0  0  0  0  0  0  0  0999 V2000
   -9.7500   -1.2990    0.0000 C   0  0  0  0  0  0  0  0  0  0  0  0
   -8.2500   -1.2990    0.0000 C   0  0  0  0  0  0  0  0  0  0  0  0
   -7.5000   -2.5981    0.0000 C   0  0  0  0  0  0  0  0  0  0  0  0
   -8.2500   -3.8971    0.0000 C   0  0  0  0  0  0  0  0  0  0  0  0
   -6.0000   -2.5981    0.0000 C   0  0  0  0  0  0  0  0  0  0  0  0
   -5.2500   -1.2990    0.0000 O   0  0  0  0  0  0  0  0  0  0  0  0
   -5.2500   -3.8971    0.0000 O   0  0  0  0  0  0  0  0  0  0  0  0
   -3.7500   -3.8971    0.0000 C   0  0  0  0  0  0  0  0  0  0  0  0
   -3.0000   -2.5981    0.0000 C   0  0  0  0  0  0  0  0  0  0  0  0
   -1.5000   -2.5981    0.0000 C   0  0  0  0  0  0  0  0  0  0  0  0
   -0.7500   -3.8971    0.0000 C   0  0  0  0  0  0  0  0  0  0  0  0
    0.7500   -3.8971    0.0000 C   0  0  0  0  0  0  0  0  0  0  0  0
    1.5000   -2.5981    0.0000 C   0  0  0  0  0  0  0  0  0  0  0  0
    0.7500   -1.2990    0.0000 C   0  0  0  0  0  0  0  0  0  0  0  0
    1.5000    0.0000    0.0000 C   0  0  0  0  0  0  0  0  0  0  0  0
    0.7500    1.2990    0.0000 C   0  0  0  0  0  0  0  0  0  0  0  0
    1.5000    2.5981    0.0000 O   0  0  0  0  0  0  0  0  0  0  0  0
    3.0000    2.5981    0.0000 C   0  0  0  0  0  0  0  0  0  0  0  0
    3.7500    1.2990    0.0000 C   0  0  0  0  0  0  0  0  0  0  0  0
    5.2500    1.2990    0.0000 C   0  0  0  0  0  0  0  0  0  0  0  0
    6.0000   -0.0000    0.0000 O   0  0  0  0  0  0  0  0  0  0  0  0
    5.2500   -1.2990    0.0000 C   0  0  0  0  0  0  0  0  0  0  0  0
    6.0000    2.5981    0.0000 C   0  0  0  0  0  0  0  0  0  0  0  0
    7.5000    2.5981    0.0000 O   0  0  0  0  0  0  0  0  0  0  0  0
    5.2500    3.8971    0.0000 C   0  0  0  0  0  0  0  0  0  0  0  0
    6.0000    5.1962    0.0000 C   0  0  0  0  0  0  0  0  0  0  0  0
    3.7500    3.8971    0.0000 O   0  0  0  0  0  0  0  0  0  0  0  0
   -0.7500    1.2990    0.0000 C   0  0  0  0  0  0  0  0  0  0  0  0
   -1.5000    0.0000    0.0000 C   0  0  0  0  0  0  0  0  0  0  0  0
   -0.7500   -1.2990    0.0000 C   0  0  0  0  0  0  0  0  0  0  0  0
   -2.2500   -1.2990    0.0000 C   0  0  0  0  0  0  0  0  0  0  0  0
   -1.5000   -5.1962    0.0000 C   0  0  0  0  0  0  0  0  0  0  0  0
   -0.0082   -5.3529    0.0000 O   0  0  0  0  0  0  0  0  0  0  0  0
   -1.0365   -6.6227    0.0000 C   0  0  0  0  0  0  0  0  0  0  0  0
   -2.2500   -7.5044    0.0000 C   0  0  0  0  0  0  0  0  0  0  0  0
   -3.4635   -6.6227    0.0000 C   0  0  0  0  0  0  0  0  0  0  0  0
   -4.8901   -7.0863    0.0000 C   0  0  0  0  0  0  0  0  0  0  0  0
   -5.2020   -8.5535    0.0000 C   0  0  0  0  0  0  0  0  0  0  0  0
   -6.0048   -6.0826    0.0000 O   0  0  0  0  0  0  0  0  0  0  0  0
   -3.0000   -5.1962    0.0000 C   0  0  0  0  0  0  0  0  0  0  0  0
   -4.4918   -5.3529    0.0000 C   0  0  0  0  0  0  0  0  0  0  0  0
  1  2  1  0
  2  3  2  0
  3  4  1  0
  3  5  1  0
  5  6  2  0
  5  7  1  0
  8  7  1  6
  8  9  1  0
 10  9  1  6
 10 11  1  0
 11 12  1  1
 12 13  1  0
 13 14  2  0
 14 15  1  0
 15 16  1  0
 16 17  1  6
 18 17  1  6
 18 19  1  0
 19 20  1  0
 20 21  1  1
 21 22  1  0
 20 23  1  0
 23 24  1  1
 23 25  1  0
 25 26  1  6
 25 27  1  0
 16 28  1  0
 28 29  1  0
 29 30  1  0
 30 31  1  6
 11 32  1  0
 32 33  1  6
 32 34  1  0
 34 35  1  0
 35 36  1  0
 36 37  1  6
 37 38  1  0
 37 39  2  0
 36 40  1  0
 40 41  1  6
 40  8  1  0
 30 10  1  0
 40 32  1  0
 30 14  1  0
 27 18  1  0
M  END
>  <id>  (124) 
SANC00459_minRM1.pdb

>  <SMILES>  (124) 
C/C=C(\C)C(=O)O[C@@H]1C[C@H]2[C@@H](CC=C3C[C@@H](O[C@H]4C[C@H](OC)[C@H](O)[C@@H](C)O4)CC[C@@]32C)[C@@]2(O)CC[C@H](C(C)=O)[C@@]12C

>  <warheads>  (124) 
ab_unsat_carbonyl:1

>  <n_warheads>  (124) 
1

>  <max_tier>  (124) 
1

>  <pains_flag>  (124) 


>  <MW>  (124) 
574.8

>  <cLogP>  (124) 
4.65

>  <HBD>  (124) 
2

>  <HBA>  (124) 
8

>  <TPSA>  (124) 
111.5

>  <ArRings>  (124) 
0

$$$$
SANC00469_minRM1.pdb
     RDKit          2D

 12 12  0  0  0  0  0  0  0  0999 V2000
    6.0000    0.0000    0.0000 O   0  0  0  0  0  0  0  0  0  0  0  0
    5.2500   -1.2990    0.0000 C   0  0  0  0  0  0  0  0  0  0  0  0
    6.0000   -2.5981    0.0000 O   0  0  0  0  0  0  0  0  0  0  0  0
    3.7500   -1.2990    0.0000 C   0  0  0  0  0  0  0  0  0  0  0  0
    3.0000    0.0000    0.0000 C   0  0  0  0  0  0  0  0  0  0  0  0
    1.5000    0.0000    0.0000 C   0  0  0  0  0  0  0  0  0  0  0  0
    0.7500   -1.2990    0.0000 C   0  0  0  0  0  0  0  0  0  0  0  0
   -0.7500   -1.2990    0.0000 C   0  0  0  0  0  0  0  0  0  0  0  0
   -1.5000    0.0000    0.0000 C   0  0  0  0  0  0  0  0  0  0  0  0
   -3.0000    0.0000    0.0000 O   0  0  0  0  0  0  0  0  0  0  0  0
   -0.7500    1.2990    0.0000 C   0  0  0  0  0  0  0  0  0  0  0  0
    0.7500    1.2990    0.0000 C   0  0  0  0  0  0  0  0  0  0  0  0
  1  2  2  0
  2  3  1  0
  2  4  1  0
  4  5  2  0
  5  6  1  0
  6  7  2  0
  7  8  1  0
  8  9  2  0
  9 10  1  0
  9 11  1  0
 11 12  2  0
 12  6  1  0
M  END
>  <id>  (125) 
SANC00469_minRM1.pdb

>  <SMILES>  (125) 
O=C(O)/C=C/c1ccc(O)cc1

>  <warheads>  (125) 
ab_unsat_carbonyl:1

>  <n_warheads>  (125) 
1

>  <max_tier>  (125) 
1

>  <pains_flag>  (125) 


>  <MW>  (125) 
164.2

>  <cLogP>  (125) 
1.49

>  <HBD>  (125) 
2

>  <HBA>  (125) 
2

>  <TPSA>  (125) 
57.5

>  <ArRings>  (125) 
1

$$$$
SANC00488_minRM1.pdb
     RDKit          2D

 68 81  0  0  0  0  0  0  0  0999 V2000
   12.1856  -14.9803    0.0000 C   0  0  0  0  0  0  0  0  0  0  0  0
   10.9721  -15.8620    0.0000 C   0  0  0  0  0  0  0  0  0  0  0  0
   10.9721  -17.3620    0.0000 C   0  0  0  0  0  0  0  0  0  0  0  0
    9.5455  -17.8255    0.0000 O   0  0  0  0  0  0  0  0  0  0  0  0
    8.6638  -16.6120    0.0000 C   0  0  0  0  0  0  0  0  0  0  0  0
    7.2373  -16.1485    0.0000 C   0  0  0  0  0  0  0  0  0  0  0  0
    7.2373  -14.6485    0.0000 C   0  0  0  0  0  0  0  0  0  0  0  0
    6.1225  -13.6448    0.0000 C   0  0  0  0  0  0  0  0  0  0  0  0
    4.6960  -14.1083    0.0000 C   0  0  0  0  0  0  0  0  0  0  0  0
    3.5812  -13.1046    0.0000 C   0  0  0  0  0  0  0  0  0  0  0  0
    3.8931  -11.6374    0.0000 C   0  0  0  0  0  0  0  0  0  0  0  0
    2.7784  -10.6337    0.0000 C   0  0  0  0  0  0  0  0  0  0  0  0
    3.0903   -9.1664    0.0000 C   0  0  0  0  0  0  0  0  0  0  0  0
    1.9755   -8.1628    0.0000 N   0  0  0  0  0  0  0  0  0  0  0  0
    2.2874   -6.6955    0.0000 C   0  0  0  0  0  0  0  0  0  0  0  0
    3.7140   -6.2320    0.0000 C   0  0  0  0  0  0  0  0  0  0  0  0
    4.8287   -7.2357    0.0000 N   0  0  0  0  0  0  0  0  0  0  0  0
    4.5168   -8.7029    0.0000 C   0  0  0  0  0  0  0  0  0  0  0  0
    5.6316   -9.7066    0.0000 C   0  0  0  0  0  0  0  0  0  0  0  0
    5.3197  -11.1738    0.0000 C   0  0  0  0  0  0  0  0  0  0  0  0
    6.7463  -10.7103    0.0000 C   0  0  0  0  0  0  0  0  0  0  0  0
    6.4344  -12.1775    0.0000 C   0  0  0  0  0  0  0  0  0  0  0  0
    7.8610  -11.7140    0.0000 C   0  0  0  0  0  0  0  0  0  0  0  0
    8.9757  -12.7177    0.0000 C   0  0  0  0  0  0  0  0  0  0  0  0
   10.4023  -12.2542    0.0000 O   0  0  0  0  0  0  0  0  0  0  0  0
    8.6638  -14.1849    0.0000 C   0  0  0  0  0  0  0  0  0  0  0  0
   10.1311  -13.8731    0.0000 C   0  0  0  0  0  0  0  0  0  0  0  0
    9.5455  -15.3985    0.0000 C   0  0  0  0  0  0  0  0  0  0  0  0
    8.1189  -15.8620    0.0000 O   0  0  0  0  0  0  0  0  0  0  0  0
    4.0259   -4.7648    0.0000 C   0  0  0  0  0  0  0  0  0  0  0  0
    2.9111   -3.7611    0.0000 C   0  0  0  0  0  0  0  0  0  0  0  0
    3.2230   -2.2939    0.0000 C   0  0  0  0  0  0  0  0  0  0  0  0
    2.1083   -1.2902    0.0000 C   0  0  0  0  0  0  0  0  0  0  0  0
    0.6817   -1.7537    0.0000 C   0  0  0  0  0  0  0  0  0  0  0  0
    1.7964   -2.7574    0.0000 O   0  0  0  0  0  0  0  0  0  0  0  0
    0.3698   -3.2209    0.0000 C   0  0  0  0  0  0  0  0  0  0  0  0
   -0.9112   -2.9997    0.0000 C   0  0  0  0  0  0  0  0  0  0  0  0
   -1.5057   -2.4644    0.0000 C   0  0  0  0  0  0  0  0  0  0  0  0
   -3.2497   -3.3746    0.0000 O   0  0  0  0  0  0  0  0  0  0  0  0
   -1.8596   -1.2135    0.0000 C   0  0  0  0  0  0  0  0  0  0  0  0
   -2.4697   -2.5838    0.0000 C   0  0  0  0  0  0  0  0  0  0  0  0
   -3.9615   -2.7406    0.0000 O   0  0  0  0  0  0  0  0  0  0  0  0
   -4.8432   -1.5271    0.0000 C   0  0  0  0  0  0  0  0  0  0  0  0
   -5.5932   -2.8261    0.0000 O   0  0  0  0  0  0  0  0  0  0  0  0
   -7.0604   -2.5143    0.0000 C   0  0  0  0  0  0  0  0  0  0  0  0
   -7.2172   -4.0061    0.0000 C   0  0  0  0  0  0  0  0  0  0  0  0
   -8.5604   -2.5143    0.0000 C   0  0  0  0  0  0  0  0  0  0  0  0
   -7.2172   -1.0225    0.0000 C   0  0  0  0  0  0  0  0  0  0  0  0
   -5.8469   -0.4124    0.0000 C   0  0  0  0  0  0  0  0  0  0  0  0
   -5.7292    0.9325    0.0000 O   0  0  0  0  0  0  0  0  0  0  0  0
   -4.2331   -0.1568    0.0000 C   0  0  0  0  0  0  0  0  0  0  0  0
   -4.8875    1.0240    0.0000 C   0  0  0  0  0  0  0  0  0  0  0  0
   -2.7413    0.0000    0.0000 C   0  0  0  0  0  0  0  0  0  0  0  0
   -1.8596    1.2135    0.0000 C   0  0  0  0  0  0  0  0  0  0  0  0
   -0.4330    0.7500    0.0000 C   0  0  0  0  0  0  0  0  0  0  0  0
    0.8660    0.0000    0.0000 O   0  0  0  0  0  0  0  0  0  0  0  0
   -0.4330   -0.7500    0.0000 C   0  0  0  0  0  0  0  0  0  0  0  0
    1.4846   -4.2246    0.0000 C   0  0  0  0  0  0  0  0  0  0  0  0
    0.0580   -4.6881    0.0000 C   0  0  0  0  0  0  0  0  0  0  0  0
    1.1727   -5.6918    0.0000 C   0  0  0  0  0  0  0  0  0  0  0  0
   12.3987  -16.8985    0.0000 O   0  0  0  0  0  0  0  0  0  0  0  0
   13.2804  -18.1120    0.0000 C   0  0  0  0  0  0  0  0  0  0  0  0
   14.3951  -17.1083    0.0000 C   0  0  0  0  0  0  0  0  0  0  0  0
   14.3951  -19.1157    0.0000 C   0  0  0  0  0  0  0  0  0  0  0  0
   14.0832  -20.5829    0.0000 O   0  0  0  0  0  0  0  0  0  0  0  0
   12.3987  -19.3255    0.0000 C   0  0  0  0  0  0  0  0  0  0  0  0
   10.9721  -18.8620    0.0000 C   0  0  0  0  0  0  0  0  0  0  0  0
    9.7586  -19.7437    0.0000 O   0  0  0  0  0  0  0  0  0  0  0  0
  2  1  1  6
  2  3  1  0
  3  4  1  1
  5  4  1  1
  5  6  1  0
  6  7  2  0
  7  8  1  0
  8  9  1  1
  9 10  1  0
 11 10  1  1
 11 12  1  0
 12 13  1  0
 13 14  2  0
 14 15  1  0
 15 16  2  0
 16 17  1  0
 17 18  2  0
 18 19  1  0
 19 20  1  0
 20 21  1  1
 20 22  1  0
 22 23  1  6
 23 24  1  0
 24 25  1  6
 24 26  1  0
 26 27  1  6
 26 28  1  0
 28 29  1  6
 16 30  1  0
 31 30  1  1
 31 32  1  0
 32 33  1  0
 33 34  1  0
 34 35  1  1
 34 36  1  0
 36 37  2  0
 37 38  1  0
 38 39  2  0
 38 40  1  0
 40 41  1  6
 41 42  1  0
 43 42  1  6
 43 44  1  0
 44 45  1  0
 45 46  1  0
 45 47  1  0
 45 48  1  0
 48 49  1  0
 49 50  1  1
 43 51  1  0
 51 52  1  1
 51 53  1  0
 53 54  1  6
 55 54  1  6
 55 56  1  0
 57 56  1  6
 36 58  1  0
 58 59  1  1
 58 60  1  0
  3 61  1  0
 61 62  1  0
 62 63  1  6
 62 64  1  0
 64 65  1  0
 62 66  1  0
 66 67  1  0
 67 68  1  1
 28  2  1  0
 58 31  1  0
 67  3  1  0
 28  5  1  0
 57 34  1  0
 26  7  1  0
 53 40  1  0
 57 55  1  0
 22  8  1  0
 57 40  1  0
 20 11  1  0
 49 43  1  0
 18 13  1  0
 60 15  1  0
M  END
>  <id>  (126) 
SANC00488_minRM1.pdb

>  <SMILES>  (126) 
C[C@@H]1[C@]2(O[C@H]3C=C4[C@H]5CC[C@H]6Cc7nc8c(nc7C[C@]6(C)[C@@H]5C[C@H](O)[C@@]4(C)[C@]31O)C[C@@H]1CC[C@]3(O)C(=CC(=O)[C@@]45CO[C@@]6(OC(C)(C)C[C@H]6O)[C@@H](C)[C@@H]4C[C@@H]4O[C@@]453)[C@@]1(C)C8)O[C@@](C)(CO)C[C@H]2O

>  <warheads>  (126) 
ab_unsat_carbonyl:1

>  <n_warheads>  (126) 
1

>  <max_tier>  (126) 
1

>  <pains_flag>  (126) 


>  <MW>  (126) 
941.2

>  <cLogP>  (126) 
3.75

>  <HBD>  (126) 
6

>  <HBA>  (126) 
14

>  <TPSA>  (126) 
213.7

>  <ArRings>  (126) 
1

$$$$
SANC00489_minRM1.pdb
     RDKit          2D

 69 82  0  0  0  0  0  0  0  0999 V2000
   12.1856  -14.9803    0.0000 C   0  0  0  0  0  0  0  0  0  0  0  0
   10.9721  -15.8620    0.0000 C   0  0  0  0  0  0  0  0  0  0  0  0
   10.9721  -17.3620    0.0000 C   0  0  0  0  0  0  0  0  0  0  0  0
    9.5455  -17.8255    0.0000 O   0  0  0  0  0  0  0  0  0  0  0  0
    8.6638  -16.6120    0.0000 C   0  0  0  0  0  0  0  0  0  0  0  0
    7.2373  -16.1485    0.0000 C   0  0  0  0  0  0  0  0  0  0  0  0
    7.2373  -14.6485    0.0000 C   0  0  0  0  0  0  0  0  0  0  0  0
    6.1225  -13.6448    0.0000 C   0  0  0  0  0  0  0  0  0  0  0  0
    4.6960  -14.1083    0.0000 C   0  0  0  0  0  0  0  0  0  0  0  0
    3.5812  -13.1046    0.0000 C   0  0  0  0  0  0  0  0  0  0  0  0
    3.8931  -11.6374    0.0000 C   0  0  0  0  0  0  0  0  0  0  0  0
    2.7784  -10.6337    0.0000 C   0  0  0  0  0  0  0  0  0  0  0  0
    3.0903   -9.1664    0.0000 C   0  0  0  0  0  0  0  0  0  0  0  0
    1.9755   -8.1628    0.0000 N   0  0  0  0  0  0  0  0  0  0  0  0
    2.2874   -6.6955    0.0000 C   0  0  0  0  0  0  0  0  0  0  0  0
    3.7140   -6.2320    0.0000 C   0  0  0  0  0  0  0  0  0  0  0  0
    4.8287   -7.2357    0.0000 N   0  0  0  0  0  0  0  0  0  0  0  0
    4.5168   -8.7029    0.0000 C   0  0  0  0  0  0  0  0  0  0  0  0
    5.6316   -9.7066    0.0000 C   0  0  0  0  0  0  0  0  0  0  0  0
    5.3197  -11.1738    0.0000 C   0  0  0  0  0  0  0  0  0  0  0  0
    6.7463  -10.7103    0.0000 C   0  0  0  0  0  0  0  0  0  0  0  0
    6.4344  -12.1775    0.0000 C   0  0  0  0  0  0  0  0  0  0  0  0
    7.8610  -11.7140    0.0000 C   0  0  0  0  0  0  0  0  0  0  0  0
    8.9757  -12.7177    0.0000 C   0  0  0  0  0  0  0  0  0  0  0  0
   10.4023  -12.2542    0.0000 O   0  0  0  0  0  0  0  0  0  0  0  0
    8.6638  -14.1849    0.0000 C   0  0  0  0  0  0  0  0  0  0  0  0
   10.1311  -13.8731    0.0000 C   0  0  0  0  0  0  0  0  0  0  0  0
    9.5455  -15.3985    0.0000 C   0  0  0  0  0  0  0  0  0  0  0  0
    8.1189  -15.8620    0.0000 O   0  0  0  0  0  0  0  0  0  0  0  0
    4.0259   -4.7648    0.0000 C   0  0  0  0  0  0  0  0  0  0  0  0
    2.9111   -3.7611    0.0000 C   0  0  0  0  0  0  0  0  0  0  0  0
    3.2230   -2.2939    0.0000 C   0  0  0  0  0  0  0  0  0  0  0  0
    2.1083   -1.2902    0.0000 C   0  0  0  0  0  0  0  0  0  0  0  0
    0.6817   -1.7537    0.0000 C   0  0  0  0  0  0  0  0  0  0  0  0
    1.7964   -2.7574    0.0000 O   0  0  0  0  0  0  0  0  0  0  0  0
    0.3698   -3.2209    0.0000 C   0  0  0  0  0  0  0  0  0  0  0  0
   -0.9112   -2.9997    0.0000 C   0  0  0  0  0  0  0  0  0  0  0  0
   -1.5057   -2.4644    0.0000 C   0  0  0  0  0  0  0  0  0  0  0  0
   -3.2497   -3.3746    0.0000 O   0  0  0  0  0  0  0  0  0  0  0  0
   -1.8596   -1.2135    0.0000 C   0  0  0  0  0  0  0  0  0  0  0  0
   -2.4697   -2.5838    0.0000 C   0  0  0  0  0  0  0  0  0  0  0  0
   -3.9615   -2.7406    0.0000 O   0  0  0  0  0  0  0  0  0  0  0  0
   -4.8432   -1.5271    0.0000 C   0  0  0  0  0  0  0  0  0  0  0  0
   -5.5932   -2.8261    0.0000 O   0  0  0  0  0  0  0  0  0  0  0  0
   -7.0604   -2.5143    0.0000 C   0  0  0  0  0  0  0  0  0  0  0  0
   -7.2172   -4.0061    0.0000 C   0  0  0  0  0  0  0  0  0  0  0  0
   -8.5604   -2.5143    0.0000 C   0  0  0  0  0  0  0  0  0  0  0  0
   -7.2172   -1.0225    0.0000 C   0  0  0  0  0  0  0  0  0  0  0  0
   -8.5162   -0.2725    0.0000 C   0  0  0  0  0  0  0  0  0  0  0  0
   -5.8469   -0.4124    0.0000 C   0  0  0  0  0  0  0  0  0  0  0  0
   -5.7292    0.9325    0.0000 O   0  0  0  0  0  0  0  0  0  0  0  0
   -4.2331   -0.1568    0.0000 C   0  0  0  0  0  0  0  0  0  0  0  0
   -4.8875    1.0240    0.0000 C   0  0  0  0  0  0  0  0  0  0  0  0
   -2.7413    0.0000    0.0000 C   0  0  0  0  0  0  0  0  0  0  0  0
   -1.8596    1.2135    0.0000 C   0  0  0  0  0  0  0  0  0  0  0  0
   -0.4330    0.7500    0.0000 C   0  0  0  0  0  0  0  0  0  0  0  0
    0.8660    0.0000    0.0000 O   0  0  0  0  0  0  0  0  0  0  0  0
   -0.4330   -0.7500    0.0000 C   0  0  0  0  0  0  0  0  0  0  0  0
    1.4846   -4.2246    0.0000 C   0  0  0  0  0  0  0  0  0  0  0  0
    0.0580   -4.6881    0.0000 C   0  0  0  0  0  0  0  0  0  0  0  0
    1.1727   -5.6918    0.0000 C   0  0  0  0  0  0  0  0  0  0  0  0
   12.3987  -16.8985    0.0000 O   0  0  0  0  0  0  0  0  0  0  0  0
   13.2804  -18.1120    0.0000 C   0  0  0  0  0  0  0  0  0  0  0  0
   14.3951  -17.1083    0.0000 C   0  0  0  0  0  0  0  0  0  0  0  0
   14.3951  -19.1157    0.0000 C   0  0  0  0  0  0  0  0  0  0  0  0
   14.0832  -20.5829    0.0000 O   0  0  0  0  0  0  0  0  0  0  0  0
   12.3987  -19.3255    0.0000 C   0  0  0  0  0  0  0  0  0  0  0  0
   10.9721  -18.8620    0.0000 C   0  0  0  0  0  0  0  0  0  0  0  0
    9.7586  -19.7437    0.0000 O   0  0  0  0  0  0  0  0  0  0  0  0
  2  1  1  6
  2  3  1  0
  3  4  1  1
  5  4  1  6
  5  6  1  0
  6  7  2  0
  7  8  1  0
  8  9  1  6
  9 10  1  0
 11 10  1  1
 11 12  1  0
 12 13  1  0
 13 14  2  0
 14 15  1  0
 15 16  2  0
 16 17  1  0
 17 18  2  0
 18 19  1  0
 19 20  1  0
 20 21  1  1
 20 22  1  0
 22 23  1  1
 23 24  1  0
 24 25  1  6
 24 26  1  0
 26 27  1  1
 26 28  1  0
 28 29  1  1
 16 30  1  0
 31 30  1  1
 31 32  1  0
 32 33  1  0
 33 34  1  0
 34 35  1  6
 34 36  1  0
 36 37  2  0
 37 38  1  0
 38 39  2  0
 38 40  1  0
 40 41  1  1
 41 42  1  0
 43 42  1  6
 43 44  1  0
 44 45  1  0
 45 46  1  0
 45 47  1  0
 45 48  1  0
 48 49  1  1
 48 50  1  0
 50 51  1  6
 43 52  1  0
 52 53  1  1
 52 54  1  0
 54 55  1  1
 56 55  1  1
 56 57  1  0
 58 57  1  1
 36 59  1  0
 59 60  1  1
 59 61  1  0
  3 62  1  0
 62 63  1  0
 63 64  1  1
 63 65  1  0
 65 66  1  0
 63 67  1  0
 67 68  1  0
 68 69  1  6
 28  2  1  0
 59 31  1  0
 68  3  1  0
 28  5  1  0
 58 34  1  0
 26  7  1  0
 54 40  1  0
 58 56  1  0
 22  8  1  0
 58 40  1  0
 20 11  1  0
 50 43  1  0
 18 13  1  0
 61 15  1  0
M  END
>  <id>  (127) 
SANC00489_minRM1.pdb

>  <SMILES>  (127) 
C[C@@H]1[C@]2(O[C@@H]3C=C4[C@@H]5CC[C@H]6Cc7nc8c(nc7C[C@]6(C)[C@H]5C[C@H](O)[C@]4(C)[C@]13O)C[C@@H]1CC[C@@]3(O)C(=CC(=O)[C@]45CO[C@@]6(OC(C)(C)[C@@H](C)[C@@H]6O)[C@@H](C)[C@H]4C[C@H]4O[C@@]435)[C@@]1(C)C8)O[C@](C)(CO)C[C@@H]2O

>  <warheads>  (127) 
ab_unsat_carbonyl:1

>  <n_warheads>  (127) 
1

>  <max_tier>  (127) 
1

>  <pains_flag>  (127) 


>  <MW>  (127) 
955.2

>  <cLogP>  (127) 
4.0

>  <HBD>  (127) 
6

>  <HBA>  (127) 
14

>  <TPSA>  (127) 
213.7

>  <ArRings>  (127) 
1

$$$$
SANC00518_minRM1.pdb
     RDKit          2D

 44 49  0  0  0  0  0  0  0  0999 V2000
    3.5260   -1.2990    0.0000 C   0  0  0  0  0  0  0  0  0  0  0  0
    2.7760    0.0000    0.0000 C   0  0  0  0  0  0  0  0  0  0  0  0
    3.5260    1.2990    0.0000 C   0  0  0  0  0  0  0  0  0  0  0  0
    1.2760    0.0000    0.0000 C   0  0  0  0  0  0  0  0  0  0  0  0
    0.3943    1.2135    0.0000 C   0  0  0  0  0  0  0  0  0  0  0  0
   -1.0323    0.7500    0.0000 C   0  0  0  0  0  0  0  0  0  0  0  0
   -1.0323   -0.7500    0.0000 C   0  0  0  0  0  0  0  0  0  0  0  0
   -2.4026   -0.1399    0.0000 C   0  0  0  0  0  0  0  0  0  0  0  0
   -2.1470   -1.7537    0.0000 C   0  0  0  0  0  0  0  0  0  0  0  0
   -1.8351   -3.2209    0.0000 C   0  0  0  0  0  0  0  0  0  0  0  0
   -0.4086   -3.6844    0.0000 C   0  0  0  0  0  0  0  0  0  0  0  0
   -1.5233   -4.6881    0.0000 C   0  0  0  0  0  0  0  0  0  0  0  0
    0.7062   -2.6807    0.0000 C   0  0  0  0  0  0  0  0  0  0  0  0
    2.1328   -3.1443    0.0000 C   0  0  0  0  0  0  0  0  0  0  0  0
    2.4446   -4.6115    0.0000 C   0  0  0  0  0  0  0  0  0  0  0  0
    1.3299   -5.6152    0.0000 C   0  0  0  0  0  0  0  0  0  0  0  0
    1.6418   -7.0824    0.0000 C   0  0  0  0  0  0  0  0  0  0  0  0
    2.7565   -6.0787    0.0000 C   0  0  0  0  0  0  0  0  0  0  0  0
    3.0684   -7.5459    0.0000 C   0  0  0  0  0  0  0  0  0  0  0  0
    3.3802   -9.0132    0.0000 C   0  0  0  0  0  0  0  0  0  0  0  0
    2.2655  -10.0169    0.0000 C   0  0  0  0  0  0  0  0  0  0  0  0
    2.5774  -11.4841    0.0000 O   0  0  0  0  0  0  0  0  0  0  0  0
    4.0040  -11.9476    0.0000 C   0  0  0  0  0  0  0  0  0  0  0  0
    5.1187  -10.9439    0.0000 O   0  0  0  0  0  0  0  0  0  0  0  0
    4.3158  -13.4148    0.0000 C   0  0  0  0  0  0  0  0  0  0  0  0
    5.7424  -13.8783    0.0000 C   0  0  0  0  0  0  0  0  0  0  0  0
    6.0543  -15.3456    0.0000 C   0  0  0  0  0  0  0  0  0  0  0  0
    4.9396  -16.3493    0.0000 C   0  0  0  0  0  0  0  0  0  0  0  0
    5.2514  -17.8165    0.0000 C   0  0  0  0  0  0  0  0  0  0  0  0
    6.6780  -18.2800    0.0000 C   0  0  0  0  0  0  0  0  0  0  0  0
    6.9899  -19.7472    0.0000 O   0  0  0  0  0  0  0  0  0  0  0  0
    5.8752  -20.7509    0.0000 C   0  0  0  0  0  0  0  0  0  0  0  0
    7.7927  -17.2763    0.0000 C   0  0  0  0  0  0  0  0  0  0  0  0
    9.2193  -17.7398    0.0000 O   0  0  0  0  0  0  0  0  0  0  0  0
    7.4809  -15.8091    0.0000 C   0  0  0  0  0  0  0  0  0  0  0  0
    0.8389   -9.5533    0.0000 C   0  0  0  0  0  0  0  0  0  0  0  0
   -0.6602   -9.6057    0.0000 C   0  0  0  0  0  0  0  0  0  0  0  0
    0.6302  -11.0387    0.0000 C   0  0  0  0  0  0  0  0  0  0  0  0
    0.5271   -8.0861    0.0000 C   0  0  0  0  0  0  0  0  0  0  0  0
   -0.8995   -7.6226    0.0000 C   0  0  0  0  0  0  0  0  0  0  0  0
   -1.2114   -6.1554    0.0000 C   0  0  0  0  0  0  0  0  0  0  0  0
   -0.0967   -5.1517    0.0000 C   0  0  0  0  0  0  0  0  0  0  0  0
    1.0180   -4.1480    0.0000 C   0  0  0  0  0  0  0  0  0  0  0  0
    0.3943   -1.2135    0.0000 C   0  0  0  0  0  0  0  0  0  0  0  0
  1  2  2  0
  2  3  1  0
  4  2  1  6
  4  5  1  0
  5  6  1  0
  6  7  1  0
  7  8  1  6
  7  9  1  0
  9 10  1  0
 10 11  1  0
 11 12  1  1
 11 13  1  0
 13 14  1  1
 14 15  1  0
 16 15  1  6
 16 17  1  0
 17 18  1  6
 17 19  1  0
 19 20  1  0
 20 21  1  0
 21 22  1  6
 22 23  1  0
 23 24  2  0
 23 25  1  0
 25 26  2  0
 26 27  1  0
 27 28  2  0
 28 29  1  0
 29 30  2  0
 30 31  1  0
 31 32  1  0
 30 33  1  0
 33 34  1  0
 33 35  2  0
 21 36  1  0
 36 37  1  0
 36 38  1  0
 36 39  1  0
 39 40  1  6
 40 41  1  0
 41 42  1  0
 42 43  1  6
 13 44  1  0
 44  4  1  6
 44  7  1  0
 42 11  1  0
 42 16  1  0
 39 17  1  0
 35 27  1  0
M  END
>  <id>  (128) 
SANC00518_minRM1.pdb

>  <SMILES>  (128) 
C=C(C)[C@H]1CC[C@]2(C)CC[C@]3(C)[C@H](CC[C@@H]4[C@@]5(C)CC[C@H](OC(=O)/C=C/c6ccc(OC)c(O)c6)C(C)(C)[C@@H]5CC[C@]43C)[C@@H]12

>  <warheads>  (128) 
ab_unsat_carbonyl:1

>  <n_warheads>  (128) 
1

>  <max_tier>  (128) 
1

>  <pains_flag>  (128) 


>  <MW>  (128) 
602.9

>  <cLogP>  (128) 
10.0

>  <HBD>  (128) 
1

>  <HBA>  (128) 
4

>  <TPSA>  (128) 
55.8

>  <ArRings>  (128) 
1

$$$$
SANC00519_minRM1.pdb
     RDKit          2D

 21 22  0  0  0  0  0  0  0  0999 V2000
    3.7500   -1.2990    0.0000 C   0  0  0  0  0  0  0  0  0  0  0  0
    3.0000    0.0000    0.0000 O   0  0  0  0  0  0  0  0  0  0  0  0
    1.5000    0.0000    0.0000 C   0  0  0  0  0  0  0  0  0  0  0  0
    0.7500   -1.2990    0.0000 C   0  0  0  0  0  0  0  0  0  0  0  0
    1.5000   -2.5981    0.0000 O   0  0  0  0  0  0  0  0  0  0  0  0
   -0.7500   -1.2990    0.0000 C   0  0  0  0  0  0  0  0  0  0  0  0
   -1.5000    0.0000    0.0000 C   0  0  0  0  0  0  0  0  0  0  0  0
   -0.7500    1.2990    0.0000 C   0  0  0  0  0  0  0  0  0  0  0  0
   -1.5000    2.5981    0.0000 C   0  0  0  0  0  0  0  0  0  0  0  0
   -3.0000    2.5981    0.0000 O   0  0  0  0  0  0  0  0  0  0  0  0
   -0.7500    3.8971    0.0000 C   0  0  0  0  0  0  0  0  0  0  0  0
   -1.5000    5.1962    0.0000 C   0  0  0  0  0  0  0  0  0  0  0  0
   -0.7500    6.4952    0.0000 C   0  0  0  0  0  0  0  0  0  0  0  0
    0.7500    6.4952    0.0000 C   0  0  0  0  0  0  0  0  0  0  0  0
    1.5000    7.7942    0.0000 C   0  0  0  0  0  0  0  0  0  0  0  0
    0.7500    9.0933    0.0000 C   0  0  0  0  0  0  0  0  0  0  0  0
   -0.7500    9.0933    0.0000 C   0  0  0  0  0  0  0  0  0  0  0  0
   -1.5000   10.3923    0.0000 O   0  0  0  0  0  0  0  0  0  0  0  0
   -1.5000    7.7942    0.0000 C   0  0  0  0  0  0  0  0  0  0  0  0
    0.7500    1.2990    0.0000 C   0  0  0  0  0  0  0  0  0  0  0  0
    1.5000    2.5981    0.0000 O   0  0  0  0  0  0  0  0  0  0  0  0
  1  2  1  0
  2  3  1  0
  3  4  2  0
  4  5  1  0
  4  6  1  0
  6  7  2  0
  7  8  1  0
  8  9  1  0
  9 10  2  0
  9 11  1  0
 11 12  2  0
 12 13  1  0
 13 14  2  0
 14 15  1  0
 15 16  2  0
 16 17  1  0
 17 18  1  0
 17 19  2  0
  8 20  2  0
 20 21  1  0
 20  3  1  0
 19 13  1  0
M  END
>  <id>  (129) 
SANC00519_minRM1.pdb

>  <SMILES>  (129) 
COc1c(O)ccc(C(=O)/C=C/c2cccc(O)c2)c1O

>  <warheads>  (129) 
ab_unsat_carbonyl:1

>  <n_warheads>  (129) 
1

>  <max_tier>  (129) 
1

>  <pains_flag>  (129) 


>  <MW>  (129) 
286.3

>  <cLogP>  (129) 
2.71

>  <HBD>  (129) 
3

>  <HBA>  (129) 
5

>  <TPSA>  (129) 
87.0

>  <ArRings>  (129) 
2

$$$$
SANC00521_minRM1.pdb
     RDKit          2D

 19 20  0  0  0  0  0  0  0  0999 V2000
    3.0000   -5.1962    0.0000 O   0  0  0  0  0  0  0  0  0  0  0  0
    1.5000   -5.1962    0.0000 C   0  0  0  0  0  0  0  0  0  0  0  0
    0.7500   -3.8971    0.0000 C   0  0  0  0  0  0  0  0  0  0  0  0
    1.5000   -2.5981    0.0000 C   0  0  0  0  0  0  0  0  0  0  0  0
    0.7500   -1.2990    0.0000 C   0  0  0  0  0  0  0  0  0  0  0  0
    1.5000    0.0000    0.0000 C   0  0  0  0  0  0  0  0  0  0  0  0
    0.7500    1.2990    0.0000 C   0  0  0  0  0  0  0  0  0  0  0  0
   -0.7500    1.2990    0.0000 C   0  0  0  0  0  0  0  0  0  0  0  0
   -1.5000    0.0000    0.0000 C   0  0  0  0  0  0  0  0  0  0  0  0
   -3.0000    0.0000    0.0000 O   0  0  0  0  0  0  0  0  0  0  0  0
   -0.7500   -1.2990    0.0000 C   0  0  0  0  0  0  0  0  0  0  0  0
    0.7500   -6.4952    0.0000 C   0  0  0  0  0  0  0  0  0  0  0  0
   -0.7500   -6.4952    0.0000 C   0  0  0  0  0  0  0  0  0  0  0  0
   -1.5000   -7.7942    0.0000 C   0  0  0  0  0  0  0  0  0  0  0  0
   -0.7500   -9.0933    0.0000 C   0  0  0  0  0  0  0  0  0  0  0  0
   -1.5000  -10.3923    0.0000 O   0  0  0  0  0  0  0  0  0  0  0  0
    0.7500   -9.0933    0.0000 C   0  0  0  0  0  0  0  0  0  0  0  0
    1.5000   -7.7942    0.0000 C   0  0  0  0  0  0  0  0  0  0  0  0
    3.0000   -7.7942    0.0000 O   0  0  0  0  0  0  0  0  0  0  0  0
  1  2  2  0
  2  3  1  0
  3  4  2  0
  4  5  1  0
  5  6  2  0
  6  7  1  0
  7  8  2  0
  8  9  1  0
  9 10  1  0
  9 11  2  0
  2 12  1  0
 12 13  2  0
 13 14  1  0
 14 15  2  0
 15 16  1  0
 15 17  1  0
 17 18  2  0
 18 19  1  0
 11  5  1  0
 18 12  1  0
M  END
>  <id>  (130) 
SANC00521_minRM1.pdb

>  <SMILES>  (130) 
O=C(/C=C/c1cccc(O)c1)c1ccc(O)cc1O

>  <warheads>  (130) 
ab_unsat_carbonyl:1

>  <n_warheads>  (130) 
1

>  <max_tier>  (130) 
1

>  <pains_flag>  (130) 


>  <MW>  (130) 
256.3

>  <cLogP>  (130) 
2.7

>  <HBD>  (130) 
3

>  <HBA>  (130) 
4

>  <TPSA>  (130) 
77.8

>  <ArRings>  (130) 
2

$$$$
SANC00522_minRM1.pdb
     RDKit          2D

 18 19  0  0  0  0  0  0  0  0999 V2000
    3.0000   -5.1962    0.0000 O   0  0  0  0  0  0  0  0  0  0  0  0
    1.5000   -5.1962    0.0000 C   0  0  0  0  0  0  0  0  0  0  0  0
    0.7500   -3.8971    0.0000 C   0  0  0  0  0  0  0  0  0  0  0  0
    1.5000   -2.5981    0.0000 C   0  0  0  0  0  0  0  0  0  0  0  0
    0.7500   -1.2990    0.0000 C   0  0  0  0  0  0  0  0  0  0  0  0
    1.5000    0.0000    0.0000 C   0  0  0  0  0  0  0  0  0  0  0  0
    0.7500    1.2990    0.0000 C   0  0  0  0  0  0  0  0  0  0  0  0
   -0.7500    1.2990    0.0000 C   0  0  0  0  0  0  0  0  0  0  0  0
   -1.5000    0.0000    0.0000 C   0  0  0  0  0  0  0  0  0  0  0  0
   -0.7500   -1.2990    0.0000 C   0  0  0  0  0  0  0  0  0  0  0  0
    0.7500   -6.4952    0.0000 C   0  0  0  0  0  0  0  0  0  0  0  0
   -0.7500   -6.4952    0.0000 C   0  0  0  0  0  0  0  0  0  0  0  0
   -1.5000   -7.7942    0.0000 C   0  0  0  0  0  0  0  0  0  0  0  0
   -0.7500   -9.0933    0.0000 C   0  0  0  0  0  0  0  0  0  0  0  0
   -1.5000  -10.3923    0.0000 O   0  0  0  0  0  0  0  0  0  0  0  0
    0.7500   -9.0933    0.0000 C   0  0  0  0  0  0  0  0  0  0  0  0
    1.5000   -7.7942    0.0000 C   0  0  0  0  0  0  0  0  0  0  0  0
    3.0000   -7.7942    0.0000 O   0  0  0  0  0  0  0  0  0  0  0  0
  1  2  2  0
  2  3  1  0
  3  4  2  0
  4  5  1  0
  5  6  2  0
  6  7  1  0
  7  8  2  0
  8  9  1  0
  9 10  2  0
  2 11  1  0
 11 12  2  0
 12 13  1  0
 13 14  2  0
 14 15  1  0
 14 16  1  0
 16 17  2  0
 17 18  1  0
 10  5  1  0
 17 11  1  0
M  END
>  <id>  (131) 
SANC00522_minRM1.pdb

>  <SMILES>  (131) 
O=C(/C=C/c1ccccc1)c1ccc(O)cc1O

>  <warheads>  (131) 
ab_unsat_carbonyl:1

>  <n_warheads>  (131) 
1

>  <max_tier>  (131) 
1

>  <pains_flag>  (131) 


>  <MW>  (131) 
240.3

>  <cLogP>  (131) 
2.99

>  <HBD>  (131) 
2

>  <HBA>  (131) 
3

>  <TPSA>  (131) 
57.5

>  <ArRings>  (131) 
2

$$$$
SANC00523_minRM1.pdb
     RDKit          2D

 23 25  0  0  0  0  0  0  0  0999 V2000
    3.7500   -3.8971    0.0000 C   0  0  0  0  0  0  0  0  0  0  0  0
    3.0000   -2.5981    0.0000 O   0  0  0  0  0  0  0  0  0  0  0  0
    1.5000   -2.5981    0.0000 C   0  0  0  0  0  0  0  0  0  0  0  0
    0.7500   -3.8971    0.0000 C   0  0  0  0  0  0  0  0  0  0  0  0
    1.5000   -5.1962    0.0000 O   0  0  0  0  0  0  0  0  0  0  0  0
   -0.7500   -3.8971    0.0000 C   0  0  0  0  0  0  0  0  0  0  0  0
   -1.5000   -2.5981    0.0000 C   0  0  0  0  0  0  0  0  0  0  0  0
   -3.0000   -2.5981    0.0000 O   0  0  0  0  0  0  0  0  0  0  0  0
   -0.7500   -1.2990    0.0000 C   0  0  0  0  0  0  0  0  0  0  0  0
    0.7500   -1.2990    0.0000 C   0  0  0  0  0  0  0  0  0  0  0  0
    1.5000    0.0000    0.0000 O   0  0  0  0  0  0  0  0  0  0  0  0
    0.7500    1.2990    0.0000 C   0  0  0  0  0  0  0  0  0  0  0  0
   -0.7500    1.2990    0.0000 C   0  0  0  0  0  0  0  0  0  0  0  0
   -1.5000    2.5981    0.0000 C   0  0  0  0  0  0  0  0  0  0  0  0
   -0.7500    3.8971    0.0000 C   0  0  0  0  0  0  0  0  0  0  0  0
    0.7500    3.8971    0.0000 C   0  0  0  0  0  0  0  0  0  0  0  0
    1.5000    5.1962    0.0000 C   0  0  0  0  0  0  0  0  0  0  0  0
    0.7500    6.4952    0.0000 C   0  0  0  0  0  0  0  0  0  0  0  0
    1.5000    7.7942    0.0000 O   0  0  0  0  0  0  0  0  0  0  0  0
   -0.7500    6.4952    0.0000 C   0  0  0  0  0  0  0  0  0  0  0  0
   -1.5000    5.1962    0.0000 C   0  0  0  0  0  0  0  0  0  0  0  0
   -1.5000    0.0000    0.0000 C   0  0  0  0  0  0  0  0  0  0  0  0
   -3.0000    0.0000    0.0000 O   0  0  0  0  0  0  0  0  0  0  0  0
  1  2  1  0
  2  3  1  0
  3  4  2  0
  4  5  1  0
  4  6  1  0
  6  7  2  0
  7  8  1  0
  7  9  1  0
  9 10  2  0
 10 11  1  0
 11 12  1  0
 12 13  1  0
 13 14  2  0
 14 15  1  0
 15 16  2  0
 16 17  1  0
 17 18  2  0
 18 19  1  0
 18 20  1  0
 20 21  2  0
 13 22  1  0
 22 23  2  0
 10  3  1  0
 21 15  1  0
 22  9  1  0
M  END
>  <id>  (132) 
SANC00523_minRM1.pdb

>  <SMILES>  (132) 
COc1c(O)cc(O)c2c1OC/C(=C\c1ccc(O)cc1)C2=O

>  <warheads>  (132) 
ab_unsat_carbonyl:1

>  <n_warheads>  (132) 
1

>  <max_tier>  (132) 
1

>  <pains_flag>  (132) 


>  <MW>  (132) 
314.3

>  <cLogP>  (132) 
2.47

>  <HBD>  (132) 
3

>  <HBA>  (132) 
6

>  <TPSA>  (132) 
96.2

>  <ArRings>  (132) 
2

$$$$
SANC00524_minRM1.pdb
     RDKit          2D

 60 67  0  0  0  0  0  0  0  0999 V2000
   -6.0000    0.0000    0.0000 C   0  0  0  0  0  0  0  0  0  0  0  0
   -5.2500    1.2990    0.0000 C   0  0  0  0  0  0  0  0  0  0  0  0
   -3.7500    1.2990    0.0000 C   0  0  0  0  0  0  0  0  0  0  0  0
   -3.0000    0.0000    0.0000 C   0  0  0  0  0  0  0  0  0  0  0  0
   -3.7500   -1.2990    0.0000 C   0  0  0  0  0  0  0  0  0  0  0  0
   -5.2500   -1.2990    0.0000 C   0  0  0  0  0  0  0  0  0  0  0  0
   -3.0000   -2.5981    0.0000 C   0  0  0  0  0  0  0  0  0  0  0  0
   -1.5000   -2.5981    0.0000 C   0  0  0  0  0  0  0  0  0  0  0  0
   -0.7500   -3.8971    0.0000 O   0  0  0  0  0  0  0  0  0  0  0  0
   -0.7500   -1.2990    0.0000 C   0  0  0  0  0  0  0  0  0  0  0  0
    0.7500   -1.2990    0.0000 C   0  0  0  0  0  0  0  0  0  0  0  0
    1.5000   -2.5981    0.0000 O   0  0  0  0  0  0  0  0  0  0  0  0
    3.0000   -2.5981    0.0000 C   0  0  0  0  0  0  0  0  0  0  0  0
    3.7500   -3.8971    0.0000 O   0  0  0  0  0  0  0  0  0  0  0  0
    5.2500   -3.8971    0.0000 C   0  0  0  0  0  0  0  0  0  0  0  0
    6.0000   -5.1962    0.0000 C   0  0  0  0  0  0  0  0  0  0  0  0
    5.2500   -6.4952    0.0000 O   0  0  0  0  0  0  0  0  0  0  0  0
    6.0000   -7.7942    0.0000 C   0  0  0  0  0  0  0  0  0  0  0  0
    5.2500   -9.0933    0.0000 O   0  0  0  0  0  0  0  0  0  0  0  0
    6.0000  -10.3923    0.0000 C   0  0  0  0  0  0  0  0  0  0  0  0
    7.5000  -10.3923    0.0000 C   0  0  0  0  0  0  0  0  0  0  0  0
    8.2500  -11.6913    0.0000 O   0  0  0  0  0  0  0  0  0  0  0  0
    8.2500   -9.0933    0.0000 C   0  0  0  0  0  0  0  0  0  0  0  0
    9.7500   -9.0933    0.0000 O   0  0  0  0  0  0  0  0  0  0  0  0
    7.5000   -7.7942    0.0000 C   0  0  0  0  0  0  0  0  0  0  0  0
    8.2500   -6.4952    0.0000 O   0  0  0  0  0  0  0  0  0  0  0  0
    6.0000   -2.5981    0.0000 C   0  0  0  0  0  0  0  0  0  0  0  0
    7.5000   -2.5981    0.0000 O   0  0  0  0  0  0  0  0  0  0  0  0
    5.2500   -1.2990    0.0000 C   0  0  0  0  0  0  0  0  0  0  0  0
    6.0000   -0.0000    0.0000 O   0  0  0  0  0  0  0  0  0  0  0  0
    3.7500   -1.2990    0.0000 C   0  0  0  0  0  0  0  0  0  0  0  0
    3.0000   -0.0000    0.0000 O   0  0  0  0  0  0  0  0  0  0  0  0
    1.5000    0.0000    0.0000 C   0  0  0  0  0  0  0  0  0  0  0  0
    0.7500    1.2990    0.0000 C   0  0  0  0  0  0  0  0  0  0  0  0
   -0.7500    1.2990    0.0000 C   0  0  0  0  0  0  0  0  0  0  0  0
   -1.5000    0.0000    0.0000 C   0  0  0  0  0  0  0  0  0  0  0  0
   -1.5000    2.5981    0.0000 O   0  0  0  0  0  0  0  0  0  0  0  0
   -3.0000    2.5981    0.0000 C   0  0  0  0  0  0  0  0  0  0  0  0
   -2.2500    3.8971    0.0000 O   0  0  0  0  0  0  0  0  0  0  0  0
   -3.7500    3.8971    0.0000 C   0  0  0  0  0  0  0  0  0  0  0  0
   -3.0000    5.1962    0.0000 C   0  0  0  0  0  0  0  0  0  0  0  0
   -1.5000    5.1962    0.0000 O   0  0  0  0  0  0  0  0  0  0  0  0
   -0.7500    6.4952    0.0000 C   0  0  0  0  0  0  0  0  0  0  0  0
    0.7500    6.4952    0.0000 O   0  0  0  0  0  0  0  0  0  0  0  0
    1.5000    7.7942    0.0000 C   0  0  0  0  0  0  0  0  0  0  0  0
    3.0000    7.7942    0.0000 C   0  0  0  0  0  0  0  0  0  0  0  0
    3.7500    6.4952    0.0000 O   0  0  0  0  0  0  0  0  0  0  0  0
    0.7500    9.0933    0.0000 C   0  0  0  0  0  0  0  0  0  0  0  0
    1.5000   10.3923    0.0000 O   0  0  0  0  0  0  0  0  0  0  0  0
   -0.7500    9.0933    0.0000 C   0  0  0  0  0  0  0  0  0  0  0  0
   -1.5000   10.3923    0.0000 O   0  0  0  0  0  0  0  0  0  0  0  0
   -1.5000    7.7942    0.0000 C   0  0  0  0  0  0  0  0  0  0  0  0
   -3.0000    7.7942    0.0000 O   0  0  0  0  0  0  0  0  0  0  0  0
   -3.7500    6.4952    0.0000 C   0  0  0  0  0  0  0  0  0  0  0  0
   -5.2500    6.4952    0.0000 C   0  0  0  0  0  0  0  0  0  0  0  0
   -6.0000    5.1962    0.0000 C   0  0  0  0  0  0  0  0  0  0  0  0
   -7.5000    5.1962    0.0000 O   0  0  0  0  0  0  0  0  0  0  0  0
   -5.2500    3.8971    0.0000 C   0  0  0  0  0  0  0  0  0  0  0  0
   -6.0000    2.5981    0.0000 C   0  0  0  0  0  0  0  0  0  0  0  0
   -7.5000    2.5981    0.0000 O   0  0  0  0  0  0  0  0  0  0  0  0
  1  2  1  0
  2  3  2  0
  3  4  1  0
  4  5  2  0
  5  6  1  0
  5  7  1  0
  7  8  2  0
  8  9  1  0
  8 10  1  0
 10 11  2  0
 11 12  1  0
 13 12  1  1
 13 14  1  0
 14 15  1  0
 15 16  1  1
 16 17  1  0
 18 17  1  1
 18 19  1  0
 19 20  1  0
 20 21  1  0
 21 22  1  6
 21 23  1  0
 23 24  1  1
 23 25  1  0
 25 26  1  6
 15 27  1  0
 27 28  1  6
 27 29  1  0
 29 30  1  1
 29 31  1  0
 31 32  1  6
 11 33  1  0
 33 34  2  0
 34 35  1  0
 35 36  2  0
 35 37  1  0
 37 38  1  0
 38 39  1  6
 38 40  1  0
 40 41  2  0
 41 42  1  0
 43 42  1  1
 43 44  1  0
 44 45  1  0
 45 46  1  1
 46 47  1  0
 45 48  1  0
 48 49  1  6
 48 50  1  0
 50 51  1  1
 50 52  1  0
 52 53  1  6
 41 54  1  0
 54 55  2  0
 55 56  1  0
 56 57  1  0
 56 58  2  0
 58 59  1  0
 59 60  2  0
 59  2  1  0
 38  3  1  0
 58 40  1  0
 36  4  1  0
 52 43  1  0
 36 10  1  0
 31 13  1  0
 25 18  1  0
M  END
>  <id>  (133) 
SANC00524_minRM1.pdb

>  <SMILES>  (133) 
CC1=C2c3c(C)cc(O)c4c(O[C@@H]5O[C@H](CO[C@@H]6OC[C@@H](O)[C@H](O)[C@H]6O)[C@@H](O)[C@H](O)[C@H]5O)ccc(c34)O[C@]2(O)c2c(O[C@@H]3O[C@H](CO)[C@@H](O)[C@H](O)[C@H]3O)ccc(O)c2C1=O

>  <warheads>  (133) 
ab_unsat_carbonyl:1

>  <n_warheads>  (133) 
1

>  <max_tier>  (133) 
1

>  <pains_flag>  (133) 


>  <MW>  (133) 
848.8

>  <cLogP>  (133) 
-3.41

>  <HBD>  (133) 
13

>  <HBA>  (133) 
21

>  <TPSA>  (133) 
344.7

>  <ArRings>  (133) 
3

$$$$
SANC00526_minRM1.pdb
     RDKit          2D

 69 77  0  0  0  0  0  0  0  0999 V2000
   -6.0000    0.0000    0.0000 C   0  0  0  0  0  0  0  0  0  0  0  0
   -5.2500    1.2990    0.0000 C   0  0  0  0  0  0  0  0  0  0  0  0
   -3.7500    1.2990    0.0000 C   0  0  0  0  0  0  0  0  0  0  0  0
   -3.0000    0.0000    0.0000 C   0  0  0  0  0  0  0  0  0  0  0  0
   -3.7500   -1.2990    0.0000 C   0  0  0  0  0  0  0  0  0  0  0  0
   -5.2500   -1.2990    0.0000 C   0  0  0  0  0  0  0  0  0  0  0  0
   -3.0000   -2.5981    0.0000 C   0  0  0  0  0  0  0  0  0  0  0  0
   -1.5000   -2.5981    0.0000 C   0  0  0  0  0  0  0  0  0  0  0  0
   -0.7500   -3.8971    0.0000 O   0  0  0  0  0  0  0  0  0  0  0  0
   -0.7500   -1.2990    0.0000 C   0  0  0  0  0  0  0  0  0  0  0  0
    0.7500   -1.2990    0.0000 C   0  0  0  0  0  0  0  0  0  0  0  0
    1.5000   -2.5981    0.0000 O   0  0  0  0  0  0  0  0  0  0  0  0
    3.0000   -2.5981    0.0000 C   0  0  0  0  0  0  0  0  0  0  0  0
    3.7500   -3.8971    0.0000 O   0  0  0  0  0  0  0  0  0  0  0  0
    5.2500   -3.8971    0.0000 C   0  0  0  0  0  0  0  0  0  0  0  0
    6.0000   -5.1962    0.0000 C   0  0  0  0  0  0  0  0  0  0  0  0
    5.2500   -6.4952    0.0000 O   0  0  0  0  0  0  0  0  0  0  0  0
    6.0000   -7.7942    0.0000 C   0  0  0  0  0  0  0  0  0  0  0  0
    5.2500   -9.0933    0.0000 O   0  0  0  0  0  0  0  0  0  0  0  0
    6.0000  -10.3923    0.0000 C   0  0  0  0  0  0  0  0  0  0  0  0
    7.5000  -10.3923    0.0000 C   0  0  0  0  0  0  0  0  0  0  0  0
    8.2500  -11.6913    0.0000 O   0  0  0  0  0  0  0  0  0  0  0  0
    8.2500   -9.0933    0.0000 C   0  0  0  0  0  0  0  0  0  0  0  0
    9.7500   -9.0933    0.0000 O   0  0  0  0  0  0  0  0  0  0  0  0
    7.5000   -7.7942    0.0000 C   0  0  0  0  0  0  0  0  0  0  0  0
    8.2500   -6.4952    0.0000 O   0  0  0  0  0  0  0  0  0  0  0  0
    6.0000   -2.5981    0.0000 C   0  0  0  0  0  0  0  0  0  0  0  0
    7.5000   -2.5981    0.0000 O   0  0  0  0  0  0  0  0  0  0  0  0
    5.2500   -1.2990    0.0000 C   0  0  0  0  0  0  0  0  0  0  0  0
    6.0000   -0.0000    0.0000 O   0  0  0  0  0  0  0  0  0  0  0  0
    3.7500   -1.2990    0.0000 C   0  0  0  0  0  0  0  0  0  0  0  0
    3.0000   -0.0000    0.0000 O   0  0  0  0  0  0  0  0  0  0  0  0
    1.5000    0.0000    0.0000 C   0  0  0  0  0  0  0  0  0  0  0  0
    0.7500    1.2990    0.0000 C   0  0  0  0  0  0  0  0  0  0  0  0
   -0.7500    1.2990    0.0000 C   0  0  0  0  0  0  0  0  0  0  0  0
   -1.5000    0.0000    0.0000 C   0  0  0  0  0  0  0  0  0  0  0  0
   -1.5000    2.5981    0.0000 O   0  0  0  0  0  0  0  0  0  0  0  0
   -3.0000    2.5981    0.0000 C   0  0  0  0  0  0  0  0  0  0  0  0
   -2.2500    3.8971    0.0000 O   0  0  0  0  0  0  0  0  0  0  0  0
   -3.7500    3.8971    0.0000 C   0  0  0  0  0  0  0  0  0  0  0  0
   -3.0000    5.1962    0.0000 C   0  0  0  0  0  0  0  0  0  0  0  0
   -1.5000    5.1962    0.0000 O   0  0  0  0  0  0  0  0  0  0  0  0
   -0.7500    6.4952    0.0000 C   0  0  0  0  0  0  0  0  0  0  0  0
    0.7500    6.4952    0.0000 O   0  0  0  0  0  0  0  0  0  0  0  0
    1.5000    7.7942    0.0000 C   0  0  0  0  0  0  0  0  0  0  0  0
    3.0000    7.7942    0.0000 C   0  0  0  0  0  0  0  0  0  0  0  0
    3.7500    6.4952    0.0000 O   0  0  0  0  0  0  0  0  0  0  0  0
    5.2500    6.4952    0.0000 C   0  0  0  0  0  0  0  0  0  0  0  0
    6.0000    5.1962    0.0000 O   0  0  0  0  0  0  0  0  0  0  0  0
    7.5000    5.1962    0.0000 C   0  0  0  0  0  0  0  0  0  0  0  0
    8.2500    6.4952    0.0000 C   0  0  0  0  0  0  0  0  0  0  0  0
    9.7500    6.4952    0.0000 O   0  0  0  0  0  0  0  0  0  0  0  0
    7.5000    7.7942    0.0000 C   0  0  0  0  0  0  0  0  0  0  0  0
    8.2500    9.0933    0.0000 O   0  0  0  0  0  0  0  0  0  0  0  0
    6.0000    7.7942    0.0000 C   0  0  0  0  0  0  0  0  0  0  0  0
    5.2500    9.0933    0.0000 O   0  0  0  0  0  0  0  0  0  0  0  0
    0.7500    9.0933    0.0000 C   0  0  0  0  0  0  0  0  0  0  0  0
    1.5000   10.3923    0.0000 O   0  0  0  0  0  0  0  0  0  0  0  0
   -0.7500    9.0933    0.0000 C   0  0  0  0  0  0  0  0  0  0  0  0
   -1.5000   10.3923    0.0000 O   0  0  0  0  0  0  0  0  0  0  0  0
   -1.5000    7.7942    0.0000 C   0  0  0  0  0  0  0  0  0  0  0  0
   -3.0000    7.7942    0.0000 O   0  0  0  0  0  0  0  0  0  0  0  0
   -3.7500    6.4952    0.0000 C   0  0  0  0  0  0  0  0  0  0  0  0
   -5.2500    6.4952    0.0000 C   0  0  0  0  0  0  0  0  0  0  0  0
   -6.0000    5.1962    0.0000 C   0  0  0  0  0  0  0  0  0  0  0  0
   -7.5000    5.1962    0.0000 O   0  0  0  0  0  0  0  0  0  0  0  0
   -5.2500    3.8971    0.0000 C   0  0  0  0  0  0  0  0  0  0  0  0
   -6.0000    2.5981    0.0000 C   0  0  0  0  0  0  0  0  0  0  0  0
   -7.5000    2.5981    0.0000 O   0  0  0  0  0  0  0  0  0  0  0  0
  1  2  1  0
  2  3  2  0
  3  4  1  0
  4  5  2  0
  5  6  1  0
  5  7  1  0
  7  8  2  0
  8  9  1  0
  8 10  1  0
 10 11  2  0
 11 12  1  0
 13 12  1  1
 13 14  1  0
 14 15  1  0
 15 16  1  1
 16 17  1  0
 18 17  1  1
 18 19  1  0
 19 20  1  0
 20 21  1  0
 21 22  1  6
 21 23  1  0
 23 24  1  1
 23 25  1  0
 25 26  1  6
 15 27  1  0
 27 28  1  6
 27 29  1  0
 29 30  1  1
 29 31  1  0
 31 32  1  6
 11 33  1  0
 33 34  2  0
 34 35  1  0
 35 36  2  0
 35 37  1  0
 37 38  1  0
 38 39  1  6
 38 40  1  0
 40 41  2  0
 41 42  1  0
 43 42  1  1
 43 44  1  0
 44 45  1  0
 45 46  1  1
 46 47  1  0
 48 47  1  6
 48 49  1  0
 49 50  1  0
 50 51  1  0
 51 52  1  6
 51 53  1  0
 53 54  1  1
 53 55  1  0
 55 56  1  6
 45 57  1  0
 57 58  1  6
 57 59  1  0
 59 60  1  1
 59 61  1  0
 61 62  1  6
 41 63  1  0
 63 64  2  0
 64 65  1  0
 65 66  1  0
 65 67  2  0
 67 68  1  0
 68 69  2  0
 68  2  1  0
 38  3  1  0
 67 40  1  0
 36  4  1  0
 61 43  1  0
 36 10  1  0
 55 48  1  0
 31 13  1  0
 25 18  1  0
M  END
>  <id>  (134) 
SANC00526_minRM1.pdb

>  <SMILES>  (134) 
CC1=C2c3c(C)cc(O)c4c(O[C@@H]5O[C@H](CO[C@@H]6OC[C@@H](O)[C@H](O)[C@H]6O)[C@@H](O)[C@H](O)[C@H]5O)ccc(c34)O[C@]2(O)c2c(O[C@@H]3O[C@H](CO[C@H]4OC[C@@H](O)[C@H](O)[C@H]4O)[C@@H](O)[C@H](O)[C@H]3O)ccc(O)c2C1=O

>  <warheads>  (134) 
ab_unsat_carbonyl:1

>  <n_warheads>  (134) 
1

>  <max_tier>  (134) 
1

>  <pains_flag>  (134) 


>  <MW>  (134) 
980.9

>  <cLogP>  (134) 
-4.95

>  <HBD>  (134) 
15

>  <HBA>  (134) 
25

>  <TPSA>  (134) 
403.6

>  <ArRings>  (134) 
3

$$$$
SANC00529_minRM1.pdb
     RDKit          2D

 24 26  0  0  0  0  0  0  0  0999 V2000
    3.7500   -3.8971    0.0000 C   0  0  0  0  0  0  0  0  0  0  0  0
    3.0000   -2.5981    0.0000 O   0  0  0  0  0  0  0  0  0  0  0  0
    1.5000   -2.5981    0.0000 C   0  0  0  0  0  0  0  0  0  0  0  0
    0.7500   -3.8971    0.0000 C   0  0  0  0  0  0  0  0  0  0  0  0
    1.5000   -5.1962    0.0000 O   0  0  0  0  0  0  0  0  0  0  0  0
   -0.7500   -3.8971    0.0000 C   0  0  0  0  0  0  0  0  0  0  0  0
   -1.5000   -5.1962    0.0000 O   0  0  0  0  0  0  0  0  0  0  0  0
   -1.5000   -2.5981    0.0000 C   0  0  0  0  0  0  0  0  0  0  0  0
   -3.0000   -2.5981    0.0000 O   0  0  0  0  0  0  0  0  0  0  0  0
   -0.7500   -1.2990    0.0000 C   0  0  0  0  0  0  0  0  0  0  0  0
    0.7500   -1.2990    0.0000 C   0  0  0  0  0  0  0  0  0  0  0  0
    1.5000    0.0000    0.0000 O   0  0  0  0  0  0  0  0  0  0  0  0
    0.7500    1.2990    0.0000 C   0  0  0  0  0  0  0  0  0  0  0  0
   -0.7500    1.2990    0.0000 C   0  0  0  0  0  0  0  0  0  0  0  0
   -1.5000    2.5981    0.0000 C   0  0  0  0  0  0  0  0  0  0  0  0
   -3.0000    2.5981    0.0000 C   0  0  0  0  0  0  0  0  0  0  0  0
   -3.7500    3.8971    0.0000 C   0  0  0  0  0  0  0  0  0  0  0  0
   -5.2500    3.8971    0.0000 C   0  0  0  0  0  0  0  0  0  0  0  0
   -6.0000    2.5981    0.0000 C   0  0  0  0  0  0  0  0  0  0  0  0
   -7.5000    2.5981    0.0000 O   0  0  0  0  0  0  0  0  0  0  0  0
   -5.2500    1.2990    0.0000 C   0  0  0  0  0  0  0  0  0  0  0  0
   -3.7500    1.2990    0.0000 C   0  0  0  0  0  0  0  0  0  0  0  0
   -1.5000    0.0000    0.0000 C   0  0  0  0  0  0  0  0  0  0  0  0
   -3.0000    0.0000    0.0000 O   0  0  0  0  0  0  0  0  0  0  0  0
  1  2  1  0
  2  3  1  0
  3  4  2  0
  4  5  1  0
  4  6  1  0
  6  7  1  0
  6  8  2  0
  8  9  1  0
  8 10  1  0
 10 11  2  0
 11 12  1  0
 12 13  1  0
 13 14  1  0
 14 15  2  0
 15 16  1  0
 16 17  2  0
 17 18  1  0
 18 19  2  0
 19 20  1  0
 19 21  1  0
 21 22  2  0
 14 23  1  0
 23 24  2  0
 11  3  1  0
 22 16  1  0
 23 10  1  0
M  END
>  <id>  (135) 
SANC00529_minRM1.pdb

>  <SMILES>  (135) 
COc1c(O)c(O)c(O)c2c1OC/C(=C/c1ccc(O)cc1)C2=O

>  <warheads>  (135) 
ab_unsat_carbonyl:1

>  <n_warheads>  (135) 
1

>  <max_tier>  (135) 
1

>  <pains_flag>  (135) 
catechol_A(92)

>  <MW>  (135) 
330.3

>  <cLogP>  (135) 
2.18

>  <HBD>  (135) 
4

>  <HBA>  (135) 
7

>  <TPSA>  (135) 
116.5

>  <ArRings>  (135) 
2

$$$$
SANC00530_minRM1.pdb
     RDKit          2D

 32 33  0  0  0  0  0  0  0  0999 V2000
    4.0586   -0.4512    0.0000 C   0  0  0  0  0  0  0  0  0  0  0  0
    2.6491   -0.9642    0.0000 O   0  0  0  0  0  0  0  0  0  0  0  0
    1.5000    0.0000    0.0000 C   0  0  0  0  0  0  0  0  0  0  0  0
    2.6491    0.9642    0.0000 C   0  0  0  0  0  0  0  0  0  0  0  0
    4.0586    0.4512    0.0000 C   0  0  0  0  0  0  0  0  0  0  0  0
    5.2077    1.4153    0.0000 C   0  0  0  0  0  0  0  0  0  0  0  0
    6.6172    0.9023    0.0000 C   0  0  0  0  0  0  0  0  0  0  0  0
    4.9472    2.8925    0.0000 C   0  0  0  0  0  0  0  0  0  0  0  0
    0.7500   -1.2990    0.0000 C   0  0  0  0  0  0  0  0  0  0  0  0
    1.5000   -2.5981    0.0000 O   0  0  0  0  0  0  0  0  0  0  0  0
   -0.7500   -1.2990    0.0000 C   0  0  0  0  0  0  0  0  0  0  0  0
   -2.1595   -1.8121    0.0000 O   0  0  0  0  0  0  0  0  0  0  0  0
   -0.4895   -2.7762    0.0000 C   0  0  0  0  0  0  0  0  0  0  0  0
   -1.6386   -3.7404    0.0000 O   0  0  0  0  0  0  0  0  0  0  0  0
    0.9200   -3.2893    0.0000 C   0  0  0  0  0  0  0  0  0  0  0  0
    1.1805   -4.7665    0.0000 C   0  0  0  0  0  0  0  0  0  0  0  0
    2.5900   -5.2795    0.0000 C   0  0  0  0  0  0  0  0  0  0  0  0
    3.7391   -4.3153    0.0000 C   0  0  0  0  0  0  0  0  0  0  0  0
    5.1486   -4.8284    0.0000 C   0  0  0  0  0  0  0  0  0  0  0  0
    5.4091   -6.3056    0.0000 C   0  0  0  0  0  0  0  0  0  0  0  0
    4.2600   -7.2698    0.0000 C   0  0  0  0  0  0  0  0  0  0  0  0
    2.8505   -6.7567    0.0000 C   0  0  0  0  0  0  0  0  0  0  0  0
   -1.5000    0.0000    0.0000 C   0  0  0  0  0  0  0  0  0  0  0  0
   -3.0000    0.0000    0.0000 O   0  0  0  0  0  0  0  0  0  0  0  0
   -0.7500    1.2990    0.0000 C   0  0  0  0  0  0  0  0  0  0  0  0
   -1.5000    2.5981    0.0000 C   0  0  0  0  0  0  0  0  0  0  0  0
   -0.7500    3.8971    0.0000 C   0  0  0  0  0  0  0  0  0  0  0  0
   -1.5000    5.1962    0.0000 C   0  0  0  0  0  0  0  0  0  0  0  0
   -0.7500    6.4952    0.0000 C   0  0  0  0  0  0  0  0  0  0  0  0
   -3.0000    5.1962    0.0000 C   0  0  0  0  0  0  0  0  0  0  0  0
    0.7500    1.2990    0.0000 C   0  0  0  0  0  0  0  0  0  0  0  0
    1.5000    2.5981    0.0000 O   0  0  0  0  0  0  0  0  0  0  0  0
  1  2  1  0
  2  3  1  0
  3  4  1  1
  4  5  1  0
  5  6  2  0
  6  7  1  0
  6  8  1  0
  3  9  1  0
  9 10  2  0
  9 11  1  0
 11 12  1  6
 11 13  1  0
 13 14  2  0
 13 15  1  0
 15 16  2  0
 16 17  1  0
 17 18  2  0
 18 19  1  0
 19 20  2  0
 20 21  1  0
 21 22  2  0
 11 23  1  0
 23 24  2  0
 23 25  1  0
 25 26  1  0
 26 27  1  0
 27 28  2  0
 28 29  1  0
 28 30  1  0
 25 31  2  0
 31 32  1  0
 31  3  1  0
 22 17  1  0
M  END
>  <id>  (136) 
SANC00530_minRM1.pdb

>  <SMILES>  (136) 
CO[C@]1(CC=C(C)C)C(=O)[C@@](O)(C(=O)/C=C/c2ccccc2)C(=O)C(CC=C(C)C)=C1O

>  <warheads>  (136) 
ab_unsat_carbonyl:2

>  <n_warheads>  (136) 
2

>  <max_tier>  (136) 
1

>  <pains_flag>  (136) 


>  <MW>  (136) 
438.5

>  <cLogP>  (136) 
4.06

>  <HBD>  (136) 
2

>  <HBA>  (136) 
6

>  <TPSA>  (136) 
100.9

>  <ArRings>  (136) 
1

$$$$
SANC00536_minRM1.pdb
     RDKit          2D

 24 25  0  0  0  0  0  0  0  0999 V2000
    9.3923    0.4430    0.0000 C   0  0  0  0  0  0  0  0  0  0  0  0
    8.0408    1.0938    0.0000 O   0  0  0  0  0  0  0  0  0  0  0  0
    6.8015    0.2489    0.0000 C   0  0  0  0  0  0  0  0  0  0  0  0
    8.0408   -0.5961    0.0000 C   0  0  0  0  0  0  0  0  0  0  0  0
    6.4677    1.7113    0.0000 C   0  0  0  0  0  0  0  0  0  0  0  0
    5.1162    2.3621    0.0000 C   0  0  0  0  0  0  0  0  0  0  0  0
    4.1810    3.5348    0.0000 C   0  0  0  0  0  0  0  0  0  0  0  0
    5.1162    4.7076    0.0000 C   0  0  0  0  0  0  0  0  0  0  0  0
    4.5682    6.1039    0.0000 C   0  0  0  0  0  0  0  0  0  0  0  0
    6.5995    4.4840    0.0000 C   0  0  0  0  0  0  0  0  0  0  0  0
    2.6810    3.5348    0.0000 C   0  0  0  0  0  0  0  0  0  0  0  0
    1.3295    2.8840    0.0000 C   0  0  0  0  0  0  0  0  0  0  0  0
    0.3943    1.2135    0.0000 C   0  0  0  0  0  0  0  0  0  0  0  0
    1.2760    0.0000    0.0000 C   0  0  0  0  0  0  0  0  0  0  0  0
    0.3943   -1.2135    0.0000 C   0  0  0  0  0  0  0  0  0  0  0  0
    1.3295   -2.3863    0.0000 C   0  0  0  0  0  0  0  0  0  0  0  0
    2.6810   -3.0371    0.0000 C   0  0  0  0  0  0  0  0  0  0  0  0
    2.3472   -4.4995    0.0000 C   0  0  0  0  0  0  0  0  0  0  0  0
    4.0324   -2.3863    0.0000 C   0  0  0  0  0  0  0  0  0  0  0  0
    5.5324   -2.3863    0.0000 C   0  0  0  0  0  0  0  0  0  0  0  0
    6.4677   -1.2135    0.0000 C   0  0  0  0  0  0  0  0  0  0  0  0
   -1.0323   -0.7500    0.0000 O   0  0  0  0  0  0  0  0  0  0  0  0
   -1.0323    0.7500    0.0000 C   0  0  0  0  0  0  0  0  0  0  0  0
   -2.2458    1.6317    0.0000 O   0  0  0  0  0  0  0  0  0  0  0  0
  1  2  1  0
  2  3  1  0
  3  4  1  1
  3  5  1  0
  5  6  2  0
  6  7  1  0
  7  8  1  6
  8  9  1  0
  8 10  1  0
  7 11  1  0
 11 12  1  0
 12 13  1  0
 13 14  2  0
 14 15  1  0
 15 16  1  6
 16 17  1  0
 17 18  1  0
 17 19  2  0
 19 20  1  0
 20 21  1  0
 15 22  1  0
 22 23  1  0
 23 24  2  0
 21  3  1  0
 23 13  1  0
M  END
>  <id>  (137) 
SANC00536_minRM1.pdb

>  <SMILES>  (137) 
CO[C@@]1(C)/C=C/[C@@H](C(C)C)CCC2=C[C@H](C/C(C)=C/CC1)OC2=O

>  <warheads>  (137) 
ab_unsat_carbonyl:1

>  <n_warheads>  (137) 
1

>  <max_tier>  (137) 
1

>  <pains_flag>  (137) 


>  <MW>  (137) 
332.5

>  <cLogP>  (137) 
4.98

>  <HBD>  (137) 
0

>  <HBA>  (137) 
3

>  <TPSA>  (137) 
35.5

>  <ArRings>  (137) 
0

$$$$
SANC00537_minRM1.pdb
     RDKit          2D

 25 26  0  0  0  0  0  0  0  0999 V2000
    9.3923    0.4430    0.0000 C   0  0  0  0  0  0  0  0  0  0  0  0
    8.0408    1.0938    0.0000 O   0  0  0  0  0  0  0  0  0  0  0  0
    6.8015    0.2489    0.0000 C   0  0  0  0  0  0  0  0  0  0  0  0
    8.0408   -0.5961    0.0000 C   0  0  0  0  0  0  0  0  0  0  0  0
    6.4677    1.7113    0.0000 C   0  0  0  0  0  0  0  0  0  0  0  0
    5.1162    2.3621    0.0000 C   0  0  0  0  0  0  0  0  0  0  0  0
    4.1810    3.5348    0.0000 C   0  0  0  0  0  0  0  0  0  0  0  0
    4.2931    5.0306    0.0000 O   0  0  0  0  0  0  0  0  0  0  0  0
    5.6143    3.9770    0.0000 C   0  0  0  0  0  0  0  0  0  0  0  0
    5.9481    5.4394    0.0000 C   0  0  0  0  0  0  0  0  0  0  0  0
    6.7139    2.9567    0.0000 C   0  0  0  0  0  0  0  0  0  0  0  0
    2.6810    3.5348    0.0000 C   0  0  0  0  0  0  0  0  0  0  0  0
    1.3295    2.8840    0.0000 C   0  0  0  0  0  0  0  0  0  0  0  0
    0.3943    1.2135    0.0000 C   0  0  0  0  0  0  0  0  0  0  0  0
    1.2760    0.0000    0.0000 C   0  0  0  0  0  0  0  0  0  0  0  0
    0.3943   -1.2135    0.0000 C   0  0  0  0  0  0  0  0  0  0  0  0
    1.3295   -2.3863    0.0000 C   0  0  0  0  0  0  0  0  0  0  0  0
    2.6810   -3.0371    0.0000 C   0  0  0  0  0  0  0  0  0  0  0  0
    2.3472   -4.4995    0.0000 C   0  0  0  0  0  0  0  0  0  0  0  0
    4.0324   -2.3863    0.0000 C   0  0  0  0  0  0  0  0  0  0  0  0
    5.5324   -2.3863    0.0000 C   0  0  0  0  0  0  0  0  0  0  0  0
    6.4677   -1.2135    0.0000 C   0  0  0  0  0  0  0  0  0  0  0  0
   -1.0323   -0.7500    0.0000 O   0  0  0  0  0  0  0  0  0  0  0  0
   -1.0323    0.7500    0.0000 C   0  0  0  0  0  0  0  0  0  0  0  0
   -2.2458    1.6317    0.0000 O   0  0  0  0  0  0  0  0  0  0  0  0
  1  2  1  0
  2  3  1  0
  3  4  1  1
  3  5  1  0
  5  6  2  0
  6  7  1  0
  7  8  1  1
  7  9  1  0
  9 10  1  0
  9 11  1  0
  7 12  1  0
 12 13  1  0
 13 14  1  0
 14 15  2  0
 15 16  1  0
 16 17  1  6
 17 18  1  0
 18 19  1  0
 18 20  2  0
 20 21  1  0
 21 22  1  0
 16 23  1  0
 23 24  1  0
 24 25  2  0
 22  3  1  0
 24 14  1  0
M  END
>  <id>  (138) 
SANC00537_minRM1.pdb

>  <SMILES>  (138) 
CO[C@@]1(C)/C=C/[C@@](O)(C(C)C)CCC2=C[C@H](C/C(C)=C/CC1)OC2=O

>  <warheads>  (138) 
ab_unsat_carbonyl:1

>  <n_warheads>  (138) 
1

>  <max_tier>  (138) 
1

>  <pains_flag>  (138) 


>  <MW>  (138) 
348.5

>  <cLogP>  (138) 
4.1

>  <HBD>  (138) 
1

>  <HBA>  (138) 
4

>  <TPSA>  (138) 
55.8

>  <ArRings>  (138) 
0

$$$$
SANC00538_minRM1.pdb
     RDKit          2D

 24 25  0  0  0  0  0  0  0  0999 V2000
    2.3472   -4.4995    0.0000 C   0  0  0  0  0  0  0  0  0  0  0  0
    2.6810   -3.0371    0.0000 C   0  0  0  0  0  0  0  0  0  0  0  0
    4.0324   -2.3863    0.0000 C   0  0  0  0  0  0  0  0  0  0  0  0
    5.5324   -2.3863    0.0000 C   0  0  0  0  0  0  0  0  0  0  0  0
    6.4677   -1.2135    0.0000 C   0  0  0  0  0  0  0  0  0  0  0  0
    6.8015    0.2489    0.0000 C   0  0  0  0  0  0  0  0  0  0  0  0
    8.0408   -0.5961    0.0000 C   0  0  0  0  0  0  0  0  0  0  0  0
    8.0408    1.0938    0.0000 O   0  0  0  0  0  0  0  0  0  0  0  0
    6.4677    1.7113    0.0000 C   0  0  0  0  0  0  0  0  0  0  0  0
    5.1162    2.3621    0.0000 C   0  0  0  0  0  0  0  0  0  0  0  0
    4.1810    3.5348    0.0000 C   0  0  0  0  0  0  0  0  0  0  0  0
    4.2931    5.0306    0.0000 O   0  0  0  0  0  0  0  0  0  0  0  0
    5.6143    3.9770    0.0000 C   0  0  0  0  0  0  0  0  0  0  0  0
    5.9481    5.4394    0.0000 C   0  0  0  0  0  0  0  0  0  0  0  0
    6.7139    2.9567    0.0000 C   0  0  0  0  0  0  0  0  0  0  0  0
    2.6810    3.5348    0.0000 C   0  0  0  0  0  0  0  0  0  0  0  0
    1.3295    2.8840    0.0000 C   0  0  0  0  0  0  0  0  0  0  0  0
    0.3943    1.2135    0.0000 C   0  0  0  0  0  0  0  0  0  0  0  0
    1.2760    0.0000    0.0000 C   0  0  0  0  0  0  0  0  0  0  0  0
    0.3943   -1.2135    0.0000 C   0  0  0  0  0  0  0  0  0  0  0  0
    1.3295   -2.3863    0.0000 C   0  0  0  0  0  0  0  0  0  0  0  0
   -1.0323   -0.7500    0.0000 O   0  0  0  0  0  0  0  0  0  0  0  0
   -1.0323    0.7500    0.0000 C   0  0  0  0  0  0  0  0  0  0  0  0
   -2.2458    1.6317    0.0000 O   0  0  0  0  0  0  0  0  0  0  0  0
  1  2  1  0
  2  3  2  0
  3  4  1  0
  4  5  1  0
  5  6  1  0
  6  7  1  1
  6  8  1  0
  6  9  1  0
  9 10  2  0
 10 11  1  0
 11 12  1  1
 11 13  1  0
 13 14  1  0
 13 15  1  0
 11 16  1  0
 16 17  1  0
 17 18  1  0
 18 19  2  0
 19 20  1  0
 20 21  1  6
 20 22  1  0
 22 23  1  0
 23 24  2  0
 21  2  1  0
 23 18  1  0
M  END
>  <id>  (139) 
SANC00538_minRM1.pdb

>  <SMILES>  (139) 
C/C1=C\CC[C@@](C)(O)/C=C/[C@@](O)(C(C)C)CCC2=C[C@H](C1)OC2=O

>  <warheads>  (139) 
ab_unsat_carbonyl:1

>  <n_warheads>  (139) 
1

>  <max_tier>  (139) 
1

>  <pains_flag>  (139) 


>  <MW>  (139) 
334.5

>  <cLogP>  (139) 
3.44

>  <HBD>  (139) 
2

>  <HBA>  (139) 
4

>  <TPSA>  (139) 
66.8

>  <ArRings>  (139) 
0

$$$$
SANC00539_minRM1.pdb
     RDKit          2D

 22 23  0  0  0  0  0  0  0  0999 V2000
    5.9481   -4.9416    0.0000 C   0  0  0  0  0  0  0  0  0  0  0  0
    4.5148   -4.4995    0.0000 C   0  0  0  0  0  0  0  0  0  0  0  0
    3.4152   -5.5197    0.0000 C   0  0  0  0  0  0  0  0  0  0  0  0
    4.1810   -3.0371    0.0000 C   0  0  0  0  0  0  0  0  0  0  0  0
    5.1162   -1.8644    0.0000 C   0  0  0  0  0  0  0  0  0  0  0  0
    6.4677   -1.2135    0.0000 C   0  0  0  0  0  0  0  0  0  0  0  0
    6.8015    0.2489    0.0000 C   0  0  0  0  0  0  0  0  0  0  0  0
    8.3015    0.2489    0.0000 C   0  0  0  0  0  0  0  0  0  0  0  0
    6.4677    1.7113    0.0000 C   0  0  0  0  0  0  0  0  0  0  0  0
    5.5324    2.8840    0.0000 C   0  0  0  0  0  0  0  0  0  0  0  0
    4.1810    3.5348    0.0000 C   0  0  0  0  0  0  0  0  0  0  0  0
    2.8295    2.8840    0.0000 C   0  0  0  0  0  0  0  0  0  0  0  0
    3.1633    1.4216    0.0000 C   0  0  0  0  0  0  0  0  0  0  0  0
    1.3295    2.8840    0.0000 C   0  0  0  0  0  0  0  0  0  0  0  0
    0.3943    1.2135    0.0000 C   0  0  0  0  0  0  0  0  0  0  0  0
    1.2760    0.0000    0.0000 C   0  0  0  0  0  0  0  0  0  0  0  0
    0.3943   -1.2135    0.0000 C   0  0  0  0  0  0  0  0  0  0  0  0
    1.3295   -2.3863    0.0000 C   0  0  0  0  0  0  0  0  0  0  0  0
    2.6810   -3.0371    0.0000 C   0  0  0  0  0  0  0  0  0  0  0  0
   -1.0323   -0.7500    0.0000 C   0  0  0  0  0  0  0  0  0  0  0  0
   -2.2458   -1.6317    0.0000 O   0  0  0  0  0  0  0  0  0  0  0  0
   -1.0323    0.7500    0.0000 O   0  0  0  0  0  0  0  0  0  0  0  0
  1  2  2  0
  2  3  1  0
  2  4  1  0
  4  5  2  0
  5  6  1  0
  6  7  2  0
  7  8  1  0
  7  9  1  0
  9 10  1  0
 10 11  1  0
 11 12  2  0
 12 13  1  0
 12 14  1  0
 15 14  1  1
 15 16  1  0
 16 17  2  0
 17 18  1  0
 18 19  1  0
 17 20  1  0
 20 21  2  0
 20 22  1  0
 19  4  1  0
 22 15  1  0
M  END
>  <id>  (140) 
SANC00539_minRM1.pdb

>  <SMILES>  (140) 
C=C(C)/C1=C\C=C(\C)CC/C=C(\C)C[C@H]2C=C(CC1)C(=O)O2

>  <warheads>  (140) 
ab_unsat_carbonyl:1

>  <n_warheads>  (140) 
1

>  <max_tier>  (140) 
1

>  <pains_flag>  (140) 


>  <MW>  (140) 
298.4

>  <cLogP>  (140) 
5.2

>  <HBD>  (140) 
0

>  <HBA>  (140) 
2

>  <TPSA>  (140) 
26.3

>  <ArRings>  (140) 
0

$$$$
SANC00541_minRM1.pdb
     RDKit          2D

 24 25  0  0  0  0  0  0  0  0999 V2000
    7.9312    3.8579    0.0000 C   0  0  0  0  0  0  0  0  0  0  0  0
    7.8191    2.3621    0.0000 O   0  0  0  0  0  0  0  0  0  0  0  0
    6.4677    1.7113    0.0000 C   0  0  0  0  0  0  0  0  0  0  0  0
    5.5324    2.8840    0.0000 C   0  0  0  0  0  0  0  0  0  0  0  0
    4.1810    3.5348    0.0000 C   0  0  0  0  0  0  0  0  0  0  0  0
    2.8295    2.8840    0.0000 C   0  0  0  0  0  0  0  0  0  0  0  0
    3.1633    1.4216    0.0000 C   0  0  0  0  0  0  0  0  0  0  0  0
    1.3295    2.8840    0.0000 C   0  0  0  0  0  0  0  0  0  0  0  0
    0.3943    1.2135    0.0000 C   0  0  0  0  0  0  0  0  0  0  0  0
    1.2760    0.0000    0.0000 C   0  0  0  0  0  0  0  0  0  0  0  0
    0.3943   -1.2135    0.0000 C   0  0  0  0  0  0  0  0  0  0  0  0
    1.3295   -2.3863    0.0000 C   0  0  0  0  0  0  0  0  0  0  0  0
    2.6810   -3.0371    0.0000 C   0  0  0  0  0  0  0  0  0  0  0  0
    4.1810   -3.0371    0.0000 C   0  0  0  0  0  0  0  0  0  0  0  0
    4.5148   -4.4995    0.0000 C   0  0  0  0  0  0  0  0  0  0  0  0
    3.4152   -5.5197    0.0000 C   0  0  0  0  0  0  0  0  0  0  0  0
    5.9481   -4.9416    0.0000 C   0  0  0  0  0  0  0  0  0  0  0  0
    5.1162   -1.8644    0.0000 C   0  0  0  0  0  0  0  0  0  0  0  0
    6.4677   -1.2135    0.0000 C   0  0  0  0  0  0  0  0  0  0  0  0
    6.8015    0.2489    0.0000 C   0  0  0  0  0  0  0  0  0  0  0  0
    8.3015    0.2489    0.0000 C   0  0  0  0  0  0  0  0  0  0  0  0
   -1.0323   -0.7500    0.0000 C   0  0  0  0  0  0  0  0  0  0  0  0
   -2.2458   -1.6317    0.0000 O   0  0  0  0  0  0  0  0  0  0  0  0
   -1.0323    0.7500    0.0000 O   0  0  0  0  0  0  0  0  0  0  0  0
  1  2  1  0
  3  2  1  1
  3  4  1  0
  4  5  1  0
  5  6  2  0
  6  7  1  0
  6  8  1  0
  9  8  1  1
  9 10  1  0
 10 11  2  0
 11 12  1  0
 12 13  1  0
 13 14  1  0
 14 15  1  0
 15 16  1  0
 15 17  1  0
 14 18  2  0
 18 19  1  0
 19 20  2  0
 20 21  1  0
 11 22  1  0
 22 23  2  0
 22 24  1  0
 20  3  1  0
 24  9  1  0
M  END
>  <id>  (141) 
SANC00541_minRM1.pdb

>  <SMILES>  (141) 
CO[C@@H]1C/C=C(\C)C[C@H]2C=C(CC/C(C(C)C)=C/C=C\1C)C(=O)O2

>  <warheads>  (141) 
ab_unsat_carbonyl:1

>  <n_warheads>  (141) 
1

>  <max_tier>  (141) 
1

>  <pains_flag>  (141) 


>  <MW>  (141) 
330.5

>  <cLogP>  (141) 
4.9

>  <HBD>  (141) 
0

>  <HBA>  (141) 
3

>  <TPSA>  (141) 
35.5

>  <ArRings>  (141) 
0

$$$$
SANC00542_minRM1.pdb
     RDKit          2D

 25 26  0  0  0  0  0  0  0  0999 V2000
    2.3472    4.9972    0.0000 C   0  0  0  0  0  0  0  0  0  0  0  0
    2.6810    3.5348    0.0000 C   0  0  0  0  0  0  0  0  0  0  0  0
    1.3295    2.8840    0.0000 C   0  0  0  0  0  0  0  0  0  0  0  0
    0.3943    1.2135    0.0000 C   0  0  0  0  0  0  0  0  0  0  0  0
    1.2760    0.0000    0.0000 C   0  0  0  0  0  0  0  0  0  0  0  0
    0.3943   -1.2135    0.0000 C   0  0  0  0  0  0  0  0  0  0  0  0
    1.3295   -2.3863    0.0000 C   0  0  0  0  0  0  0  0  0  0  0  0
    2.6810   -3.0371    0.0000 C   0  0  0  0  0  0  0  0  0  0  0  0
    4.1810   -3.0371    0.0000 C   0  0  0  0  0  0  0  0  0  0  0  0
    5.2806   -4.0574    0.0000 O   0  0  0  0  0  0  0  0  0  0  0  0
    3.6330   -4.4334    0.0000 C   0  0  0  0  0  0  0  0  0  0  0  0
    4.5682   -5.6062    0.0000 C   0  0  0  0  0  0  0  0  0  0  0  0
    2.1497   -4.6570    0.0000 C   0  0  0  0  0  0  0  0  0  0  0  0
    5.5324   -2.3863    0.0000 C   0  0  0  0  0  0  0  0  0  0  0  0
    5.8662   -0.9239    0.0000 C   0  0  0  0  0  0  0  0  0  0  0  0
    6.8015    0.2489    0.0000 C   0  0  0  0  0  0  0  0  0  0  0  0
    7.5515   -1.0502    0.0000 C   0  0  0  0  0  0  0  0  0  0  0  0
    8.2847    0.4724    0.0000 O   0  0  0  0  0  0  0  0  0  0  0  0
    6.4677    1.7113    0.0000 C   0  0  0  0  0  0  0  0  0  0  0  0
    5.5324    2.8840    0.0000 C   0  0  0  0  0  0  0  0  0  0  0  0
    4.1810    3.5348    0.0000 C   0  0  0  0  0  0  0  0  0  0  0  0
    4.5148    4.9972    0.0000 O   0  0  0  0  0  0  0  0  0  0  0  0
   -1.0323   -0.7500    0.0000 C   0  0  0  0  0  0  0  0  0  0  0  0
   -2.2458   -1.6317    0.0000 O   0  0  0  0  0  0  0  0  0  0  0  0
   -1.0323    0.7500    0.0000 O   0  0  0  0  0  0  0  0  0  0  0  0
  1  2  2  0
  2  3  1  0
  4  3  1  1
  4  5  1  0
  5  6  2  0
  6  7  1  0
  7  8  1  0
  8  9  1  0
  9 10  1  6
  9 11  1  0
 11 12  1  0
 11 13  1  0
  9 14  1  0
 14 15  2  0
 15 16  1  0
 16 17  1  1
 16 18  1  0
 16 19  1  0
 19 20  1  0
 20 21  1  0
 21 22  1  1
  6 23  1  0
 23 24  2  0
 23 25  1  0
 21  2  1  0
 25  4  1  0
M  END
>  <id>  (142) 
SANC00542_minRM1.pdb

>  <SMILES>  (142) 
C=C1C[C@H]2C=C(CC[C@](O)(C(C)C)/C=C/[C@@](C)(O)CC[C@@H]1O)C(=O)O2

>  <warheads>  (142) 
ab_unsat_carbonyl:1

>  <n_warheads>  (142) 
1

>  <max_tier>  (142) 
1

>  <pains_flag>  (142) 


>  <MW>  (142) 
350.5

>  <cLogP>  (142) 
2.41

>  <HBD>  (142) 
3

>  <HBA>  (142) 
5

>  <TPSA>  (142) 
87.0

>  <ArRings>  (142) 
0

$$$$
SANC00548_minRM1.pdb
     RDKit          2D

 45 50  0  0  0  0  0  0  0  0999 V2000
   -0.2047   -7.7585    0.0000 C   0  0  0  0  0  0  0  0  0  0  0  0
    0.2588   -6.3319    0.0000 C   0  0  0  0  0  0  0  0  0  0  0  0
    1.7260   -6.0201    0.0000 C   0  0  0  0  0  0  0  0  0  0  0  0
    2.7297   -7.1348    0.0000 C   0  0  0  0  0  0  0  0  0  0  0  0
    4.1970   -6.8229    0.0000 C   0  0  0  0  0  0  0  0  0  0  0  0
    4.6605   -5.3963    0.0000 O   0  0  0  0  0  0  0  0  0  0  0  0
    5.2007   -7.9376    0.0000 C   0  0  0  0  0  0  0  0  0  0  0  0
    4.0859   -8.9413    0.0000 C   0  0  0  0  0  0  0  0  0  0  0  0
    6.3154   -6.9339    0.0000 C   0  0  0  0  0  0  0  0  0  0  0  0
    6.2043   -9.0524    0.0000 O   0  0  0  0  0  0  0  0  0  0  0  0
    5.7408  -10.4789    0.0000 C   0  0  0  0  0  0  0  0  0  0  0  0
    4.2736  -10.7908    0.0000 O   0  0  0  0  0  0  0  0  0  0  0  0
    3.8101  -12.2174    0.0000 C   0  0  0  0  0  0  0  0  0  0  0  0
    2.3429  -12.5293    0.0000 C   0  0  0  0  0  0  0  0  0  0  0  0
    1.3392  -11.4145    0.0000 O   0  0  0  0  0  0  0  0  0  0  0  0
    4.8138  -13.3321    0.0000 C   0  0  0  0  0  0  0  0  0  0  0  0
    4.3502  -14.7587    0.0000 O   0  0  0  0  0  0  0  0  0  0  0  0
    6.2810  -13.0202    0.0000 C   0  0  0  0  0  0  0  0  0  0  0  0
    7.2847  -14.1350    0.0000 O   0  0  0  0  0  0  0  0  0  0  0  0
    6.7445  -11.5937    0.0000 C   0  0  0  0  0  0  0  0  0  0  0  0
    8.2117  -11.2818    0.0000 O   0  0  0  0  0  0  0  0  0  0  0  0
   -0.7449   -5.2172    0.0000 C   0  0  0  0  0  0  0  0  0  0  0  0
   -2.2367   -5.3740    0.0000 C   0  0  0  0  0  0  0  0  0  0  0  0
   -2.8468   -4.0037    0.0000 C   0  0  0  0  0  0  0  0  0  0  0  0
   -1.7321   -3.0000    0.0000 C   0  0  0  0  0  0  0  0  0  0  0  0
   -3.1024   -2.3899    0.0000 C   0  0  0  0  0  0  0  0  0  0  0  0
   -1.7321   -1.5000    0.0000 C   0  0  0  0  0  0  0  0  0  0  0  0
   -3.0311   -0.7500    0.0000 C   0  0  0  0  0  0  0  0  0  0  0  0
   -4.3301   -1.5000    0.0000 O   0  0  0  0  0  0  0  0  0  0  0  0
   -3.0311    0.7500    0.0000 C   0  0  0  0  0  0  0  0  0  0  0  0
   -1.7321    1.5000    0.0000 C   0  0  0  0  0  0  0  0  0  0  0  0
   -1.7321    3.0000    0.0000 C   0  0  0  0  0  0  0  0  0  0  0  0
   -2.2451    4.4095    0.0000 C   0  0  0  0  0  0  0  0  0  0  0  0
   -3.2093    2.7395    0.0000 C   0  0  0  0  0  0  0  0  0  0  0  0
   -0.4330    3.7500    0.0000 C   0  0  0  0  0  0  0  0  0  0  0  0
    0.8660    3.0000    0.0000 C   0  0  0  0  0  0  0  0  0  0  0  0
    0.8660    1.5000    0.0000 C   0  0  0  0  0  0  0  0  0  0  0  0
    2.1651    0.7500    0.0000 O   0  0  0  0  0  0  0  0  0  0  0  0
   -0.4330    0.7500    0.0000 C   0  0  0  0  0  0  0  0  0  0  0  0
    0.8660    0.0000    0.0000 C   0  0  0  0  0  0  0  0  0  0  0  0
   -0.4330   -0.7500    0.0000 C   0  0  0  0  0  0  0  0  0  0  0  0
    0.8660   -1.5000    0.0000 C   0  0  0  0  0  0  0  0  0  0  0  0
    0.8660   -3.0000    0.0000 C   0  0  0  0  0  0  0  0  0  0  0  0
   -0.4330   -3.7500    0.0000 C   0  0  0  0  0  0  0  0  0  0  0  0
    0.7805   -4.6317    0.0000 C   0  0  0  0  0  0  0  0  0  0  0  0
  2  1  1  1
  2  3  1  0
  3  4  1  0
  4  5  1  0
  5  6  1  6
  5  7  1  0
  7  8  1  0
  7  9  1  0
  7 10  1  0
 11 10  1  1
 11 12  1  0
 12 13  1  0
 13 14  1  1
 14 15  1  0
 13 16  1  0
 16 17  1  6
 16 18  1  0
 18 19  1  1
 18 20  1  0
 20 21  1  6
  2 22  1  0
 22 23  1  1
 23 24  1  0
 24 25  1  0
 25 26  1  6
 25 27  1  0
 27 28  1  6
 28 29  1  1
 28 30  1  0
 31 30  1  1
 31 32  1  0
 32 33  1  0
 32 34  1  0
 32 35  1  0
 35 36  2  0
 36 37  1  0
 37 38  2  0
 37 39  1  0
 39 40  1  1
 41 40  1  1
 41 42  1  0
 42 43  1  0
 43 44  1  0
 44 45  1  1
 20 11  1  0
 44 22  1  0
 44 25  1  0
 41 27  1  0
 39 31  1  0
 41 39  1  0
M  END
>  <id>  (143) 
SANC00548_minRM1.pdb

>  <SMILES>  (143) 
C[C@H](CC[C@H](O)C(C)(C)O[C@@H]1O[C@H](CO)[C@@H](O)[C@H](O)[C@H]1O)[C@H]1CC[C@@]2(C)[C@@H]3[C@@H](O)C[C@H]4C(C)(C)C=CC(=O)[C@@]45C[C@@]35CC[C@]12C

>  <warheads>  (143) 
ab_unsat_carbonyl:1

>  <n_warheads>  (143) 
1

>  <max_tier>  (143) 
1

>  <pains_flag>  (143) 


>  <MW>  (143) 
634.9

>  <cLogP>  (143) 
3.11

>  <HBD>  (143) 
6

>  <HBA>  (143) 
9

>  <TPSA>  (143) 
156.9

>  <ArRings>  (143) 
0

$$$$
SANC00551_minRM1.pdb
     RDKit          2D

 33 37  0  0  0  0  0  0  0  0999 V2000
   -1.9884   -2.2493    0.0000 C   0  0  0  0  0  0  0  0  0  0  0  0
   -0.4980   -2.4192    0.0000 C   0  0  0  0  0  0  0  0  0  0  0  0
    0.1000   -3.7949    0.0000 C   0  0  0  0  0  0  0  0  0  0  0  0
    1.5903   -3.9648    0.0000 C   0  0  0  0  0  0  0  0  0  0  0  0
    2.1883   -5.3404    0.0000 O   0  0  0  0  0  0  0  0  0  0  0  0
    2.4827   -2.7591    0.0000 C   0  0  0  0  0  0  0  0  0  0  0  0
    3.9730   -2.9290    0.0000 O   0  0  0  0  0  0  0  0  0  0  0  0
    4.5710   -4.3047    0.0000 C   0  0  0  0  0  0  0  0  0  0  0  0
    3.6787   -5.5104    0.0000 O   0  0  0  0  0  0  0  0  0  0  0  0
    6.0614   -4.4746    0.0000 C   0  0  0  0  0  0  0  0  0  0  0  0
    7.0748   -3.3687    0.0000 C   0  0  0  0  0  0  0  0  0  0  0  0
    8.4397   -3.9909    0.0000 C   0  0  0  0  0  0  0  0  0  0  0  0
    8.2698   -5.4812    0.0000 O   0  0  0  0  0  0  0  0  0  0  0  0
    6.7999   -5.7802    0.0000 C   0  0  0  0  0  0  0  0  0  0  0  0
    1.8943   -1.3846    0.0000 C   0  0  0  0  0  0  0  0  0  0  0  0
    3.3943   -1.3846    0.0000 C   0  0  0  0  0  0  0  0  0  0  0  0
    2.6443   -0.0855    0.0000 C   0  0  0  0  0  0  0  0  0  0  0  0
    4.1443   -0.0855    0.0000 O   0  0  0  0  0  0  0  0  0  0  0  0
    4.8943    1.2135    0.0000 C   0  0  0  0  0  0  0  0  0  0  0  0
    4.1443    2.5126    0.0000 O   0  0  0  0  0  0  0  0  0  0  0  0
    6.3943    1.2135    0.0000 C   0  0  0  0  0  0  0  0  0  0  0  0
    7.2760    2.4271    0.0000 C   0  0  0  0  0  0  0  0  0  0  0  0
    8.7026    1.9635    0.0000 C   0  0  0  0  0  0  0  0  0  0  0  0
    8.7026    0.4635    0.0000 O   0  0  0  0  0  0  0  0  0  0  0  0
    7.2760    0.0000    0.0000 C   0  0  0  0  0  0  0  0  0  0  0  0
    1.8943    1.2135    0.0000 C   0  0  0  0  0  0  0  0  0  0  0  0
    0.3943    1.2135    0.0000 C   0  0  0  0  0  0  0  0  0  0  0  0
    1.2760    0.0000    0.0000 C   0  0  0  0  0  0  0  0  0  0  0  0
    0.3943   -1.2135    0.0000 C   0  0  0  0  0  0  0  0  0  0  0  0
   -1.0323   -0.7500    0.0000 O   0  0  0  0  0  0  0  0  0  0  0  0
   -1.0323    0.7500    0.0000 C   0  0  0  0  0  0  0  0  0  0  0  0
   -2.5241    0.5932    0.0000 C   0  0  0  0  0  0  0  0  0  0  0  0
   -1.3442    2.2172    0.0000 C   0  0  0  0  0  0  0  0  0  0  0  0
  1  2  1  0
  2  3  2  0
  3  4  1  0
  4  5  2  0
  4  6  1  0
  6  7  1  1
  7  8  1  0
  8  9  2  0
  8 10  1  0
 10 11  1  0
 11 12  2  0
 12 13  1  0
 13 14  1  0
  6 15  1  0
 15 16  1  1
 15 17  1  0
 17 18  1  6
 18 19  1  0
 19 20  2  0
 19 21  1  0
 21 22  1  0
 22 23  2  0
 23 24  1  0
 24 25  1  0
 17 26  1  0
 27 26  1  6
 27 28  1  0
 28 29  1  0
 29 30  1  6
 30 31  1  0
 31 32  1  0
 31 33  1  0
 29  2  1  0
 14 10  2  0
 29 15  1  0
 25 21  2  0
 31 27  1  0
M  END
>  <id>  (144) 
SANC00551_minRM1.pdb

>  <SMILES>  (144) 
CC1=CC(=O)[C@H](OC(=O)c2ccoc2)[C@@]2(C)[C@@H](OC(=O)c3ccoc3)C[C@@H]3C[C@]12OC3(C)C

>  <warheads>  (144) 
ab_unsat_carbonyl:1

>  <n_warheads>  (144) 
1

>  <max_tier>  (144) 
1

>  <pains_flag>  (144) 


>  <MW>  (144) 
454.5

>  <cLogP>  (144) 
4.12

>  <HBD>  (144) 
0

>  <HBA>  (144) 
8

>  <TPSA>  (144) 
105.2

>  <ArRings>  (144) 
2

$$$$
SANC00556_minRM1.pdb
     RDKit          2D

 24 26  0  0  0  0  0  0  0  0999 V2000
    5.2500   -1.2990    0.0000 C   0  0  0  0  0  0  0  0  0  0  0  0
    3.7500   -1.2990    0.0000 C   0  0  0  0  0  0  0  0  0  0  0  0
    3.0000   -0.0000    0.0000 C   0  0  0  0  0  0  0  0  0  0  0  0
    3.0000   -2.5981    0.0000 C   0  0  0  0  0  0  0  0  0  0  0  0
    3.7500   -3.8971    0.0000 C   0  0  0  0  0  0  0  0  0  0  0  0
    5.2500   -3.8971    0.0000 O   0  0  0  0  0  0  0  0  0  0  0  0
    3.0000   -5.1962    0.0000 C   0  0  0  0  0  0  0  0  0  0  0  0
    3.7500   -6.4952    0.0000 O   0  0  0  0  0  0  0  0  0  0  0  0
    1.5000   -5.1962    0.0000 C   0  0  0  0  0  0  0  0  0  0  0  0
    0.7500   -3.8971    0.0000 C   0  0  0  0  0  0  0  0  0  0  0  0
    1.5000   -2.5981    0.0000 C   0  0  0  0  0  0  0  0  0  0  0  0
    0.7500   -1.2990    0.0000 C   0  0  0  0  0  0  0  0  0  0  0  0
    2.2500   -1.2990    0.0000 C   0  0  0  0  0  0  0  0  0  0  0  0
    1.5000    0.0000    0.0000 C   0  0  0  0  0  0  0  0  0  0  0  0
    0.7500    1.2990    0.0000 C   0  0  0  0  0  0  0  0  0  0  0  0
   -0.7500    1.2990    0.0000 C   0  0  0  0  0  0  0  0  0  0  0  0
   -1.5000    0.0000    0.0000 C   0  0  0  0  0  0  0  0  0  0  0  0
   -2.6491   -0.9642    0.0000 C   0  0  0  0  0  0  0  0  0  0  0  0
   -2.6491    0.9642    0.0000 C   0  0  0  0  0  0  0  0  0  0  0  0
   -0.7500   -1.2990    0.0000 C   0  0  0  0  0  0  0  0  0  0  0  0
   -1.5000   -2.5981    0.0000 C   0  0  0  0  0  0  0  0  0  0  0  0
   -3.0000   -2.5981    0.0000 O   0  0  0  0  0  0  0  0  0  0  0  0
   -0.7500   -3.8971    0.0000 C   0  0  0  0  0  0  0  0  0  0  0  0
   -1.5000   -5.1962    0.0000 O   0  0  0  0  0  0  0  0  0  0  0  0
  1  2  1  0
  2  3  1  0
  2  4  1  0
  4  5  2  0
  5  6  1  0
  5  7  1  0
  7  8  1  0
  7  9  2  0
  9 10  1  0
 10 11  2  0
 11 12  1  0
 12 13  1  1
 12 14  1  0
 14 15  1  0
 15 16  1  0
 16 17  1  0
 17 18  1  0
 17 19  1  0
 17 20  1  0
 20 21  2  0
 21 22  1  0
 21 23  1  0
 23 24  2  0
 11  4  1  0
 20 12  1  0
 23 10  1  0
M  END
>  <id>  (145) 
SANC00556_minRM1.pdb

>  <SMILES>  (145) 
CC(C)c1c(O)c(O)cc2c1[C@@]1(C)CCCC(C)(C)C1=C(O)C2=O

>  <warheads>  (145) 
ab_unsat_carbonyl:1

>  <n_warheads>  (145) 
1

>  <max_tier>  (145) 
1

>  <pains_flag>  (145) 
catechol_A(92)

>  <MW>  (145) 
330.4

>  <cLogP>  (145) 
4.7

>  <HBD>  (145) 
3

>  <HBA>  (145) 
4

>  <TPSA>  (145) 
77.8

>  <ArRings>  (145) 
1

$$$$
SANC00560_minRM1.pdb
     RDKit          2D

 16 17  0  0  0  0  0  0  0  0999 V2000
   -6.1149    1.8303    0.0000 C   0  0  0  0  0  0  0  0  0  0  0  0
   -4.6883    2.2939    0.0000 O   0  0  0  0  0  0  0  0  0  0  0  0
   -3.5736    1.2902    0.0000 C   0  0  0  0  0  0  0  0  0  0  0  0
   -3.8855   -0.1771    0.0000 O   0  0  0  0  0  0  0  0  0  0  0  0
   -2.1470    1.7537    0.0000 C   0  0  0  0  0  0  0  0  0  0  0  0
   -1.8351    3.2209    0.0000 C   0  0  0  0  0  0  0  0  0  0  0  0
   -0.4086    3.6844    0.0000 O   0  0  0  0  0  0  0  0  0  0  0  0
    0.7062    2.6807    0.0000 C   0  0  0  0  0  0  0  0  0  0  0  0
    2.1328    3.1443    0.0000 O   0  0  0  0  0  0  0  0  0  0  0  0
    0.3943    1.2135    0.0000 C   0  0  0  0  0  0  0  0  0  0  0  0
    1.2760    0.0000    0.0000 C   0  0  0  0  0  0  0  0  0  0  0  0
    2.7760    0.0000    0.0000 C   0  0  0  0  0  0  0  0  0  0  0  0
    3.5260   -1.2990    0.0000 O   0  0  0  0  0  0  0  0  0  0  0  0
    0.3943   -1.2135    0.0000 C   0  0  0  0  0  0  0  0  0  0  0  0
   -1.0323   -0.7500    0.0000 C   0  0  0  0  0  0  0  0  0  0  0  0
   -1.0323    0.7500    0.0000 C   0  0  0  0  0  0  0  0  0  0  0  0
  1  2  1  0
  2  3  1  0
  3  4  2  0
  3  5  1  0
  5  6  2  0
  6  7  1  0
  7  8  1  0
  8  9  1  1
  8 10  1  0
 10 11  1  6
 11 12  1  0
 12 13  1  0
 11 14  2  0
 14 15  1  0
 16 15  1  6
 16  5  1  0
 16 10  1  0
M  END
>  <id>  (146) 
SANC00560_minRM1.pdb

>  <SMILES>  (146) 
COC(=O)C1=CO[C@@H](O)[C@@H]2C(CO)=CC[C@H]12

>  <warheads>  (146) 
ab_unsat_carbonyl:1

>  <n_warheads>  (146) 
1

>  <max_tier>  (146) 
1

>  <pains_flag>  (146) 


>  <MW>  (146) 
226.2

>  <cLogP>  (146) 
-0.05

>  <HBD>  (146) 
2

>  <HBA>  (146) 
5

>  <TPSA>  (146) 
76.0

>  <ArRings>  (146) 
0

$$$$
SANC00561_minRM1.pdb
     RDKit          2D

 19 20  0  0  0  0  0  0  0  0999 V2000
   -6.1149    1.8303    0.0000 C   0  0  0  0  0  0  0  0  0  0  0  0
   -4.6883    2.2939    0.0000 O   0  0  0  0  0  0  0  0  0  0  0  0
   -3.5736    1.2902    0.0000 C   0  0  0  0  0  0  0  0  0  0  0  0
   -3.8855   -0.1771    0.0000 O   0  0  0  0  0  0  0  0  0  0  0  0
   -2.1470    1.7537    0.0000 C   0  0  0  0  0  0  0  0  0  0  0  0
   -1.8351    3.2209    0.0000 C   0  0  0  0  0  0  0  0  0  0  0  0
   -0.4086    3.6844    0.0000 O   0  0  0  0  0  0  0  0  0  0  0  0
    0.7062    2.6807    0.0000 C   0  0  0  0  0  0  0  0  0  0  0  0
    2.1328    3.1443    0.0000 O   0  0  0  0  0  0  0  0  0  0  0  0
    0.3943    1.2135    0.0000 C   0  0  0  0  0  0  0  0  0  0  0  0
    1.2760    0.0000    0.0000 C   0  0  0  0  0  0  0  0  0  0  0  0
    2.7760    0.0000    0.0000 C   0  0  0  0  0  0  0  0  0  0  0  0
    3.5260   -1.2990    0.0000 O   0  0  0  0  0  0  0  0  0  0  0  0
    5.0260   -1.2990    0.0000 C   0  0  0  0  0  0  0  0  0  0  0  0
    5.7760   -2.5981    0.0000 C   0  0  0  0  0  0  0  0  0  0  0  0
    5.7760    0.0000    0.0000 O   0  0  0  0  0  0  0  0  0  0  0  0
    0.3943   -1.2135    0.0000 C   0  0  0  0  0  0  0  0  0  0  0  0
   -1.0323   -0.7500    0.0000 C   0  0  0  0  0  0  0  0  0  0  0  0
   -1.0323    0.7500    0.0000 C   0  0  0  0  0  0  0  0  0  0  0  0
  1  2  1  0
  2  3  1  0
  3  4  2  0
  3  5  1  0
  5  6  2  0
  6  7  1  0
  7  8  1  0
  8  9  1  1
  8 10  1  0
 10 11  1  6
 11 12  1  0
 12 13  1  0
 13 14  1  0
 14 15  1  0
 14 16  2  0
 11 17  2  0
 17 18  1  0
 19 18  1  6
 19  5  1  0
 19 10  1  0
M  END
>  <id>  (147) 
SANC00561_minRM1.pdb

>  <SMILES>  (147) 
COC(=O)C1=CO[C@@H](O)[C@@H]2C(COC(C)=O)=CC[C@H]12

>  <warheads>  (147) 
ab_unsat_carbonyl:1

>  <n_warheads>  (147) 
1

>  <max_tier>  (147) 
1

>  <pains_flag>  (147) 


>  <MW>  (147) 
268.3

>  <cLogP>  (147) 
0.52

>  <HBD>  (147) 
1

>  <HBA>  (147) 
6

>  <TPSA>  (147) 
82.1

>  <ArRings>  (147) 
0

$$$$
SANC00578_minRM1.pdb
     RDKit          2D

 25 26  0  0  0  0  0  0  0  0999 V2000
   -0.1100    4.5002    0.0000 C   0  0  0  0  0  0  0  0  0  0  0  0
   -1.6058    4.3881    0.0000 C   0  0  0  0  0  0  0  0  0  0  0  0
   -2.4507    5.6275    0.0000 C   0  0  0  0  0  0  0  0  0  0  0  0
   -2.2566    3.0367    0.0000 C   0  0  0  0  0  0  0  0  0  0  0  0
   -1.6058    1.6852    0.0000 C   0  0  0  0  0  0  0  0  0  0  0  0
   -0.4330    0.7500    0.0000 C   0  0  0  0  0  0  0  0  0  0  0  0
    0.8660    0.0000    0.0000 O   0  0  0  0  0  0  0  0  0  0  0  0
   -0.4330   -0.7500    0.0000 C   0  0  0  0  0  0  0  0  0  0  0  0
    0.6666   -1.7703    0.0000 C   0  0  0  0  0  0  0  0  0  0  0  0
   -1.0838   -2.1015    0.0000 C   0  0  0  0  0  0  0  0  0  0  0  0
   -2.2566   -3.0367    0.0000 C   0  0  0  0  0  0  0  0  0  0  0  0
   -3.7190   -3.3705    0.0000 C   0  0  0  0  0  0  0  0  0  0  0  0
   -5.1814   -3.0367    0.0000 C   0  0  0  0  0  0  0  0  0  0  0  0
   -5.8322   -4.3881    0.0000 C   0  0  0  0  0  0  0  0  0  0  0  0
   -7.3280   -4.5002    0.0000 O   0  0  0  0  0  0  0  0  0  0  0  0
   -6.3541   -2.1015    0.0000 C   0  0  0  0  0  0  0  0  0  0  0  0
   -7.5269   -3.0367    0.0000 O   0  0  0  0  0  0  0  0  0  0  0  0
   -7.0049   -0.7500    0.0000 C   0  0  0  0  0  0  0  0  0  0  0  0
   -7.0049    0.7500    0.0000 C   0  0  0  0  0  0  0  0  0  0  0  0
   -6.3541    2.1015    0.0000 C   0  0  0  0  0  0  0  0  0  0  0  0
   -7.5269    3.0367    0.0000 C   0  0  0  0  0  0  0  0  0  0  0  0
   -5.1814    3.0367    0.0000 C   0  0  0  0  0  0  0  0  0  0  0  0
   -5.8322    4.3881    0.0000 O   0  0  0  0  0  0  0  0  0  0  0  0
   -3.7190    3.3705    0.0000 C   0  0  0  0  0  0  0  0  0  0  0  0
   -3.7190    4.8705    0.0000 O   0  0  0  0  0  0  0  0  0  0  0  0
  1  2  1  0
  2  3  1  0
  2  4  1  0
  4  5  2  0
  5  6  1  0
  6  7  1  6
  7  8  1  0
  8  9  1  1
  8 10  1  0
 10 11  1  0
 11 12  1  0
 12 13  1  0
 13 14  1  1
 14 15  1  0
 13 16  1  0
 16 17  2  0
 16 18  1  0
 18 19  1  0
 19 20  1  0
 20 21  1  1
 20 22  1  0
 22 23  1  6
 22 24  1  0
 24 25  2  0
 24  4  1  0
  8  6  1  0
M  END
>  <id>  (148) 
SANC00578_minRM1.pdb

>  <SMILES>  (148) 
CC(C)/C1=C\[C@@H]2O[C@]2(C)CCC[C@@H](CO)C(=O)CC[C@@H](C)[C@H](O)C1=O

>  <warheads>  (148) 
ab_unsat_carbonyl:1

>  <n_warheads>  (148) 
1

>  <max_tier>  (148) 
1

>  <pains_flag>  (148) 


>  <MW>  (148) 
352.5

>  <cLogP>  (148) 
2.43

>  <HBD>  (148) 
2

>  <HBA>  (148) 
5

>  <TPSA>  (148) 
87.1

>  <ArRings>  (148) 
0

$$$$
SANC00581_minRM1.pdb
     RDKit          2D

 49 53  0  0  0  0  0  0  0  0999 V2000
  -10.0058   -1.1164    0.0000 C   0  0  0  0  0  0  0  0  0  0  0  0
   -9.1670   -2.3599    0.0000 C   0  0  0  0  0  0  0  0  0  0  0  0
   -9.8246   -3.7081    0.0000 O   0  0  0  0  0  0  0  0  0  0  0  0
   -7.6707   -2.2553    0.0000 O   0  0  0  0  0  0  0  0  0  0  0  0
   -6.8319   -3.4989    0.0000 C   0  0  0  0  0  0  0  0  0  0  0  0
   -5.3355   -3.3942    0.0000 C   0  0  0  0  0  0  0  0  0  0  0  0
   -4.6780   -2.0460    0.0000 O   0  0  0  0  0  0  0  0  0  0  0  0
   -3.1816   -1.9414    0.0000 C   0  0  0  0  0  0  0  0  0  0  0  0
   -2.5241   -0.5932    0.0000 C   0  0  0  0  0  0  0  0  0  0  0  0
   -3.5661    0.4858    0.0000 C   0  0  0  0  0  0  0  0  0  0  0  0
   -3.6707    1.9821    0.0000 C   0  0  0  0  0  0  0  0  0  0  0  0
   -2.7890    3.1957    0.0000 C   0  0  0  0  0  0  0  0  0  0  0  0
   -1.3336    3.5586    0.0000 C   0  0  0  0  0  0  0  0  0  0  0  0
    0.0146    2.9010    0.0000 C   0  0  0  0  0  0  0  0  0  0  0  0
    1.0936    3.9430    0.0000 O   0  0  0  0  0  0  0  0  0  0  0  0
    2.5355    3.5295    0.0000 C   0  0  0  0  0  0  0  0  0  0  0  0
    2.8984    2.0741    0.0000 O   0  0  0  0  0  0  0  0  0  0  0  0
    3.6145    4.5715    0.0000 C   0  0  0  0  0  0  0  0  0  0  0  0
    5.0564    4.1581    0.0000 C   0  0  0  0  0  0  0  0  0  0  0  0
    6.1354    5.2001    0.0000 C   0  0  0  0  0  0  0  0  0  0  0  0
    5.9267    6.6855    0.0000 C   0  0  0  0  0  0  0  0  0  0  0  0
    7.2749    7.3430    0.0000 N   0  0  0  0  0  0  0  0  0  0  0  0
    7.5353    8.8202    0.0000 C   0  0  0  0  0  0  0  0  0  0  0  0
    8.3169    6.2640    0.0000 C   0  0  0  0  0  0  0  0  0  0  0  0
    7.6126    4.9396    0.0000 N   0  0  0  0  0  0  0  0  0  0  0  0
    0.3943    1.2135    0.0000 C   0  0  0  0  0  0  0  0  0  0  0  0
    0.8578    2.6401    0.0000 C   0  0  0  0  0  0  0  0  0  0  0  0
    1.2760    0.0000    0.0000 C   0  0  0  0  0  0  0  0  0  0  0  0
    0.3943   -1.2135    0.0000 C   0  0  0  0  0  0  0  0  0  0  0  0
   -1.0323   -0.7500    0.0000 C   0  0  0  0  0  0  0  0  0  0  0  0
   -2.2458   -1.6317    0.0000 O   0  0  0  0  0  0  0  0  0  0  0  0
   -1.0323    0.7500    0.0000 O   0  0  0  0  0  0  0  0  0  0  0  0
   -3.3991    4.5660    0.0000 C   0  0  0  0  0  0  0  0  0  0  0  0
   -2.5174    5.7795    0.0000 C   0  0  0  0  0  0  0  0  0  0  0  0
   -4.8909    4.7228    0.0000 C   0  0  0  0  0  0  0  0  0  0  0  0
   -5.7726    3.5093    0.0000 C   0  0  0  0  0  0  0  0  0  0  0  0
   -5.1625    2.1389    0.0000 C   0  0  0  0  0  0  0  0  0  0  0  0
   -6.0442    0.9254    0.0000 C   0  0  0  0  0  0  0  0  0  0  0  0
   -7.5359    1.0822    0.0000 C   0  0  0  0  0  0  0  0  0  0  0  0
   -5.4340   -0.4449    0.0000 C   0  0  0  0  0  0  0  0  0  0  0  0
   -4.4967   -4.6378    0.0000 O   0  0  0  0  0  0  0  0  0  0  0  0
   -5.1543   -5.9860    0.0000 C   0  0  0  0  0  0  0  0  0  0  0  0
   -6.6506   -6.0906    0.0000 C   0  0  0  0  0  0  0  0  0  0  0  0
   -7.3082   -7.4388    0.0000 O   0  0  0  0  0  0  0  0  0  0  0  0
   -7.4894   -4.8470    0.0000 C   0  0  0  0  0  0  0  0  0  0  0  0
   -8.9858   -4.9517    0.0000 O   0  0  0  0  0  0  0  0  0  0  0  0
   -9.6433   -6.2999    0.0000 C   0  0  0  0  0  0  0  0  0  0  0  0
  -11.1397   -6.4045    0.0000 C   0  0  0  0  0  0  0  0  0  0  0  0
   -8.8045   -7.5434    0.0000 O   0  0  0  0  0  0  0  0  0  0  0  0
  1  2  1  0
  2  3  2  0
  2  4  1  0
  5  4  1  6
  5  6  1  0
  6  7  1  6
  7  8  1  0
  9  8  1  1
  9 10  1  0
 11 10  1  6
 11 12  1  0
 12 13  1  1
 13 14  1  0
 14 15  1  1
 15 16  1  0
 16 17  2  0
 16 18  1  0
 18 19  2  0
 19 20  1  0
 20 21  2  0
 21 22  1  0
 22 23  1  0
 22 24  1  0
 24 25  2  0
 14 26  1  0
 26 27  1  6
 26 28  1  0
 28 29  2  0
 29 30  1  0
 30 31  1  6
 30 32  1  0
 12 33  1  0
 33 34  1  0
 33 35  2  0
 35 36  1  0
 36 37  1  0
 37 38  1  6
 38 39  1  0
 38 40  1  0
  6 41  1  0
 41 42  1  0
 42 43  1  0
 43 44  1  6
 43 45  1  0
 45 46  1  6
 46 47  1  0
 47 48  1  0
 47 49  2  0
 45  5  1  0
 30  9  1  0
 37 11  1  0
 25 20  1  0
 32 26  1  0
M  END
>  <id>  (149) 
SANC00581_minRM1.pdb

>  <SMILES>  (149) 
CC(=O)O[C@@H]1[C@H](OC[C@H]2C[C@H]3[C@H](C[C@@H](OC(=O)/C=C/c4cn(C)cn4)[C@@]4(C)C=C[C@]2(O)O4)C(C)=CC[C@H]3C(C)C)OC[C@H](O)[C@@H]1OC(C)=O

>  <warheads>  (149) 
ab_unsat_carbonyl:1

>  <n_warheads>  (149) 
1

>  <max_tier>  (149) 
1

>  <pains_flag>  (149) 


>  <MW>  (149) 
686.8

>  <cLogP>  (149) 
3.24

>  <HBD>  (149) 
2

>  <HBA>  (149) 
12

>  <TPSA>  (149) 
164.9

>  <ArRings>  (149) 
1

$$$$
SANC00582_minRM1.pdb
     RDKit          2D

 49 53  0  0  0  0  0  0  0  0999 V2000
  -10.0058   -1.1164    0.0000 C   0  0  0  0  0  0  0  0  0  0  0  0
   -9.1670   -2.3599    0.0000 C   0  0  0  0  0  0  0  0  0  0  0  0
   -9.8246   -3.7081    0.0000 O   0  0  0  0  0  0  0  0  0  0  0  0
   -7.6707   -2.2553    0.0000 O   0  0  0  0  0  0  0  0  0  0  0  0
   -6.8319   -3.4989    0.0000 C   0  0  0  0  0  0  0  0  0  0  0  0
   -5.3355   -3.3942    0.0000 C   0  0  0  0  0  0  0  0  0  0  0  0
   -4.6780   -2.0460    0.0000 O   0  0  0  0  0  0  0  0  0  0  0  0
   -3.1816   -1.9414    0.0000 C   0  0  0  0  0  0  0  0  0  0  0  0
   -2.5241   -0.5932    0.0000 C   0  0  0  0  0  0  0  0  0  0  0  0
   -3.5661    0.4858    0.0000 C   0  0  0  0  0  0  0  0  0  0  0  0
   -3.6707    1.9821    0.0000 C   0  0  0  0  0  0  0  0  0  0  0  0
   -2.7890    3.1957    0.0000 C   0  0  0  0  0  0  0  0  0  0  0  0
   -1.3336    3.5586    0.0000 C   0  0  0  0  0  0  0  0  0  0  0  0
    0.0146    2.9010    0.0000 C   0  0  0  0  0  0  0  0  0  0  0  0
    1.0936    3.9430    0.0000 O   0  0  0  0  0  0  0  0  0  0  0  0
    2.5355    3.5295    0.0000 C   0  0  0  0  0  0  0  0  0  0  0  0
    2.8984    2.0741    0.0000 O   0  0  0  0  0  0  0  0  0  0  0  0
    3.6145    4.5715    0.0000 C   0  0  0  0  0  0  0  0  0  0  0  0
    5.0564    4.1581    0.0000 C   0  0  0  0  0  0  0  0  0  0  0  0
    6.1354    5.2001    0.0000 C   0  0  0  0  0  0  0  0  0  0  0  0
    5.9267    6.6855    0.0000 C   0  0  0  0  0  0  0  0  0  0  0  0
    7.2749    7.3430    0.0000 N   0  0  0  0  0  0  0  0  0  0  0  0
    7.5353    8.8202    0.0000 C   0  0  0  0  0  0  0  0  0  0  0  0
    8.3169    6.2640    0.0000 C   0  0  0  0  0  0  0  0  0  0  0  0
    7.6126    4.9396    0.0000 N   0  0  0  0  0  0  0  0  0  0  0  0
    0.3943    1.2135    0.0000 C   0  0  0  0  0  0  0  0  0  0  0  0
    0.8578    2.6401    0.0000 C   0  0  0  0  0  0  0  0  0  0  0  0
    1.2760    0.0000    0.0000 C   0  0  0  0  0  0  0  0  0  0  0  0
    0.3943   -1.2135    0.0000 C   0  0  0  0  0  0  0  0  0  0  0  0
   -1.0323   -0.7500    0.0000 C   0  0  0  0  0  0  0  0  0  0  0  0
   -2.2458   -1.6317    0.0000 O   0  0  0  0  0  0  0  0  0  0  0  0
   -1.0323    0.7500    0.0000 O   0  0  0  0  0  0  0  0  0  0  0  0
   -3.3991    4.5660    0.0000 C   0  0  0  0  0  0  0  0  0  0  0  0
   -2.5174    5.7795    0.0000 C   0  0  0  0  0  0  0  0  0  0  0  0
   -4.8909    4.7228    0.0000 C   0  0  0  0  0  0  0  0  0  0  0  0
   -5.7726    3.5093    0.0000 C   0  0  0  0  0  0  0  0  0  0  0  0
   -5.1625    2.1389    0.0000 C   0  0  0  0  0  0  0  0  0  0  0  0
   -6.0442    0.9254    0.0000 C   0  0  0  0  0  0  0  0  0  0  0  0
   -7.5359    1.0822    0.0000 C   0  0  0  0  0  0  0  0  0  0  0  0
   -5.4340   -0.4449    0.0000 C   0  0  0  0  0  0  0  0  0  0  0  0
   -4.4967   -4.6378    0.0000 O   0  0  0  0  0  0  0  0  0  0  0  0
   -5.1543   -5.9860    0.0000 C   0  0  0  0  0  0  0  0  0  0  0  0
   -6.6506   -6.0906    0.0000 C   0  0  0  0  0  0  0  0  0  0  0  0
   -7.3082   -7.4388    0.0000 O   0  0  0  0  0  0  0  0  0  0  0  0
   -8.8045   -7.5434    0.0000 C   0  0  0  0  0  0  0  0  0  0  0  0
   -9.4621   -8.8916    0.0000 C   0  0  0  0  0  0  0  0  0  0  0  0
   -9.6433   -6.2999    0.0000 O   0  0  0  0  0  0  0  0  0  0  0  0
   -7.4894   -4.8470    0.0000 C   0  0  0  0  0  0  0  0  0  0  0  0
   -8.9858   -4.9517    0.0000 O   0  0  0  0  0  0  0  0  0  0  0  0
  1  2  1  0
  2  3  2  0
  2  4  1  0
  5  4  1  6
  5  6  1  0
  6  7  1  6
  7  8  1  0
  9  8  1  1
  9 10  1  0
 11 10  1  6
 11 12  1  0
 12 13  1  1
 13 14  1  0
 14 15  1  1
 15 16  1  0
 16 17  2  0
 16 18  1  0
 18 19  2  0
 19 20  1  0
 20 21  2  0
 21 22  1  0
 22 23  1  0
 22 24  1  0
 24 25  2  0
 14 26  1  0
 26 27  1  6
 26 28  1  0
 28 29  2  0
 29 30  1  0
 30 31  1  6
 30 32  1  0
 12 33  1  0
 33 34  1  0
 33 35  2  0
 35 36  1  0
 36 37  1  0
 37 38  1  1
 38 39  1  0
 38 40  1  0
  6 41  1  0
 41 42  1  0
 42 43  1  0
 43 44  1  6
 44 45  1  0
 45 46  1  0
 45 47  2  0
 43 48  1  0
 48 49  1  6
 48  5  1  0
 30  9  1  0
 37 11  1  0
 25 20  1  0
 32 26  1  0
M  END
>  <id>  (150) 
SANC00582_minRM1.pdb

>  <SMILES>  (150) 
CC(=O)O[C@@H]1[C@H](OC[C@H]2C[C@H]3[C@H](C[C@@H](OC(=O)/C=C/c4cn(C)cn4)[C@@]4(C)C=C[C@]2(O)O4)C(C)=CC[C@@H]3C(C)C)OC[C@H](OC(C)=O)[C@@H]1O

>  <warheads>  (150) 
ab_unsat_carbonyl:1

>  <n_warheads>  (150) 
1

>  <max_tier>  (150) 
1

>  <pains_flag>  (150) 


>  <MW>  (150) 
686.8

>  <cLogP>  (150) 
3.24

>  <HBD>  (150) 
2

>  <HBA>  (150) 
12

>  <TPSA>  (150) 
164.9

>  <ArRings>  (150) 
1

$$$$
SANC00583_minRM1.pdb
     RDKit          2D

 36 39  0  0  0  0  0  0  0  0999 V2000
   -5.5660   -3.7114    0.0000 C   0  0  0  0  0  0  0  0  0  0  0  0
   -4.9084   -2.3632    0.0000 O   0  0  0  0  0  0  0  0  0  0  0  0
   -3.4121   -2.2586    0.0000 C   0  0  0  0  0  0  0  0  0  0  0  0
   -2.5733   -3.5021    0.0000 O   0  0  0  0  0  0  0  0  0  0  0  0
   -2.7545   -0.9104    0.0000 C   0  0  0  0  0  0  0  0  0  0  0  0
   -3.7965    0.1686    0.0000 C   0  0  0  0  0  0  0  0  0  0  0  0
   -3.9011    1.6650    0.0000 C   0  0  0  0  0  0  0  0  0  0  0  0
   -5.3929    1.8218    0.0000 C   0  0  0  0  0  0  0  0  0  0  0  0
   -6.2746    0.6083    0.0000 C   0  0  0  0  0  0  0  0  0  0  0  0
   -7.7664    0.7651    0.0000 C   0  0  0  0  0  0  0  0  0  0  0  0
   -5.6645   -0.7621    0.0000 C   0  0  0  0  0  0  0  0  0  0  0  0
   -6.0030    3.1921    0.0000 C   0  0  0  0  0  0  0  0  0  0  0  0
   -5.1213    4.4056    0.0000 C   0  0  0  0  0  0  0  0  0  0  0  0
   -3.6295    4.2488    0.0000 C   0  0  0  0  0  0  0  0  0  0  0  0
   -2.7479    5.4624    0.0000 C   0  0  0  0  0  0  0  0  0  0  0  0
   -3.0194    2.8785    0.0000 C   0  0  0  0  0  0  0  0  0  0  0  0
   -1.5640    3.2414    0.0000 C   0  0  0  0  0  0  0  0  0  0  0  0
   -0.2158    2.5838    0.0000 C   0  0  0  0  0  0  0  0  0  0  0  0
    0.8632    3.6258    0.0000 O   0  0  0  0  0  0  0  0  0  0  0  0
    2.3051    3.2124    0.0000 C   0  0  0  0  0  0  0  0  0  0  0  0
    2.6680    1.7569    0.0000 O   0  0  0  0  0  0  0  0  0  0  0  0
    3.3841    4.2544    0.0000 C   0  0  0  0  0  0  0  0  0  0  0  0
    4.8260    3.8409    0.0000 C   0  0  0  0  0  0  0  0  0  0  0  0
    5.9050    4.8829    0.0000 C   0  0  0  0  0  0  0  0  0  0  0  0
    5.6962    6.3683    0.0000 C   0  0  0  0  0  0  0  0  0  0  0  0
    7.0444    7.0259    0.0000 N   0  0  0  0  0  0  0  0  0  0  0  0
    7.3049    8.5031    0.0000 C   0  0  0  0  0  0  0  0  0  0  0  0
    8.0864    5.9468    0.0000 C   0  0  0  0  0  0  0  0  0  0  0  0
    7.3822    4.6224    0.0000 N   0  0  0  0  0  0  0  0  0  0  0  0
    0.3943    1.2135    0.0000 C   0  0  0  0  0  0  0  0  0  0  0  0
    0.8578    2.6401    0.0000 C   0  0  0  0  0  0  0  0  0  0  0  0
    1.2760    0.0000    0.0000 C   0  0  0  0  0  0  0  0  0  0  0  0
    0.3943   -1.2135    0.0000 C   0  0  0  0  0  0  0  0  0  0  0  0
   -1.0323   -0.7500    0.0000 C   0  0  0  0  0  0  0  0  0  0  0  0
   -2.2458   -1.6317    0.0000 O   0  0  0  0  0  0  0  0  0  0  0  0
   -1.0323    0.7500    0.0000 O   0  0  0  0  0  0  0  0  0  0  0  0
  1  2  1  0
  2  3  1  0
  3  4  2  0
  5  3  1  6
  5  6  1  0
  7  6  1  6
  7  8  1  0
  8  9  1  1
  9 10  1  0
  9 11  1  0
  8 12  1  0
 12 13  1  0
 13 14  2  0
 14 15  1  0
 14 16  1  0
 16 17  1  6
 17 18  1  0
 18 19  1  6
 19 20  1  0
 20 21  2  0
 20 22  1  0
 22 23  2  0
 23 24  1  0
 24 25  2  0
 25 26  1  0
 26 27  1  0
 26 28  1  0
 28 29  2  0
 18 30  1  0
 30 31  1  1
 30 32  1  0
 32 33  2  0
 33 34  1  0
 34 35  1  1
 34 36  1  0
 34  5  1  0
 16  7  1  0
 29 24  1  0
 36 30  1  0
M  END
>  <id>  (151) 
SANC00583_minRM1.pdb

>  <SMILES>  (151) 
COC(=O)[C@@H]1C[C@@H]2[C@@H](C(C)C)CC=C(C)[C@@H]2C[C@H](OC(=O)/C=C/c2cn(C)cn2)[C@]2(C)C=C[C@@]1(O)O2

>  <warheads>  (151) 
ab_unsat_carbonyl:1

>  <n_warheads>  (151) 
1

>  <max_tier>  (151) 
1

>  <pains_flag>  (151) 


>  <MW>  (151) 
498.6

>  <cLogP>  (151) 
3.82

>  <HBD>  (151) 
1

>  <HBA>  (151) 
7

>  <TPSA>  (151) 
99.9

>  <ArRings>  (151) 
1

$$$$
SANC00588_minRM1.pdb
     RDKit          2D

 35 38  0  0  0  0  0  0  0  0999 V2000
    2.6761    4.9840    0.0000 C   0  0  0  0  0  0  0  0  0  0  0  0
    1.6559    3.8844    0.0000 C   0  0  0  0  0  0  0  0  0  0  0  0
    2.0980    2.4510    0.0000 C   0  0  0  0  0  0  0  0  0  0  0  0
    3.5604    2.1172    0.0000 C   0  0  0  0  0  0  0  0  0  0  0  0
    4.0025    0.6839    0.0000 C   0  0  0  0  0  0  0  0  0  0  0  0
    5.4649    0.3501    0.0000 C   0  0  0  0  0  0  0  0  0  0  0  0
    6.4852    1.4497    0.0000 C   0  0  0  0  0  0  0  0  0  0  0  0
    6.0430    2.8830    0.0000 C   0  0  0  0  0  0  0  0  0  0  0  0
    7.9476    1.1159    0.0000 C   0  0  0  0  0  0  0  0  0  0  0  0
    8.9678    2.2155    0.0000 O   0  0  0  0  0  0  0  0  0  0  0  0
    8.3897   -0.3175    0.0000 C   0  0  0  0  0  0  0  0  0  0  0  0
    9.8521   -0.6512    0.0000 O   0  0  0  0  0  0  0  0  0  0  0  0
    7.3694   -1.4170    0.0000 C   0  0  0  0  0  0  0  0  0  0  0  0
    7.8116   -2.8504    0.0000 C   0  0  0  0  0  0  0  0  0  0  0  0
    8.7173   -4.0461    0.0000 C   0  0  0  0  0  0  0  0  0  0  0  0
    9.1464   -2.1661    0.0000 C   0  0  0  0  0  0  0  0  0  0  0  0
    6.7913   -3.9500    0.0000 C   0  0  0  0  0  0  0  0  0  0  0  0
    7.2335   -5.3833    0.0000 O   0  0  0  0  0  0  0  0  0  0  0  0
    5.3289   -3.6162    0.0000 C   0  0  0  0  0  0  0  0  0  0  0  0
    4.8868   -2.1828    0.0000 C   0  0  0  0  0  0  0  0  0  0  0  0
    5.9071   -1.0833    0.0000 C   0  0  0  0  0  0  0  0  0  0  0  0
    4.4447   -0.7495    0.0000 C   0  0  0  0  0  0  0  0  0  0  0  0
    1.0777    1.3515    0.0000 C   0  0  0  0  0  0  0  0  0  0  0  0
    2.5610    1.1279    0.0000 C   0  0  0  0  0  0  0  0  0  0  0  0
    1.7286    0.0000    0.0000 C   0  0  0  0  0  0  0  0  0  0  0  0
    1.0777   -1.3515    0.0000 C   0  0  0  0  0  0  0  0  0  0  0  0
   -0.3846   -1.6852    0.0000 C   0  0  0  0  0  0  0  0  0  0  0  0
   -0.7184   -3.1476    0.0000 O   0  0  0  0  0  0  0  0  0  0  0  0
   -1.5574   -0.7500    0.0000 C   0  0  0  0  0  0  0  0  0  0  0  0
   -2.2082   -2.1015    0.0000 C   0  0  0  0  0  0  0  0  0  0  0  0
   -3.0198   -0.4162    0.0000 C   0  0  0  0  0  0  0  0  0  0  0  0
   -1.5574    0.7500    0.0000 O   0  0  0  0  0  0  0  0  0  0  0  0
   -0.3846    1.6852    0.0000 C   0  0  0  0  0  0  0  0  0  0  0  0
   -0.8268    3.1186    0.0000 C   0  0  0  0  0  0  0  0  0  0  0  0
    0.1935    4.2182    0.0000 C   0  0  0  0  0  0  0  0  0  0  0  0
  1  2  1  0
  2  3  2  0
  3  4  1  0
  4  5  1  0
  5  6  1  0
  6  7  2  0
  7  8  1  0
  7  9  1  0
  9 10  2  0
  9 11  1  0
 11 12  1  0
 11 13  2  0
 13 14  1  0
 14 15  1  0
 14 16  1  0
 14 17  1  0
 17 18  2  0
 17 19  1  0
 19 20  1  0
 20 21  1  0
 21 22  1  1
  3 23  1  0
 23 24  1  1
 23 25  1  0
 25 26  1  0
 26 27  1  0
 27 28  2  0
 27 29  1  0
 29 30  1  0
 29 31  1  0
 29 32  1  0
 32 33  1  0
 33 34  1  1
 34 35  1  0
 35  2  1  0
 21  6  1  0
 33 23  1  0
 21 13  1  0
M  END
>  <id>  (152) 
SANC00588_minRM1.pdb

>  <SMILES>  (152) 
CC1=C(CCC2=C(C)C(=O)C(O)=C3C(C)(C)C(=O)CC[C@]23C)[C@]2(C)CCC(=O)C(C)(C)O[C@H]2CC1

>  <warheads>  (152) 
ab_unsat_carbonyl:2

>  <n_warheads>  (152) 
2

>  <max_tier>  (152) 
1

>  <pains_flag>  (152) 


>  <MW>  (152) 
482.7

>  <cLogP>  (152) 
6.52

>  <HBD>  (152) 
1

>  <HBA>  (152) 
5

>  <TPSA>  (152) 
80.7

>  <ArRings>  (152) 
0

$$$$
SANC00591_minRM1.pdb
     RDKit          2D

 35 38  0  0  0  0  0  0  0  0999 V2000
    2.6761    4.9840    0.0000 C   0  0  0  0  0  0  0  0  0  0  0  0
    1.6559    3.8844    0.0000 C   0  0  0  0  0  0  0  0  0  0  0  0
    2.0980    2.4510    0.0000 C   0  0  0  0  0  0  0  0  0  0  0  0
    3.5604    2.1172    0.0000 C   0  0  0  0  0  0  0  0  0  0  0  0
    4.0025    0.6839    0.0000 C   0  0  0  0  0  0  0  0  0  0  0  0
    5.4649    0.3501    0.0000 C   0  0  0  0  0  0  0  0  0  0  0  0
    5.0228    1.7835    0.0000 C   0  0  0  0  0  0  0  0  0  0  0  0
    6.0430    2.8830    0.0000 C   0  0  0  0  0  0  0  0  0  0  0  0
    7.5054    2.5493    0.0000 C   0  0  0  0  0  0  0  0  0  0  0  0
    8.5257    3.6488    0.0000 O   0  0  0  0  0  0  0  0  0  0  0  0
    7.9476    1.1159    0.0000 C   0  0  0  0  0  0  0  0  0  0  0  0
    8.8533   -0.0798    0.0000 C   0  0  0  0  0  0  0  0  0  0  0  0
    9.2824    1.8002    0.0000 C   0  0  0  0  0  0  0  0  0  0  0  0
    6.9273    0.0163    0.0000 C   0  0  0  0  0  0  0  0  0  0  0  0
    7.3694   -1.4170    0.0000 C   0  0  0  0  0  0  0  0  0  0  0  0
    8.8318   -1.7508    0.0000 O   0  0  0  0  0  0  0  0  0  0  0  0
    6.3492   -2.5166    0.0000 C   0  0  0  0  0  0  0  0  0  0  0  0
    6.7913   -3.9500    0.0000 O   0  0  0  0  0  0  0  0  0  0  0  0
    4.8868   -2.1828    0.0000 C   0  0  0  0  0  0  0  0  0  0  0  0
    3.8665   -3.2824    0.0000 C   0  0  0  0  0  0  0  0  0  0  0  0
    4.4447   -0.7495    0.0000 C   0  0  0  0  0  0  0  0  0  0  0  0
    2.9823   -0.4157    0.0000 C   0  0  0  0  0  0  0  0  0  0  0  0
    1.0777    1.3515    0.0000 C   0  0  0  0  0  0  0  0  0  0  0  0
    2.5610    1.1279    0.0000 C   0  0  0  0  0  0  0  0  0  0  0  0
    1.7286    0.0000    0.0000 C   0  0  0  0  0  0  0  0  0  0  0  0
    1.0777   -1.3515    0.0000 C   0  0  0  0  0  0  0  0  0  0  0  0
   -0.3846   -1.6852    0.0000 C   0  0  0  0  0  0  0  0  0  0  0  0
   -0.7184   -3.1476    0.0000 O   0  0  0  0  0  0  0  0  0  0  0  0
   -1.5574   -0.7500    0.0000 C   0  0  0  0  0  0  0  0  0  0  0  0
   -2.2082   -2.1015    0.0000 C   0  0  0  0  0  0  0  0  0  0  0  0
   -3.0198   -0.4162    0.0000 C   0  0  0  0  0  0  0  0  0  0  0  0
   -1.5574    0.7500    0.0000 O   0  0  0  0  0  0  0  0  0  0  0  0
   -0.3846    1.6852    0.0000 C   0  0  0  0  0  0  0  0  0  0  0  0
   -0.8268    3.1186    0.0000 C   0  0  0  0  0  0  0  0  0  0  0  0
    0.1935    4.2182    0.0000 C   0  0  0  0  0  0  0  0  0  0  0  0
  1  2  1  0
  2  3  2  0
  3  4  1  0
  4  5  1  0
  6  5  1  1
  6  7  1  0
  7  8  1  0
  8  9  1  0
  9 10  2  0
  9 11  1  0
 11 12  1  0
 11 13  1  0
 11 14  1  0
 14 15  2  0
 15 16  1  0
 15 17  1  0
 17 18  2  0
 17 19  1  0
 19 20  1  0
 19 21  2  0
 21 22  1  0
  3 23  1  0
 23 24  1  1
 23 25  1  0
 25 26  1  0
 26 27  1  0
 27 28  2  0
 27 29  1  0
 29 30  1  0
 29 31  1  0
 29 32  1  0
 32 33  1  0
 33 34  1  1
 34 35  1  0
 35  2  1  0
 14  6  1  0
 33 23  1  0
 21  6  1  0
M  END
>  <id>  (153) 
SANC00591_minRM1.pdb

>  <SMILES>  (153) 
CC1=C(CC[C@@]23CCC(=O)C(C)(C)C2=C(O)C(=O)C(C)=C3C)[C@]2(C)CCC(=O)C(C)(C)O[C@H]2CC1

>  <warheads>  (153) 
ab_unsat_carbonyl:2

>  <n_warheads>  (153) 
2

>  <max_tier>  (153) 
1

>  <pains_flag>  (153) 


>  <MW>  (153) 
482.7

>  <cLogP>  (153) 
6.52

>  <HBD>  (153) 
1

>  <HBA>  (153) 
5

>  <TPSA>  (153) 
80.7

>  <ArRings>  (153) 
0

$$$$
SANC00594_minRM1.pdb
     RDKit          2D

 35 38  0  0  0  0  0  0  0  0999 V2000
   -4.7718    2.6866    0.0000 C   0  0  0  0  0  0  0  0  0  0  0  0
   -5.2140    4.1199    0.0000 C   0  0  0  0  0  0  0  0  0  0  0  0
   -4.1937    5.2195    0.0000 C   0  0  0  0  0  0  0  0  0  0  0  0
   -2.7313    4.8857    0.0000 C   0  0  0  0  0  0  0  0  0  0  0  0
   -2.2892    3.4524    0.0000 C   0  0  0  0  0  0  0  0  0  0  0  0
   -0.8268    3.1186    0.0000 C   0  0  0  0  0  0  0  0  0  0  0  0
    0.1935    4.2182    0.0000 C   0  0  0  0  0  0  0  0  0  0  0  0
   -0.2487    5.6515    0.0000 C   0  0  0  0  0  0  0  0  0  0  0  0
    1.6559    3.8844    0.0000 C   0  0  0  0  0  0  0  0  0  0  0  0
    2.0980    2.4510    0.0000 C   0  0  0  0  0  0  0  0  0  0  0  0
    1.0777    1.3515    0.0000 C   0  0  0  0  0  0  0  0  0  0  0  0
    1.7286    0.0000    0.0000 O   0  0  0  0  0  0  0  0  0  0  0  0
    1.0777   -1.3515    0.0000 C   0  0  0  0  0  0  0  0  0  0  0  0
    2.5401   -1.6852    0.0000 C   0  0  0  0  0  0  0  0  0  0  0  0
    1.0777   -2.8515    0.0000 C   0  0  0  0  0  0  0  0  0  0  0  0
   -0.3846   -1.6852    0.0000 C   0  0  0  0  0  0  0  0  0  0  0  0
   -0.7184   -3.1476    0.0000 O   0  0  0  0  0  0  0  0  0  0  0  0
   -1.5574   -0.7500    0.0000 C   0  0  0  0  0  0  0  0  0  0  0  0
   -1.5574    0.7500    0.0000 C   0  0  0  0  0  0  0  0  0  0  0  0
   -0.3846    1.6852    0.0000 C   0  0  0  0  0  0  0  0  0  0  0  0
   -1.8180    2.1274    0.0000 C   0  0  0  0  0  0  0  0  0  0  0  0
   -4.6358    6.6529    0.0000 C   0  0  0  0  0  0  0  0  0  0  0  0
   -3.1734    6.3191    0.0000 C   0  0  0  0  0  0  0  0  0  0  0  0
   -3.6156    7.7525    0.0000 C   0  0  0  0  0  0  0  0  0  0  0  0
   -4.0577    9.1858    0.0000 C   0  0  0  0  0  0  0  0  0  0  0  0
   -5.5201    9.5196    0.0000 C   0  0  0  0  0  0  0  0  0  0  0  0
   -5.9622   10.9530    0.0000 O   0  0  0  0  0  0  0  0  0  0  0  0
   -6.5404    8.4200    0.0000 C   0  0  0  0  0  0  0  0  0  0  0  0
   -7.8752    7.7357    0.0000 C   0  0  0  0  0  0  0  0  0  0  0  0
   -7.4461    9.6157    0.0000 C   0  0  0  0  0  0  0  0  0  0  0  0
   -6.0982    6.9867    0.0000 C   0  0  0  0  0  0  0  0  0  0  0  0
   -7.1185    5.8871    0.0000 C   0  0  0  0  0  0  0  0  0  0  0  0
   -8.5809    6.2209    0.0000 O   0  0  0  0  0  0  0  0  0  0  0  0
   -6.6763    4.4537    0.0000 C   0  0  0  0  0  0  0  0  0  0  0  0
   -7.6966    3.3541    0.0000 O   0  0  0  0  0  0  0  0  0  0  0  0
  1  2  1  0
  2  3  2  0
  3  4  1  0
  4  5  1  0
  6  5  1  1
  6  7  1  0
  7  8  1  1
  7  9  1  0
  9 10  1  0
 11 10  1  1
 11 12  1  0
 12 13  1  0
 13 14  1  0
 13 15  1  0
 13 16  1  0
 16 17  2  0
 16 18  1  0
 18 19  1  0
 19 20  1  0
 20 21  1  1
  3 22  1  0
 22 23  1  6
 22 24  1  0
 24 25  1  0
 25 26  1  0
 26 27  2  0
 26 28  1  0
 28 29  1  0
 28 30  1  0
 28 31  1  0
 31 32  2  0
 32 33  1  0
 32 34  1  0
 34 35  2  0
 34  2  1  0
 20  6  1  0
 31 22  1  0
 20 11  1  0
M  END
>  <id>  (154) 
SANC00594_minRM1.pdb

>  <SMILES>  (154) 
CC1=C(CC[C@H]2[C@@H](C)CC[C@H]3OC(C)(C)C(=O)CC[C@@]32C)[C@]2(C)CCC(=O)C(C)(C)C2=C(O)C1=O

>  <warheads>  (154) 
ab_unsat_carbonyl:2

>  <n_warheads>  (154) 
2

>  <max_tier>  (154) 
1

>  <pains_flag>  (154) 


>  <MW>  (154) 
484.7

>  <cLogP>  (154) 
6.45

>  <HBD>  (154) 
1

>  <HBA>  (154) 
5

>  <TPSA>  (154) 
80.7

>  <ArRings>  (154) 
0

$$$$
SANC00603_minRM1.pdb
     RDKit          2D

 28 32  0  0  0  0  0  0  0  0999 V2000
    1.7260   -6.0201    0.0000 C   0  0  0  0  0  0  0  0  0  0  0  0
    0.2588   -6.3319    0.0000 C   0  0  0  0  0  0  0  0  0  0  0  0
   -0.7449   -5.2172    0.0000 C   0  0  0  0  0  0  0  0  0  0  0  0
   -2.2367   -5.3740    0.0000 C   0  0  0  0  0  0  0  0  0  0  0  0
   -2.9867   -6.6731    0.0000 O   0  0  0  0  0  0  0  0  0  0  0  0
   -2.8468   -4.0037    0.0000 C   0  0  0  0  0  0  0  0  0  0  0  0
   -1.7321   -3.0000    0.0000 C   0  0  0  0  0  0  0  0  0  0  0  0
   -3.1024   -2.3899    0.0000 C   0  0  0  0  0  0  0  0  0  0  0  0
   -1.7321   -1.5000    0.0000 C   0  0  0  0  0  0  0  0  0  0  0  0
   -3.0311   -0.7500    0.0000 C   0  0  0  0  0  0  0  0  0  0  0  0
   -3.0311    0.7500    0.0000 C   0  0  0  0  0  0  0  0  0  0  0  0
   -1.7321    1.5000    0.0000 C   0  0  0  0  0  0  0  0  0  0  0  0
   -1.7321    3.0000    0.0000 C   0  0  0  0  0  0  0  0  0  0  0  0
   -2.2451    4.4095    0.0000 C   0  0  0  0  0  0  0  0  0  0  0  0
   -3.2093    2.7395    0.0000 C   0  0  0  0  0  0  0  0  0  0  0  0
   -0.4330    3.7500    0.0000 C   0  0  0  0  0  0  0  0  0  0  0  0
   -0.4330    5.2500    0.0000 N   0  0  0  0  0  0  0  0  0  0  0  0
    0.8660    6.0000    0.0000 C   0  0  0  0  0  0  0  0  0  0  0  0
   -1.7321    6.0000    0.0000 C   0  0  0  0  0  0  0  0  0  0  0  0
    0.8660    3.0000    0.0000 C   0  0  0  0  0  0  0  0  0  0  0  0
    0.8660    1.5000    0.0000 C   0  0  0  0  0  0  0  0  0  0  0  0
   -0.4330    0.7500    0.0000 C   0  0  0  0  0  0  0  0  0  0  0  0
    0.8660    0.0000    0.0000 C   0  0  0  0  0  0  0  0  0  0  0  0
   -0.4330   -0.7500    0.0000 C   0  0  0  0  0  0  0  0  0  0  0  0
    0.8660   -1.5000    0.0000 C   0  0  0  0  0  0  0  0  0  0  0  0
    0.8660   -3.0000    0.0000 C   0  0  0  0  0  0  0  0  0  0  0  0
   -0.4330   -3.7500    0.0000 C   0  0  0  0  0  0  0  0  0  0  0  0
    0.7805   -4.6317    0.0000 C   0  0  0  0  0  0  0  0  0  0  0  0
  1  2  1  0
  2  3  2  0
  3  4  1  0
  4  5  2  0
  4  6  1  0
  6  7  1  0
  7  8  1  6
  7  9  1  0
  9 10  1  6
 10 11  1  0
 12 11  1  1
 12 13  1  0
 13 14  1  0
 13 15  1  0
 13 16  1  0
 16 17  1  1
 17 18  1  0
 17 19  1  0
 16 20  1  0
 20 21  1  0
 22 21  1  6
 22 23  1  0
 24 23  1  1
 24 25  1  0
 25 26  1  0
 26 27  1  0
 27 28  1  1
 27  3  1  0
 27  7  1  0
 24  9  1  0
 22 12  1  0
 24 22  1  0
M  END
>  <id>  (155) 
SANC00603_minRM1.pdb

>  <SMILES>  (155) 
C/C=C1/C(=O)C[C@@]2(C)[C@@H]3CC[C@H]4C(C)(C)[C@@H](N(C)C)CC[C@@]45C[C@@]35CC[C@]12C

>  <warheads>  (155) 
ab_unsat_carbonyl:1

>  <n_warheads>  (155) 
1

>  <max_tier>  (155) 
1

>  <pains_flag>  (155) 


>  <MW>  (155) 
383.6

>  <cLogP>  (155) 
5.86

>  <HBD>  (155) 
0

>  <HBA>  (155) 
2

>  <TPSA>  (155) 
20.3

>  <ArRings>  (155) 
0

$$$$
SANC00606_minRM1.pdb
     RDKit          2D

 17 17  0  0  0  0  0  0  0  0999 V2000
   12.0000   -5.1962    0.0000 N   0  0  0  0  0  0  0  0  0  0  0  0
   10.5000   -5.1962    0.0000 C   0  0  0  0  0  0  0  0  0  0  0  0
    9.7500   -3.8971    0.0000 C   0  0  0  0  0  0  0  0  0  0  0  0
    8.2500   -3.8971    0.0000 C   0  0  0  0  0  0  0  0  0  0  0  0
    7.5000   -2.5981    0.0000 C   0  0  0  0  0  0  0  0  0  0  0  0
    6.0000   -2.5981    0.0000 N   0  0  0  0  0  0  0  0  0  0  0  0
    5.2500   -1.2990    0.0000 C   0  0  0  0  0  0  0  0  0  0  0  0
    6.0000    0.0000    0.0000 O   0  0  0  0  0  0  0  0  0  0  0  0
    3.7500   -1.2990    0.0000 C   0  0  0  0  0  0  0  0  0  0  0  0
    3.0000    0.0000    0.0000 C   0  0  0  0  0  0  0  0  0  0  0  0
    1.5000    0.0000    0.0000 C   0  0  0  0  0  0  0  0  0  0  0  0
    0.7500   -1.2990    0.0000 C   0  0  0  0  0  0  0  0  0  0  0  0
   -0.7500   -1.2990    0.0000 C   0  0  0  0  0  0  0  0  0  0  0  0
   -1.5000    0.0000    0.0000 C   0  0  0  0  0  0  0  0  0  0  0  0
   -3.0000    0.0000    0.0000 O   0  0  0  0  0  0  0  0  0  0  0  0
   -0.7500    1.2990    0.0000 C   0  0  0  0  0  0  0  0  0  0  0  0
    0.7500    1.2990    0.0000 C   0  0  0  0  0  0  0  0  0  0  0  0
  1  2  1  0
  2  3  1  0
  3  4  1  0
  4  5  1  0
  5  6  1  0
  6  7  1  0
  7  8  2  0
  7  9  1  0
  9 10  2  0
 10 11  1  0
 11 12  2  0
 12 13  1  0
 13 14  2  0
 14 15  1  0
 14 16  1  0
 16 17  2  0
 17 11  1  0
M  END
>  <id>  (156) 
SANC00606_minRM1.pdb

>  <SMILES>  (156) 
NCCCCNC(=O)/C=C/c1ccc(O)cc1

>  <warheads>  (156) 
ab_unsat_carbonyl:1

>  <n_warheads>  (156) 
1

>  <max_tier>  (156) 
1

>  <pains_flag>  (156) 


>  <MW>  (156) 
234.3

>  <cLogP>  (156) 
1.26

>  <HBD>  (156) 
3

>  <HBA>  (156) 
3

>  <TPSA>  (156) 
75.3

>  <ArRings>  (156) 
1

$$$$
SANC00612_minRM1.pdb
     RDKit          2D

 21 23  0  0  0  0  0  0  0  0999 V2000
    3.0000    0.0000    0.0000 O   0  0  0  0  0  0  0  0  0  0  0  0
    1.5000    0.0000    0.0000 C   0  0  0  0  0  0  0  0  0  0  0  0
    0.7500   -1.2990    0.0000 C   0  0  0  0  0  0  0  0  0  0  0  0
    1.5000   -2.5981    0.0000 C   0  0  0  0  0  0  0  0  0  0  0  0
    0.7500   -3.8971    0.0000 C   0  0  0  0  0  0  0  0  0  0  0  0
   -0.7500   -3.8971    0.0000 C   0  0  0  0  0  0  0  0  0  0  0  0
   -1.5000   -5.1962    0.0000 C   0  0  0  0  0  0  0  0  0  0  0  0
   -0.7500   -6.4952    0.0000 C   0  0  0  0  0  0  0  0  0  0  0  0
   -1.5000   -7.7942    0.0000 O   0  0  0  0  0  0  0  0  0  0  0  0
    0.7500   -6.4952    0.0000 C   0  0  0  0  0  0  0  0  0  0  0  0
    1.5000   -5.1962    0.0000 C   0  0  0  0  0  0  0  0  0  0  0  0
   -0.7500   -1.2990    0.0000 C   0  0  0  0  0  0  0  0  0  0  0  0
   -1.5000    0.0000    0.0000 O   0  0  0  0  0  0  0  0  0  0  0  0
   -0.7500    1.2990    0.0000 C   0  0  0  0  0  0  0  0  0  0  0  0
   -1.5000    2.5981    0.0000 C   0  0  0  0  0  0  0  0  0  0  0  0
   -0.7500    3.8971    0.0000 C   0  0  0  0  0  0  0  0  0  0  0  0
   -1.5000    5.1962    0.0000 O   0  0  0  0  0  0  0  0  0  0  0  0
    0.7500    3.8971    0.0000 C   0  0  0  0  0  0  0  0  0  0  0  0
    1.5000    2.5981    0.0000 C   0  0  0  0  0  0  0  0  0  0  0  0
    3.0000    2.5981    0.0000 O   0  0  0  0  0  0  0  0  0  0  0  0
    0.7500    1.2990    0.0000 C   0  0  0  0  0  0  0  0  0  0  0  0
  1  2  2  0
  2  3  1  0
  3  4  2  0
  4  5  1  0
  5  6  2  0
  6  7  1  0
  7  8  2  0
  8  9  1  0
  8 10  1  0
 10 11  2  0
  3 12  1  0
 12 13  1  0
 13 14  1  0
 14 15  2  0
 15 16  1  0
 16 17  1  0
 16 18  2  0
 18 19  1  0
 19 20  1  0
 19 21  2  0
 21  2  1  0
 11  5  1  0
 21 14  1  0
M  END
>  <id>  (157) 
SANC00612_minRM1.pdb

>  <SMILES>  (157) 
O=C1/C(=C/c2ccc(O)cc2)COc2cc(O)cc(O)c21

>  <warheads>  (157) 
ab_unsat_carbonyl:1

>  <n_warheads>  (157) 
1

>  <max_tier>  (157) 
1

>  <pains_flag>  (157) 


>  <MW>  (157) 
284.3

>  <cLogP>  (157) 
2.46

>  <HBD>  (157) 
3

>  <HBA>  (157) 
5

>  <TPSA>  (157) 
87.0

>  <ArRings>  (157) 
2

$$$$
SANC00616_minRM1.pdb
     RDKit          2D

 62 68  0  0  0  0  0  0  0  0999 V2000
   -6.1471   -5.2544    0.0000 C   0  0  0  0  0  0  0  0  0  0  0  0
   -6.1471   -6.7544    0.0000 C   0  0  0  0  0  0  0  0  0  0  0  0
   -7.4462   -7.5044    0.0000 O   0  0  0  0  0  0  0  0  0  0  0  0
   -4.8481   -7.5044    0.0000 O   0  0  0  0  0  0  0  0  0  0  0  0
   -4.8481   -9.0044    0.0000 C   0  0  0  0  0  0  0  0  0  0  0  0
   -3.5490   -9.7544    0.0000 C   0  0  0  0  0  0  0  0  0  0  0  0
   -2.2500   -9.0044    0.0000 O   0  0  0  0  0  0  0  0  0  0  0  0
   -2.2500   -7.5044    0.0000 C   0  0  0  0  0  0  0  0  0  0  0  0
   -3.4635   -6.6227    0.0000 C   0  0  0  0  0  0  0  0  0  0  0  0
   -3.0000   -5.1962    0.0000 C   0  0  0  0  0  0  0  0  0  0  0  0
   -3.7500   -3.8971    0.0000 C   0  0  0  0  0  0  0  0  0  0  0  0
   -5.2500   -3.8971    0.0000 C   0  0  0  0  0  0  0  0  0  0  0  0
   -6.0000   -2.5981    0.0000 C   0  0  0  0  0  0  0  0  0  0  0  0
   -5.2500   -1.2990    0.0000 C   0  0  0  0  0  0  0  0  0  0  0  0
   -6.0000    0.0000    0.0000 C   0  0  0  0  0  0  0  0  0  0  0  0
   -5.2500    1.2990    0.0000 C   0  0  0  0  0  0  0  0  0  0  0  0
   -6.0000    2.5981    0.0000 O   0  0  0  0  0  0  0  0  0  0  0  0
   -3.7500    1.2990    0.0000 C   0  0  0  0  0  0  0  0  0  0  0  0
   -3.0000    0.0000    0.0000 C   0  0  0  0  0  0  0  0  0  0  0  0
   -3.7500   -1.2990    0.0000 C   0  0  0  0  0  0  0  0  0  0  0  0
   -2.2500   -1.2990    0.0000 C   0  0  0  0  0  0  0  0  0  0  0  0
   -3.0000   -2.5981    0.0000 C   0  0  0  0  0  0  0  0  0  0  0  0
   -1.5000   -2.5981    0.0000 C   0  0  0  0  0  0  0  0  0  0  0  0
   -0.7500   -3.8971    0.0000 C   0  0  0  0  0  0  0  0  0  0  0  0
   -1.5000   -5.1962    0.0000 C   0  0  0  0  0  0  0  0  0  0  0  0
   -0.0082   -5.3529    0.0000 C   0  0  0  0  0  0  0  0  0  0  0  0
   -1.0365   -6.6227    0.0000 C   0  0  0  0  0  0  0  0  0  0  0  0
   -0.2865   -7.9218    0.0000 O   0  0  0  0  0  0  0  0  0  0  0  0
    0.3338   -6.0126    0.0000 C   0  0  0  0  0  0  0  0  0  0  0  0
    0.4906   -4.5208    0.0000 C   0  0  0  0  0  0  0  0  0  0  0  0
    1.5474   -6.8943    0.0000 C   0  0  0  0  0  0  0  0  0  0  0  0
    1.3906   -8.3861    0.0000 O   0  0  0  0  0  0  0  0  0  0  0  0
    2.9177   -6.2842    0.0000 C   0  0  0  0  0  0  0  0  0  0  0  0
    4.1312   -7.1659    0.0000 C   0  0  0  0  0  0  0  0  0  0  0  0
    5.5015   -6.5558    0.0000 C   0  0  0  0  0  0  0  0  0  0  0  0
    6.7151   -7.4375    0.0000 C   0  0  0  0  0  0  0  0  0  0  0  0
    5.6583   -5.0640    0.0000 C   0  0  0  0  0  0  0  0  0  0  0  0
   -3.5490  -11.2544    0.0000 O   0  0  0  0  0  0  0  0  0  0  0  0
   -4.8481  -12.0044    0.0000 C   0  0  0  0  0  0  0  0  0  0  0  0
   -6.1471  -11.2544    0.0000 C   0  0  0  0  0  0  0  0  0  0  0  0
   -7.4462  -12.0044    0.0000 O   0  0  0  0  0  0  0  0  0  0  0  0
   -6.1471   -9.7544    0.0000 C   0  0  0  0  0  0  0  0  0  0  0  0
   -7.4462   -9.0044    0.0000 O   0  0  0  0  0  0  0  0  0  0  0  0
   -8.7452   -9.7544    0.0000 C   0  0  0  0  0  0  0  0  0  0  0  0
   -8.7452  -11.2544    0.0000 O   0  0  0  0  0  0  0  0  0  0  0  0
  -10.0442  -12.0044    0.0000 C   0  0  0  0  0  0  0  0  0  0  0  0
  -11.3433  -11.2544    0.0000 C   0  0  0  0  0  0  0  0  0  0  0  0
  -12.6423  -12.0044    0.0000 O   0  0  0  0  0  0  0  0  0  0  0  0
  -11.3433   -9.7544    0.0000 C   0  0  0  0  0  0  0  0  0  0  0  0
  -12.6423   -9.0044    0.0000 O   0  0  0  0  0  0  0  0  0  0  0  0
  -10.0442   -9.0044    0.0000 C   0  0  0  0  0  0  0  0  0  0  0  0
  -10.0442   -7.5044    0.0000 O   0  0  0  0  0  0  0  0  0  0  0  0
  -11.3433   -6.7544    0.0000 C   0  0  0  0  0  0  0  0  0  0  0  0
  -12.6423   -7.5044    0.0000 O   0  0  0  0  0  0  0  0  0  0  0  0
  -11.3433   -5.2544    0.0000 C   0  0  0  0  0  0  0  0  0  0  0  0
  -12.6423   -4.5044    0.0000 C   0  0  0  0  0  0  0  0  0  0  0  0
  -12.6423   -3.0044    0.0000 C   0  0  0  0  0  0  0  0  0  0  0  0
  -13.9413   -2.2544    0.0000 C   0  0  0  0  0  0  0  0  0  0  0  0
  -13.9413   -0.7544    0.0000 C   0  0  0  0  0  0  0  0  0  0  0  0
  -12.6423   -0.0044    0.0000 C   0  0  0  0  0  0  0  0  0  0  0  0
  -11.3433   -0.7544    0.0000 C   0  0  0  0  0  0  0  0  0  0  0  0
  -11.3433   -2.2544    0.0000 C   0  0  0  0  0  0  0  0  0  0  0  0
  1  2  1  0
  2  3  2  0
  2  4  1  0
  5  4  1  1
  5  6  1  0
  6  7  1  6
  8  7  1  1
  8  9  1  0
 10  9  1  1
 10 11  1  0
 11 12  1  6
 12 13  1  0
 13 14  2  0
 14 15  1  0
 15 16  1  0
 16 17  1  1
 16 18  1  0
 18 19  1  0
 19 20  1  0
 20 21  1  1
 20 22  1  0
 22 23  1  1
 23 24  1  0
 24 25  1  0
 25 26  1  1
 25 27  1  0
 27 28  1  6
 27 29  1  0
 29 30  1  6
 29 31  1  0
 31 32  2  0
 31 33  1  0
 33 34  1  0
 34 35  1  0
 35 36  1  0
 35 37  1  0
  6 38  1  0
 38 39  1  0
 39 40  1  0
 40 41  1  6
 40 42  1  0
 42 43  1  6
 44 43  1  6
 44 45  1  0
 45 46  1  0
 46 47  1  0
 47 48  1  1
 47 49  1  0
 49 50  1  6
 49 51  1  0
 51 52  1  1
 52 53  1  0
 53 54  2  0
 53 55  1  0
 55 56  2  0
 56 57  1  0
 57 58  2  0
 58 59  1  0
 59 60  2  0
 60 61  1  0
 61 62  2  0
 42  5  1  0
 51 44  1  0
 62 57  1  0
 27  8  1  0
 25 10  1  0
 22 11  1  0
 20 14  1  0
M  END
>  <id>  (158) 
SANC00616_minRM1.pdb

>  <SMILES>  (158) 
CC(=O)O[C@H]1[C@H](O[C@H]2C[C@H]3[C@@H]4CC=C5C[C@@H](O)CC[C@]5(C)[C@H]4CC[C@]3(C)[C@@]2(O)[C@H](C)C(=O)CCC(C)C)OC[C@H](O)[C@@H]1O[C@@H]1OC[C@@H](O)[C@H](O)[C@H]1OC(=O)/C=C/c1ccccc1

>  <warheads>  (158) 
ab_unsat_carbonyl:1

>  <n_warheads>  (158) 
1

>  <max_tier>  (158) 
1

>  <pains_flag>  (158) 


>  <MW>  (158) 
869.1

>  <cLogP>  (158) 
4.42

>  <HBD>  (158) 
5

>  <HBA>  (158) 
14

>  <TPSA>  (158) 
207.7

>  <ArRings>  (158) 
1

$$$$
SANC00618_minRM1.pdb
     RDKit          2D

 73 80  0  0  0  0  0  0  0  0999 V2000
    1.6471   -5.2544    0.0000 C   0  0  0  0  0  0  0  0  0  0  0  0
    1.6471   -6.7544    0.0000 C   0  0  0  0  0  0  0  0  0  0  0  0
    2.9462   -7.5044    0.0000 O   0  0  0  0  0  0  0  0  0  0  0  0
    0.3481   -7.5044    0.0000 O   0  0  0  0  0  0  0  0  0  0  0  0
    0.3481   -9.0044    0.0000 C   0  0  0  0  0  0  0  0  0  0  0  0
   -0.9510   -9.7544    0.0000 C   0  0  0  0  0  0  0  0  0  0  0  0
   -2.2500   -9.0044    0.0000 O   0  0  0  0  0  0  0  0  0  0  0  0
   -2.2500   -7.5044    0.0000 C   0  0  0  0  0  0  0  0  0  0  0  0
   -1.0365   -6.6227    0.0000 C   0  0  0  0  0  0  0  0  0  0  0  0
   -1.5000   -5.1962    0.0000 C   0  0  0  0  0  0  0  0  0  0  0  0
   -0.7500   -3.8971    0.0000 C   0  0  0  0  0  0  0  0  0  0  0  0
    0.7500   -3.8971    0.0000 C   0  0  0  0  0  0  0  0  0  0  0  0
    1.5000   -2.5981    0.0000 C   0  0  0  0  0  0  0  0  0  0  0  0
    0.7500   -1.2990    0.0000 C   0  0  0  0  0  0  0  0  0  0  0  0
    1.5000    0.0000    0.0000 C   0  0  0  0  0  0  0  0  0  0  0  0
    0.7500    1.2990    0.0000 C   0  0  0  0  0  0  0  0  0  0  0  0
    1.5000    2.5981    0.0000 O   0  0  0  0  0  0  0  0  0  0  0  0
    3.0000    2.5981    0.0000 C   0  0  0  0  0  0  0  0  0  0  0  0
    3.7500    1.2990    0.0000 O   0  0  0  0  0  0  0  0  0  0  0  0
    5.2500    1.2990    0.0000 C   0  0  0  0  0  0  0  0  0  0  0  0
    6.0000   -0.0000    0.0000 C   0  0  0  0  0  0  0  0  0  0  0  0
    5.2500   -1.2990    0.0000 O   0  0  0  0  0  0  0  0  0  0  0  0
    6.0000    2.5981    0.0000 C   0  0  0  0  0  0  0  0  0  0  0  0
    7.5000    2.5981    0.0000 O   0  0  0  0  0  0  0  0  0  0  0  0
    5.2500    3.8971    0.0000 C   0  0  0  0  0  0  0  0  0  0  0  0
    6.0000    5.1962    0.0000 O   0  0  0  0  0  0  0  0  0  0  0  0
    3.7500    3.8971    0.0000 C   0  0  0  0  0  0  0  0  0  0  0  0
    3.0000    5.1962    0.0000 O   0  0  0  0  0  0  0  0  0  0  0  0
   -0.7500    1.2990    0.0000 C   0  0  0  0  0  0  0  0  0  0  0  0
   -1.5000    0.0000    0.0000 C   0  0  0  0  0  0  0  0  0  0  0  0
   -0.7500   -1.2990    0.0000 C   0  0  0  0  0  0  0  0  0  0  0  0
   -2.2500   -1.2990    0.0000 C   0  0  0  0  0  0  0  0  0  0  0  0
   -1.5000   -2.5981    0.0000 C   0  0  0  0  0  0  0  0  0  0  0  0
   -3.0000   -2.5981    0.0000 C   0  0  0  0  0  0  0  0  0  0  0  0
   -3.7500   -3.8971    0.0000 C   0  0  0  0  0  0  0  0  0  0  0  0
   -3.0000   -5.1962    0.0000 C   0  0  0  0  0  0  0  0  0  0  0  0
   -4.4918   -5.3529    0.0000 C   0  0  0  0  0  0  0  0  0  0  0  0
   -3.4635   -6.6227    0.0000 C   0  0  0  0  0  0  0  0  0  0  0  0
   -4.2135   -7.9218    0.0000 O   0  0  0  0  0  0  0  0  0  0  0  0
   -4.8338   -6.0126    0.0000 C   0  0  0  0  0  0  0  0  0  0  0  0
   -4.9906   -4.5208    0.0000 C   0  0  0  0  0  0  0  0  0  0  0  0
   -6.0474   -6.8943    0.0000 C   0  0  0  0  0  0  0  0  0  0  0  0
   -5.8906   -8.3861    0.0000 O   0  0  0  0  0  0  0  0  0  0  0  0
   -7.4177   -6.2842    0.0000 C   0  0  0  0  0  0  0  0  0  0  0  0
   -8.6312   -7.1659    0.0000 C   0  0  0  0  0  0  0  0  0  0  0  0
  -10.0015   -6.5558    0.0000 C   0  0  0  0  0  0  0  0  0  0  0  0
  -11.2151   -7.4375    0.0000 C   0  0  0  0  0  0  0  0  0  0  0  0
  -10.1583   -5.0640    0.0000 C   0  0  0  0  0  0  0  0  0  0  0  0
   -0.9510  -11.2544    0.0000 O   0  0  0  0  0  0  0  0  0  0  0  0
    0.3481  -12.0044    0.0000 C   0  0  0  0  0  0  0  0  0  0  0  0
    1.6471  -11.2544    0.0000 C   0  0  0  0  0  0  0  0  0  0  0  0
    2.9462  -12.0044    0.0000 O   0  0  0  0  0  0  0  0  0  0  0  0
    1.6471   -9.7544    0.0000 C   0  0  0  0  0  0  0  0  0  0  0  0
    2.9462   -9.0044    0.0000 O   0  0  0  0  0  0  0  0  0  0  0  0
    4.2452   -9.7544    0.0000 C   0  0  0  0  0  0  0  0  0  0  0  0
    4.2452  -11.2544    0.0000 O   0  0  0  0  0  0  0  0  0  0  0  0
    5.5442  -12.0044    0.0000 C   0  0  0  0  0  0  0  0  0  0  0  0
    6.8433  -11.2544    0.0000 C   0  0  0  0  0  0  0  0  0  0  0  0
    8.1423  -12.0044    0.0000 O   0  0  0  0  0  0  0  0  0  0  0  0
    6.8433   -9.7544    0.0000 C   0  0  0  0  0  0  0  0  0  0  0  0
    8.1423   -9.0044    0.0000 O   0  0  0  0  0  0  0  0  0  0  0  0
    5.5442   -9.0044    0.0000 C   0  0  0  0  0  0  0  0  0  0  0  0
    5.5442   -7.5044    0.0000 O   0  0  0  0  0  0  0  0  0  0  0  0
    6.8433   -6.7544    0.0000 C   0  0  0  0  0  0  0  0  0  0  0  0
    8.1423   -7.5044    0.0000 O   0  0  0  0  0  0  0  0  0  0  0  0
    6.8433   -5.2544    0.0000 C   0  0  0  0  0  0  0  0  0  0  0  0
    8.1423   -4.5044    0.0000 C   0  0  0  0  0  0  0  0  0  0  0  0
    8.1423   -3.0044    0.0000 C   0  0  0  0  0  0  0  0  0  0  0  0
    9.4413   -2.2544    0.0000 C   0  0  0  0  0  0  0  0  0  0  0  0
    9.4413   -0.7544    0.0000 C   0  0  0  0  0  0  0  0  0  0  0  0
    8.1423   -0.0044    0.0000 C   0  0  0  0  0  0  0  0  0  0  0  0
    6.8433   -0.7544    0.0000 C   0  0  0  0  0  0  0  0  0  0  0  0
    6.8433   -2.2544    0.0000 C   0  0  0  0  0  0  0  0  0  0  0  0
  1  2  1  0
  2  3  2  0
  2  4  1  0
  5  4  1  6
  5  6  1  0
  6  7  1  1
  8  7  1  6
  8  9  1  0
 10  9  1  6
 10 11  1  0
 11 12  1  1
 12 13  1  0
 13 14  2  0
 14 15  1  0
 15 16  1  0
 16 17  1  6
 18 17  1  1
 18 19  1  0
 19 20  1  0
 20 21  1  1
 21 22  1  0
 20 23  1  0
 23 24  1  6
 23 25  1  0
 25 26  1  1
 25 27  1  0
 27 28  1  6
 16 29  1  0
 29 30  1  0
 30 31  1  0
 31 32  1  6
 31 33  1  0
 33 34  1  6
 34 35  1  0
 35 36  1  0
 36 37  1  6
 36 38  1  0
 38 39  1  1
 38 40  1  0
 40 41  1  1
 40 42  1  0
 42 43  2  0
 42 44  1  0
 44 45  1  0
 45 46  1  0
 46 47  1  0
 46 48  1  0
  6 49  1  0
 49 50  1  0
 50 51  1  0
 51 52  1  1
 51 53  1  0
 53 54  1  1
 55 54  1  1
 55 56  1  0
 56 57  1  0
 57 58  1  0
 58 59  1  6
 58 60  1  0
 60 61  1  1
 60 62  1  0
 62 63  1  6
 63 64  1  0
 64 65  2  0
 64 66  1  0
 66 67  2  0
 67 68  1  0
 68 69  2  0
 69 70  1  0
 70 71  2  0
 71 72  1  0
 72 73  2  0
 53  5  1  0
 62 55  1  0
 73 68  1  0
 38  8  1  0
 36 10  1  0
 33 11  1  0
 31 14  1  0
 27 18  1  0
M  END
>  <id>  (159) 
SANC00618_minRM1.pdb

>  <SMILES>  (159) 
CC(=O)O[C@H]1[C@H](O[C@H]2C[C@H]3[C@@H]4CC=C5C[C@@H](O[C@@H]6O[C@H](CO)[C@@H](O)[C@H](O)[C@H]6O)CC[C@]5(C)[C@H]4CC[C@]3(C)[C@@]2(O)[C@H](C)C(=O)CCC(C)C)OC[C@H](O)[C@@H]1O[C@@H]1OC[C@@H](O)[C@H](O)[C@H]1OC(=O)/C=C/c1ccccc1

>  <warheads>  (159) 
ab_unsat_carbonyl:1

>  <n_warheads>  (159) 
1

>  <max_tier>  (159) 
1

>  <pains_flag>  (159) 


>  <MW>  (159) 
1031.2

>  <cLogP>  (159) 
2.24

>  <HBD>  (159) 
8

>  <HBA>  (159) 
19

>  <TPSA>  (159) 
286.9

>  <ArRings>  (159) 
1

$$$$
SANC00621_minRM1.pdb
     RDKit          2D

 24 26  0  0  0  0  0  0  0  0999 V2000
   -6.3604    4.8234    0.0000 C   0  0  0  0  0  0  0  0  0  0  0  0
   -5.1024    5.6404    0.0000 C   0  0  0  0  0  0  0  0  0  0  0  0
   -3.7659    4.9594    0.0000 C   0  0  0  0  0  0  0  0  0  0  0  0
   -2.7622    6.0741    0.0000 C   0  0  0  0  0  0  0  0  0  0  0  0
   -1.3356    6.5376    0.0000 C   0  0  0  0  0  0  0  0  0  0  0  0
   -1.4141    8.0356    0.0000 C   0  0  0  0  0  0  0  0  0  0  0  0
    0.1316    6.2257    0.0000 C   0  0  0  0  0  0  0  0  0  0  0  0
   -0.0771    7.7111    0.0000 C   0  0  0  0  0  0  0  0  0  0  0  0
    1.4560    6.9300    0.0000 O   0  0  0  0  0  0  0  0  0  0  0  0
    1.2463    5.2220    0.0000 C   0  0  0  0  0  0  0  0  0  0  0  0
    2.5043    6.0390    0.0000 O   0  0  0  0  0  0  0  0  0  0  0  0
    1.7099    3.7955    0.0000 O   0  0  0  0  0  0  0  0  0  0  0  0
    1.3980    2.3282    0.0000 C   0  0  0  0  0  0  0  0  0  0  0  0
    0.3943    1.2135    0.0000 C   0  0  0  0  0  0  0  0  0  0  0  0
    1.2760    0.0000    0.0000 C   0  0  0  0  0  0  0  0  0  0  0  0
    0.3943   -1.2135    0.0000 C   0  0  0  0  0  0  0  0  0  0  0  0
   -1.0323   -0.7500    0.0000 N   0  0  0  0  0  0  0  0  0  0  0  0
   -2.4327   -1.2876    0.0000 C   0  0  0  0  0  0  0  0  0  0  0  0
   -3.3766   -0.1218    0.0000 C   0  0  0  0  0  0  0  0  0  0  0  0
   -2.4995    1.0619    0.0000 C   0  0  0  0  0  0  0  0  0  0  0  0
   -3.6142    2.0656    0.0000 O   0  0  0  0  0  0  0  0  0  0  0  0
   -4.0778    3.4921    0.0000 C   0  0  0  0  0  0  0  0  0  0  0  0
   -5.5757    3.4136    0.0000 O   0  0  0  0  0  0  0  0  0  0  0  0
   -1.0323    0.7500    0.0000 C   0  0  0  0  0  0  0  0  0  0  0  0
  1  2  1  0
  2  3  2  0
  3  4  1  0
  4  5  1  0
  5  6  1  1
  5  7  1  0
  7  8  1  6
  7  9  1  0
  7 10  1  0
 10 11  2  0
 10 12  1  0
 12 13  1  0
 13 14  1  0
 14 15  2  0
 15 16  1  0
 16 17  1  0
 17 18  1  0
 18 19  1  0
 20 19  1  1
 20 21  1  0
 21 22  1  0
 22 23  2  0
 20 24  1  0
 22  3  1  0
 24 14  1  0
 24 17  1  1
M  END
>  <id>  (160) 
SANC00621_minRM1.pdb

>  <SMILES>  (160) 
C/C=C1/C[C@@H](C)[C@@](C)(O)C(=O)OCC2=CCN3CC[C@@H](OC1=O)[C@@H]23

>  <warheads>  (160) 
ab_unsat_carbonyl:1

>  <n_warheads>  (160) 
1

>  <max_tier>  (160) 
1

>  <pains_flag>  (160) 


>  <MW>  (160) 
335.4

>  <cLogP>  (160) 
1.19

>  <HBD>  (160) 
1

>  <HBA>  (160) 
6

>  <TPSA>  (160) 
76.1

>  <ArRings>  (160) 
0

$$$$
SANC00622_minRM1.pdb
     RDKit          2D

 24 26  0  0  0  0  0  0  0  0999 V2000
   -1.4141    8.0356    0.0000 C   0  0  0  0  0  0  0  0  0  0  0  0
   -1.3356    6.5376    0.0000 C   0  0  0  0  0  0  0  0  0  0  0  0
    0.1316    6.2257    0.0000 C   0  0  0  0  0  0  0  0  0  0  0  0
    1.2463    5.2220    0.0000 C   0  0  0  0  0  0  0  0  0  0  0  0
    2.5043    6.0390    0.0000 C   0  0  0  0  0  0  0  0  0  0  0  0
    3.8409    5.3580    0.0000 C   0  0  0  0  0  0  0  0  0  0  0  0
    1.7099    3.7955    0.0000 C   0  0  0  0  0  0  0  0  0  0  0  0
    3.2078    3.8740    0.0000 O   0  0  0  0  0  0  0  0  0  0  0  0
    1.3980    2.3282    0.0000 O   0  0  0  0  0  0  0  0  0  0  0  0
    0.3943    1.2135    0.0000 C   0  0  0  0  0  0  0  0  0  0  0  0
    1.2760    0.0000    0.0000 C   0  0  0  0  0  0  0  0  0  0  0  0
    0.3943   -1.2135    0.0000 C   0  0  0  0  0  0  0  0  0  0  0  0
   -1.0323   -0.7500    0.0000 N   0  0  0  0  0  0  0  0  0  0  0  0
   -2.4327   -1.2876    0.0000 C   0  0  0  0  0  0  0  0  0  0  0  0
   -3.3766   -0.1218    0.0000 C   0  0  0  0  0  0  0  0  0  0  0  0
   -2.4995    1.0619    0.0000 C   0  0  0  0  0  0  0  0  0  0  0  0
   -3.6142    2.0656    0.0000 C   0  0  0  0  0  0  0  0  0  0  0  0
   -4.0778    3.4921    0.0000 O   0  0  0  0  0  0  0  0  0  0  0  0
   -3.7659    4.9594    0.0000 C   0  0  0  0  0  0  0  0  0  0  0  0
   -5.1024    5.6404    0.0000 O   0  0  0  0  0  0  0  0  0  0  0  0
   -2.7622    6.0741    0.0000 C   0  0  0  0  0  0  0  0  0  0  0  0
   -4.1530    6.6360    0.0000 C   0  0  0  0  0  0  0  0  0  0  0  0
   -2.7098    7.5732    0.0000 O   0  0  0  0  0  0  0  0  0  0  0  0
   -1.0323    0.7500    0.0000 C   0  0  0  0  0  0  0  0  0  0  0  0
  1  2  2  0
  2  3  1  0
  3  4  1  0
  4  5  2  0
  5  6  1  0
  4  7  1  0
  7  8  2  0
  7  9  1  0
  9 10  1  0
 10 11  1  6
 11 12  1  0
 12 13  1  0
 13 14  1  0
 14 15  1  0
 15 16  2  0
 16 17  1  0
 17 18  1  0
 18 19  1  0
 19 20  2  0
 19 21  1  0
 21 22  1  1
 21 23  1  0
 16 24  1  0
 21  2  1  0
 24 10  1  0
 24 13  1  6
M  END
>  <id>  (161) 
SANC00622_minRM1.pdb

>  <SMILES>  (161) 
C=C1C/C(=C/C)C(=O)O[C@@H]2CCN3CC=C(COC(=O)[C@]1(C)O)[C@H]23

>  <warheads>  (161) 
ab_unsat_carbonyl:1

>  <n_warheads>  (161) 
1

>  <max_tier>  (161) 
1

>  <pains_flag>  (161) 


>  <MW>  (161) 
333.4

>  <cLogP>  (161) 
1.11

>  <HBD>  (161) 
1

>  <HBA>  (161) 
6

>  <TPSA>  (161) 
76.1

>  <ArRings>  (161) 
0

$$$$
SANC00623_minRM1.pdb
     RDKit          2D

 24 26  0  0  0  0  0  0  0  0999 V2000
   -1.4141    8.0356    0.0000 C   0  0  0  0  0  0  0  0  0  0  0  0
   -1.3356    6.5376    0.0000 C   0  0  0  0  0  0  0  0  0  0  0  0
    0.1316    6.2257    0.0000 C   0  0  0  0  0  0  0  0  0  0  0  0
    1.2463    5.2220    0.0000 C   0  0  0  0  0  0  0  0  0  0  0  0
    2.5043    6.0390    0.0000 C   0  0  0  0  0  0  0  0  0  0  0  0
    2.4258    7.5370    0.0000 C   0  0  0  0  0  0  0  0  0  0  0  0
    1.7099    3.7955    0.0000 C   0  0  0  0  0  0  0  0  0  0  0  0
    3.2078    3.8740    0.0000 O   0  0  0  0  0  0  0  0  0  0  0  0
    1.3980    2.3282    0.0000 O   0  0  0  0  0  0  0  0  0  0  0  0
    0.3943    1.2135    0.0000 C   0  0  0  0  0  0  0  0  0  0  0  0
    1.2760    0.0000    0.0000 C   0  0  0  0  0  0  0  0  0  0  0  0
    0.3943   -1.2135    0.0000 C   0  0  0  0  0  0  0  0  0  0  0  0
   -1.0323   -0.7500    0.0000 N   0  0  0  0  0  0  0  0  0  0  0  0
   -2.4327   -1.2876    0.0000 C   0  0  0  0  0  0  0  0  0  0  0  0
   -3.3766   -0.1218    0.0000 C   0  0  0  0  0  0  0  0  0  0  0  0
   -2.4995    1.0619    0.0000 C   0  0  0  0  0  0  0  0  0  0  0  0
   -3.6142    2.0656    0.0000 C   0  0  0  0  0  0  0  0  0  0  0  0
   -4.0778    3.4921    0.0000 O   0  0  0  0  0  0  0  0  0  0  0  0
   -3.7659    4.9594    0.0000 C   0  0  0  0  0  0  0  0  0  0  0  0
   -5.1024    5.6404    0.0000 O   0  0  0  0  0  0  0  0  0  0  0  0
   -2.7622    6.0741    0.0000 C   0  0  0  0  0  0  0  0  0  0  0  0
   -4.1530    6.6360    0.0000 C   0  0  0  0  0  0  0  0  0  0  0  0
   -2.7098    7.5732    0.0000 O   0  0  0  0  0  0  0  0  0  0  0  0
   -1.0323    0.7500    0.0000 C   0  0  0  0  0  0  0  0  0  0  0  0
  1  2  2  0
  2  3  1  0
  3  4  1  0
  4  5  2  0
  5  6  1  0
  4  7  1  0
  7  8  2  0
  7  9  1  0
  9 10  1  0
 10 11  1  6
 11 12  1  0
 12 13  1  0
 13 14  1  0
 14 15  1  0
 15 16  2  0
 16 17  1  0
 17 18  1  0
 18 19  1  0
 19 20  2  0
 19 21  1  0
 21 22  1  6
 21 23  1  0
 16 24  1  0
 21  2  1  0
 24 10  1  0
 24 13  1  6
M  END
>  <id>  (162) 
SANC00623_minRM1.pdb

>  <SMILES>  (162) 
C=C1C/C(=C\C)C(=O)O[C@@H]2CCN3CC=C(COC(=O)[C@@]1(C)O)[C@H]23

>  <warheads>  (162) 
ab_unsat_carbonyl:1

>  <n_warheads>  (162) 
1

>  <max_tier>  (162) 
1

>  <pains_flag>  (162) 


>  <MW>  (162) 
333.4

>  <cLogP>  (162) 
1.11

>  <HBD>  (162) 
1

>  <HBA>  (162) 
6

>  <TPSA>  (162) 
76.1

>  <ArRings>  (162) 
0

$$$$
SANC00624_minRM1.pdb
     RDKit          2D

 25 27  0  0  0  0  0  0  0  0999 V2000
    2.4258    7.5370    0.0000 C   0  0  0  0  0  0  0  0  0  0  0  0
    2.5043    6.0390    0.0000 C   0  0  0  0  0  0  0  0  0  0  0  0
    1.2463    5.2220    0.0000 C   0  0  0  0  0  0  0  0  0  0  0  0
    0.1316    6.2257    0.0000 C   0  0  0  0  0  0  0  0  0  0  0  0
   -1.3356    6.5376    0.0000 C   0  0  0  0  0  0  0  0  0  0  0  0
   -1.4141    8.0356    0.0000 C   0  0  0  0  0  0  0  0  0  0  0  0
   -2.7622    6.0741    0.0000 C   0  0  0  0  0  0  0  0  0  0  0  0
   -2.7098    7.5732    0.0000 C   0  0  0  0  0  0  0  0  0  0  0  0
   -4.1530    6.6360    0.0000 O   0  0  0  0  0  0  0  0  0  0  0  0
   -3.7659    4.9594    0.0000 C   0  0  0  0  0  0  0  0  0  0  0  0
   -5.1024    5.6404    0.0000 O   0  0  0  0  0  0  0  0  0  0  0  0
   -4.0778    3.4921    0.0000 O   0  0  0  0  0  0  0  0  0  0  0  0
   -3.6142    2.0656    0.0000 C   0  0  0  0  0  0  0  0  0  0  0  0
   -2.4995    1.0619    0.0000 C   0  0  0  0  0  0  0  0  0  0  0  0
   -1.0323    0.7500    0.0000 C   0  0  0  0  0  0  0  0  0  0  0  0
    0.3943    1.2135    0.0000 C   0  0  0  0  0  0  0  0  0  0  0  0
    1.2760    0.0000    0.0000 C   0  0  0  0  0  0  0  0  0  0  0  0
    0.3943   -1.2135    0.0000 C   0  0  0  0  0  0  0  0  0  0  0  0
   -1.0323   -0.7500    0.0000 N   0  0  0  0  0  0  0  0  0  0  0  0
   -2.4327   -1.2876    0.0000 C   0  0  0  0  0  0  0  0  0  0  0  0
   -3.3766   -0.1218    0.0000 C   0  0  0  0  0  0  0  0  0  0  0  0
   -4.8746   -0.2003    0.0000 O   0  0  0  0  0  0  0  0  0  0  0  0
    1.3980    2.3282    0.0000 O   0  0  0  0  0  0  0  0  0  0  0  0
    1.7099    3.7955    0.0000 C   0  0  0  0  0  0  0  0  0  0  0  0
    3.2078    3.8740    0.0000 O   0  0  0  0  0  0  0  0  0  0  0  0
  1  2  1  0
  2  3  2  0
  3  4  1  0
  4  5  1  0
  5  6  1  6
  5  7  1  0
  7  8  1  1
  7  9  1  0
  7 10  1  0
 10 11  2  0
 10 12  1  0
 12 13  1  0
 14 13  1  6
 14 15  1  0
 15 16  1  0
 16 17  1  6
 17 18  1  0
 18 19  1  0
 19 20  1  0
 20 21  1  0
 21 22  1  1
 16 23  1  0
 23 24  1  0
 24 25  2  0
 24  3  1  0
 21 14  1  0
 15 19  1  6
M  END
>  <id>  (163) 
SANC00624_minRM1.pdb

>  <SMILES>  (163) 
C/C=C1\C[C@@H](C)[C@@](C)(O)C(=O)OC[C@@H]2[C@@H]3[C@@H](CCN3C[C@H]2O)OC1=O

>  <warheads>  (163) 
ab_unsat_carbonyl:1

>  <n_warheads>  (163) 
1

>  <max_tier>  (163) 
1

>  <pains_flag>  (163) 


>  <MW>  (163) 
353.4

>  <cLogP>  (163) 
0.24

>  <HBD>  (163) 
2

>  <HBA>  (163) 
7

>  <TPSA>  (163) 
96.3

>  <ArRings>  (163) 
0

$$$$
SANC00625_minRM1.pdb
     RDKit          2D

 27 29  0  0  0  0  0  0  0  0999 V2000
   -1.4141    8.0356    0.0000 C   0  0  0  0  0  0  0  0  0  0  0  0
   -1.3356    6.5376    0.0000 C   0  0  0  0  0  0  0  0  0  0  0  0
    0.1316    6.2257    0.0000 C   0  0  0  0  0  0  0  0  0  0  0  0
    1.2463    5.2220    0.0000 C   0  0  0  0  0  0  0  0  0  0  0  0
    2.5043    6.0390    0.0000 C   0  0  0  0  0  0  0  0  0  0  0  0
    3.8409    5.3580    0.0000 C   0  0  0  0  0  0  0  0  0  0  0  0
    1.7099    3.7955    0.0000 C   0  0  0  0  0  0  0  0  0  0  0  0
    3.2078    3.8740    0.0000 O   0  0  0  0  0  0  0  0  0  0  0  0
    1.3980    2.3282    0.0000 O   0  0  0  0  0  0  0  0  0  0  0  0
    0.3943    1.2135    0.0000 C   0  0  0  0  0  0  0  0  0  0  0  0
    1.2760    0.0000    0.0000 C   0  0  0  0  0  0  0  0  0  0  0  0
    0.3943   -1.2135    0.0000 C   0  0  0  0  0  0  0  0  0  0  0  0
   -1.0323   -0.7500    0.0000 N   0  0  0  0  0  0  0  0  0  0  0  0
   -2.4327   -1.2876    0.0000 C   0  0  0  0  0  0  0  0  0  0  0  0
   -3.3766   -0.1218    0.0000 C   0  0  0  0  0  0  0  0  0  0  0  0
   -2.4995    1.0619    0.0000 C   0  0  0  0  0  0  0  0  0  0  0  0
   -3.6142    2.0656    0.0000 C   0  0  0  0  0  0  0  0  0  0  0  0
   -4.0778    3.4921    0.0000 O   0  0  0  0  0  0  0  0  0  0  0  0
   -3.7659    4.9594    0.0000 C   0  0  0  0  0  0  0  0  0  0  0  0
   -5.1024    5.6404    0.0000 O   0  0  0  0  0  0  0  0  0  0  0  0
   -2.7622    6.0741    0.0000 C   0  0  0  0  0  0  0  0  0  0  0  0
   -4.1530    6.6360    0.0000 C   0  0  0  0  0  0  0  0  0  0  0  0
   -2.7098    7.5732    0.0000 O   0  0  0  0  0  0  0  0  0  0  0  0
   -3.9819    8.3681    0.0000 C   0  0  0  0  0  0  0  0  0  0  0  0
   -3.9296    9.8671    0.0000 C   0  0  0  0  0  0  0  0  0  0  0  0
   -5.3063    7.6638    0.0000 O   0  0  0  0  0  0  0  0  0  0  0  0
   -1.0323    0.7500    0.0000 C   0  0  0  0  0  0  0  0  0  0  0  0
  1  2  2  0
  2  3  1  0
  3  4  1  0
  4  5  2  0
  5  6  1  0
  4  7  1  0
  7  8  2  0
  7  9  1  0
  9 10  1  0
 10 11  1  6
 11 12  1  0
 12 13  1  0
 13 14  1  0
 14 15  1  0
 15 16  2  0
 16 17  1  0
 17 18  1  0
 18 19  1  0
 19 20  2  0
 19 21  1  0
 21 22  1  1
 21 23  1  0
 23 24  1  0
 24 25  1  0
 24 26  2  0
 16 27  1  0
 21  2  1  0
 27 10  1  0
 27 13  1  6
M  END
>  <id>  (164) 
SANC00625_minRM1.pdb

>  <SMILES>  (164) 
C=C1C/C(=C/C)C(=O)O[C@@H]2CCN3CC=C(COC(=O)[C@]1(C)OC(C)=O)[C@H]23

>  <warheads>  (164) 
ab_unsat_carbonyl:1

>  <n_warheads>  (164) 
1

>  <max_tier>  (164) 
1

>  <pains_flag>  (164) 


>  <MW>  (164) 
375.4

>  <cLogP>  (164) 
1.68

>  <HBD>  (164) 
0

>  <HBA>  (164) 
7

>  <TPSA>  (164) 
82.1

>  <ArRings>  (164) 
0

$$$$
SANC00648_minRM1.pdb
     RDKit          2D

 18 20  0  0  0  0  0  0  0  0999 V2000
   -2.6380    5.6918    0.0000 C   0  0  0  0  0  0  0  0  0  0  0  0
   -2.9499    4.2246    0.0000 C   0  0  0  0  0  0  0  0  0  0  0  0
   -4.3764    3.7611    0.0000 C   0  0  0  0  0  0  0  0  0  0  0  0
   -5.4912    4.7648    0.0000 C   0  0  0  0  0  0  0  0  0  0  0  0
   -4.6883    2.2939    0.0000 C   0  0  0  0  0  0  0  0  0  0  0  0
   -3.5736    1.2902    0.0000 C   0  0  0  0  0  0  0  0  0  0  0  0
   -2.1470    1.7537    0.0000 C   0  0  0  0  0  0  0  0  0  0  0  0
   -2.4589    0.2865    0.0000 C   0  0  0  0  0  0  0  0  0  0  0  0
   -1.8351    3.2209    0.0000 C   0  0  0  0  0  0  0  0  0  0  0  0
   -0.4086    3.6844    0.0000 C   0  0  0  0  0  0  0  0  0  0  0  0
    0.7062    2.6807    0.0000 C   0  0  0  0  0  0  0  0  0  0  0  0
    0.3943    1.2135    0.0000 C   0  0  0  0  0  0  0  0  0  0  0  0
    1.2760    0.0000    0.0000 C   0  0  0  0  0  0  0  0  0  0  0  0
    2.7760    0.0000    0.0000 O   0  0  0  0  0  0  0  0  0  0  0  0
    0.3943   -1.2135    0.0000 O   0  0  0  0  0  0  0  0  0  0  0  0
   -1.0323   -0.7500    0.0000 C   0  0  0  0  0  0  0  0  0  0  0  0
   -1.0323    0.7500    0.0000 C   0  0  0  0  0  0  0  0  0  0  0  0
    0.3380    0.1399    0.0000 O   0  0  0  0  0  0  0  0  0  0  0  0
  1  2  2  0
  2  3  1  0
  3  4  1  6
  3  5  1  0
  5  6  1  0
  6  7  1  0
  7  8  1  6
  7  9  1  0
  9 10  1  6
 10 11  1  0
 11 12  2  0
 12 13  1  0
 13 14  2  0
 13 15  1  0
 15 16  1  0
 16 17  1  0
 17 18  1  1
  9  2  1  0
 17 12  1  0
 17  7  1  0
M  END
>  <id>  (165) 
SANC00648_minRM1.pdb

>  <SMILES>  (165) 
C=C1[C@@H](C)CC[C@@]2(C)[C@H]1CC=C1C(=O)OC[C@@]12O

>  <warheads>  (165) 
ab_unsat_carbonyl:1

>  <n_warheads>  (165) 
1

>  <max_tier>  (165) 
1

>  <pains_flag>  (165) 


>  <MW>  (165) 
248.3

>  <cLogP>  (165) 
2.21

>  <HBD>  (165) 
1

>  <HBA>  (165) 
3

>  <TPSA>  (165) 
46.5

>  <ArRings>  (165) 
0

$$$$
SANC00649_minRM1.pdb
     RDKit          2D

 17 18  0  0  0  0  0  0  0  0999 V2000
    2.6491    0.9642    0.0000 C   0  0  0  0  0  0  0  0  0  0  0  0
    1.5000    0.0000    0.0000 C   0  0  0  0  0  0  0  0  0  0  0  0
    2.6491   -0.9642    0.0000 C   0  0  0  0  0  0  0  0  0  0  0  0
    0.7500   -1.2990    0.0000 C   0  0  0  0  0  0  0  0  0  0  0  0
   -0.7500   -1.2990    0.0000 C   0  0  0  0  0  0  0  0  0  0  0  0
   -1.5000    0.0000    0.0000 C   0  0  0  0  0  0  0  0  0  0  0  0
   -0.7500    1.2990    0.0000 C   0  0  0  0  0  0  0  0  0  0  0  0
   -2.2500    1.2990    0.0000 C   0  0  0  0  0  0  0  0  0  0  0  0
   -1.5000    2.5981    0.0000 C   0  0  0  0  0  0  0  0  0  0  0  0
   -3.0000    2.5981    0.0000 C   0  0  0  0  0  0  0  0  0  0  0  0
   -3.7500    3.8971    0.0000 O   0  0  0  0  0  0  0  0  0  0  0  0
   -0.7500    3.8971    0.0000 C   0  0  0  0  0  0  0  0  0  0  0  0
   -1.5000    5.1962    0.0000 C   0  0  0  0  0  0  0  0  0  0  0  0
   -0.7500    6.4952    0.0000 O   0  0  0  0  0  0  0  0  0  0  0  0
    0.7500    3.8971    0.0000 C   0  0  0  0  0  0  0  0  0  0  0  0
    1.5000    2.5981    0.0000 C   0  0  0  0  0  0  0  0  0  0  0  0
    0.7500    1.2990    0.0000 C   0  0  0  0  0  0  0  0  0  0  0  0
  1  2  1  0
  2  3  1  0
  2  4  1  0
  4  5  1  0
  5  6  1  0
  6  7  1  0
  7  8  1  6
  7  9  1  0
  9 10  1  0
 10 11  2  0
  9 12  2  0
 12 13  1  0
 13 14  2  0
 12 15  1  0
 15 16  1  0
 17 16  1  6
 17  2  1  0
 17  7  1  0
M  END
>  <id>  (166) 
SANC00649_minRM1.pdb

>  <SMILES>  (166) 
CC1(C)CCC[C@@]2(C)C(C=O)=C(C=O)CC[C@H]12

>  <warheads>  (166) 
ab_unsat_carbonyl:2

>  <n_warheads>  (166) 
2

>  <max_tier>  (166) 
1

>  <pains_flag>  (166) 


>  <MW>  (166) 
234.3

>  <cLogP>  (166) 
3.31

>  <HBD>  (166) 
0

>  <HBA>  (166) 
2

>  <TPSA>  (166) 
34.1

>  <ArRings>  (166) 
0

$$$$
SANC00650_minRM1.pdb
     RDKit          2D

 17 18  0  0  0  0  0  0  0  0999 V2000
    2.6491    0.9642    0.0000 C   0  0  0  0  0  0  0  0  0  0  0  0
    1.5000    0.0000    0.0000 C   0  0  0  0  0  0  0  0  0  0  0  0
    2.6491   -0.9642    0.0000 C   0  0  0  0  0  0  0  0  0  0  0  0
    0.7500   -1.2990    0.0000 C   0  0  0  0  0  0  0  0  0  0  0  0
   -0.7500   -1.2990    0.0000 C   0  0  0  0  0  0  0  0  0  0  0  0
   -1.5000    0.0000    0.0000 C   0  0  0  0  0  0  0  0  0  0  0  0
   -0.7500    1.2990    0.0000 C   0  0  0  0  0  0  0  0  0  0  0  0
   -2.2500    1.2990    0.0000 C   0  0  0  0  0  0  0  0  0  0  0  0
   -1.5000    2.5981    0.0000 C   0  0  0  0  0  0  0  0  0  0  0  0
   -3.0000    2.5981    0.0000 C   0  0  0  0  0  0  0  0  0  0  0  0
   -3.7500    3.8971    0.0000 O   0  0  0  0  0  0  0  0  0  0  0  0
   -0.7500    3.8971    0.0000 C   0  0  0  0  0  0  0  0  0  0  0  0
   -1.5000    5.1962    0.0000 C   0  0  0  0  0  0  0  0  0  0  0  0
   -0.7500    6.4952    0.0000 O   0  0  0  0  0  0  0  0  0  0  0  0
    0.7500    3.8971    0.0000 C   0  0  0  0  0  0  0  0  0  0  0  0
    1.5000    2.5981    0.0000 C   0  0  0  0  0  0  0  0  0  0  0  0
    0.7500    1.2990    0.0000 C   0  0  0  0  0  0  0  0  0  0  0  0
  1  2  1  0
  2  3  1  0
  2  4  1  0
  4  5  1  0
  5  6  1  0
  6  7  1  0
  7  8  1  1
  7  9  1  0
  9 10  1  1
 10 11  2  0
  9 12  1  0
 12 13  1  0
 13 14  2  0
 12 15  2  0
 15 16  1  0
 17 16  1  1
 17  2  1  0
 17  7  1  0
M  END
>  <id>  (167) 
SANC00650_minRM1.pdb

>  <SMILES>  (167) 
CC1(C)CCC[C@]2(C)[C@@H](C=O)C(C=O)=CC[C@@H]12

>  <warheads>  (167) 
ab_unsat_carbonyl:1

>  <n_warheads>  (167) 
1

>  <max_tier>  (167) 
1

>  <pains_flag>  (167) 


>  <MW>  (167) 
234.3

>  <cLogP>  (167) 
3.16

>  <HBD>  (167) 
0

>  <HBA>  (167) 
2

>  <TPSA>  (167) 
34.1

>  <ArRings>  (167) 
0

$$$$
SANC00651_minRM1.pdb
     RDKit          2D

 18 19  0  0  0  0  0  0  0  0999 V2000
    2.6491    0.9642    0.0000 C   0  0  0  0  0  0  0  0  0  0  0  0
    1.5000    0.0000    0.0000 C   0  0  0  0  0  0  0  0  0  0  0  0
    2.6491   -0.9642    0.0000 C   0  0  0  0  0  0  0  0  0  0  0  0
    0.7500   -1.2990    0.0000 C   0  0  0  0  0  0  0  0  0  0  0  0
   -0.7500   -1.2990    0.0000 C   0  0  0  0  0  0  0  0  0  0  0  0
   -1.5000    0.0000    0.0000 C   0  0  0  0  0  0  0  0  0  0  0  0
   -0.7500    1.2990    0.0000 C   0  0  0  0  0  0  0  0  0  0  0  0
   -2.2054    0.9361    0.0000 C   0  0  0  0  0  0  0  0  0  0  0  0
    0.7500    1.2990    0.0000 C   0  0  0  0  0  0  0  0  0  0  0  0
    1.5000    2.5981    0.0000 C   0  0  0  0  0  0  0  0  0  0  0  0
    0.7500    3.8971    0.0000 C   0  0  0  0  0  0  0  0  0  0  0  0
   -0.7500    3.8971    0.0000 C   0  0  0  0  0  0  0  0  0  0  0  0
   -1.5000    5.1962    0.0000 C   0  0  0  0  0  0  0  0  0  0  0  0
   -0.7500    6.4952    0.0000 O   0  0  0  0  0  0  0  0  0  0  0  0
   -1.5000    2.5981    0.0000 C   0  0  0  0  0  0  0  0  0  0  0  0
   -2.6491    3.5623    0.0000 O   0  0  0  0  0  0  0  0  0  0  0  0
   -2.6491    1.6339    0.0000 C   0  0  0  0  0  0  0  0  0  0  0  0
   -4.0586    2.1469    0.0000 O   0  0  0  0  0  0  0  0  0  0  0  0
  1  2  1  0
  2  3  1  0
  2  4  1  0
  4  5  1  0
  5  6  1  0
  6  7  1  0
  7  8  1  1
  7  9  1  0
  9 10  1  1
 10 11  1  0
 11 12  2  0
 12 13  1  0
 13 14  2  0
 12 15  1  0
 15 16  1  6
 15 17  1  0
 17 18  2  0
  9  2  1  0
 15  7  1  0
M  END
>  <id>  (168) 
SANC00651_minRM1.pdb

>  <SMILES>  (168) 
CC1(C)CCC[C@@]2(C)[C@H]1CC=C(C=O)[C@]2(O)C=O

>  <warheads>  (168) 
ab_unsat_carbonyl:1

>  <n_warheads>  (168) 
1

>  <max_tier>  (168) 
1

>  <pains_flag>  (168) 


>  <MW>  (168) 
250.3

>  <cLogP>  (168) 
2.28

>  <HBD>  (168) 
1

>  <HBA>  (168) 
3

>  <TPSA>  (168) 
54.4

>  <ArRings>  (168) 
0

$$$$
SANC00652_minRM1.pdb
     RDKit          2D

 19 20  0  0  0  0  0  0  0  0999 V2000
    2.6491    0.9642    0.0000 C   0  0  0  0  0  0  0  0  0  0  0  0
    1.5000    0.0000    0.0000 C   0  0  0  0  0  0  0  0  0  0  0  0
    2.6491   -0.9642    0.0000 C   0  0  0  0  0  0  0  0  0  0  0  0
    0.7500   -1.2990    0.0000 C   0  0  0  0  0  0  0  0  0  0  0  0
   -0.7500   -1.2990    0.0000 C   0  0  0  0  0  0  0  0  0  0  0  0
   -1.5000    0.0000    0.0000 C   0  0  0  0  0  0  0  0  0  0  0  0
   -0.7500    1.2990    0.0000 C   0  0  0  0  0  0  0  0  0  0  0  0
   -2.2054    0.9361    0.0000 C   0  0  0  0  0  0  0  0  0  0  0  0
    0.7500    1.2990    0.0000 C   0  0  0  0  0  0  0  0  0  0  0  0
    1.5000    2.5981    0.0000 C   0  0  0  0  0  0  0  0  0  0  0  0
    3.0000    2.5981    0.0000 O   0  0  0  0  0  0  0  0  0  0  0  0
    0.7500    3.8971    0.0000 C   0  0  0  0  0  0  0  0  0  0  0  0
   -0.7500    3.8971    0.0000 C   0  0  0  0  0  0  0  0  0  0  0  0
   -1.5000    5.1962    0.0000 C   0  0  0  0  0  0  0  0  0  0  0  0
   -0.7500    6.4952    0.0000 O   0  0  0  0  0  0  0  0  0  0  0  0
   -1.5000    2.5981    0.0000 C   0  0  0  0  0  0  0  0  0  0  0  0
   -2.6491    3.5623    0.0000 O   0  0  0  0  0  0  0  0  0  0  0  0
   -2.6491    1.6339    0.0000 C   0  0  0  0  0  0  0  0  0  0  0  0
   -4.0586    2.1469    0.0000 O   0  0  0  0  0  0  0  0  0  0  0  0
  1  2  1  0
  2  3  1  0
  2  4  1  0
  4  5  1  0
  5  6  1  0
  6  7  1  0
  7  8  1  1
  7  9  1  0
  9 10  1  0
 10 11  1  6
 10 12  1  0
 12 13  2  0
 13 14  1  0
 14 15  2  0
 13 16  1  0
 16 17  1  6
 16 18  1  0
 18 19  2  0
  9  2  1  1
 16  7  1  0
M  END
>  <id>  (169) 
SANC00652_minRM1.pdb

>  <SMILES>  (169) 
CC1(C)CCC[C@@]2(C)[C@H]1[C@@H](O)C=C(C=O)[C@]2(O)C=O

>  <warheads>  (169) 
ab_unsat_carbonyl:1

>  <n_warheads>  (169) 
1

>  <max_tier>  (169) 
1

>  <pains_flag>  (169) 


>  <MW>  (169) 
266.3

>  <cLogP>  (169) 
1.25

>  <HBD>  (169) 
2

>  <HBA>  (169) 
4

>  <TPSA>  (169) 
74.6

>  <ArRings>  (169) 
0

$$$$
SANC00657_minRM1.pdb
     RDKit          2D

 20 21  0  0  0  0  0  0  0  0999 V2000
    2.7760    0.0000    0.0000 C   0  0  0  0  0  0  0  0  0  0  0  0
    1.2760    0.0000    0.0000 C   0  0  0  0  0  0  0  0  0  0  0  0
    0.3943    1.2135    0.0000 C   0  0  0  0  0  0  0  0  0  0  0  0
    0.8578    2.6401    0.0000 O   0  0  0  0  0  0  0  0  0  0  0  0
   -1.0323    0.7500    0.0000 O   0  0  0  0  0  0  0  0  0  0  0  0
   -1.0323   -0.7500    0.0000 C   0  0  0  0  0  0  0  0  0  0  0  0
   -2.4589   -1.2135    0.0000 C   0  0  0  0  0  0  0  0  0  0  0  0
   -3.3405   -2.4271    0.0000 C   0  0  0  0  0  0  0  0  0  0  0  0
   -4.7671   -1.9635    0.0000 C   0  0  0  0  0  0  0  0  0  0  0  0
   -5.0790   -0.4963    0.0000 O   0  0  0  0  0  0  0  0  0  0  0  0
   -3.3405   -3.9271    0.0000 C   0  0  0  0  0  0  0  0  0  0  0  0
   -2.4589   -5.1406    0.0000 C   0  0  0  0  0  0  0  0  0  0  0  0
   -1.0323   -5.6041    0.0000 C   0  0  0  0  0  0  0  0  0  0  0  0
    0.3943   -5.1406    0.0000 C   0  0  0  0  0  0  0  0  0  0  0  0
    1.2760   -6.3541    0.0000 C   0  0  0  0  0  0  0  0  0  0  0  0
    0.6659   -7.7244    0.0000 O   0  0  0  0  0  0  0  0  0  0  0  0
    1.2760   -3.9271    0.0000 C   0  0  0  0  0  0  0  0  0  0  0  0
    1.2760   -2.4271    0.0000 C   0  0  0  0  0  0  0  0  0  0  0  0
    2.7026   -1.9635    0.0000 O   0  0  0  0  0  0  0  0  0  0  0  0
    0.3943   -1.2135    0.0000 C   0  0  0  0  0  0  0  0  0  0  0  0
  1  2  2  0
  2  3  1  0
  3  4  2  0
  3  5  1  0
  6  5  1  1
  6  7  1  0
  7  8  2  0
  8  9  1  0
  9 10  1  0
  8 11  1  0
 11 12  1  0
 12 13  1  0
 13 14  2  0
 14 15  1  0
 15 16  2  0
 14 17  1  0
 17 18  1  0
 18 19  1  1
 18 20  1  0
 20  2  1  6
 20  6  1  0
M  END
>  <id>  (170) 
SANC00657_minRM1.pdb

>  <SMILES>  (170) 
C=C1C(=O)O[C@@H]2/C=C(/CO)CC/C=C(/C=O)C[C@H](O)[C@@H]12

>  <warheads>  (170) 
ab_unsat_carbonyl:2;exo_methylene_carbonyl:1

>  <n_warheads>  (170) 
3

>  <max_tier>  (170) 
1

>  <pains_flag>  (170) 


>  <MW>  (170) 
278.3

>  <cLogP>  (170) 
0.67

>  <HBD>  (170) 
2

>  <HBA>  (170) 
5

>  <TPSA>  (170) 
83.8

>  <ArRings>  (170) 
0

$$$$
SANC00658_minRM1.pdb
     RDKit          2D

 20 21  0  0  0  0  0  0  0  0999 V2000
    2.7760    0.0000    0.0000 C   0  0  0  0  0  0  0  0  0  0  0  0
    1.2760    0.0000    0.0000 C   0  0  0  0  0  0  0  0  0  0  0  0
    0.3943    1.2135    0.0000 C   0  0  0  0  0  0  0  0  0  0  0  0
    0.8578    2.6401    0.0000 O   0  0  0  0  0  0  0  0  0  0  0  0
   -1.0323    0.7500    0.0000 O   0  0  0  0  0  0  0  0  0  0  0  0
   -1.0323   -0.7500    0.0000 C   0  0  0  0  0  0  0  0  0  0  0  0
   -1.9140   -1.9635    0.0000 C   0  0  0  0  0  0  0  0  0  0  0  0
   -3.3405   -2.4271    0.0000 C   0  0  0  0  0  0  0  0  0  0  0  0
   -4.7671   -1.9635    0.0000 C   0  0  0  0  0  0  0  0  0  0  0  0
   -5.0790   -0.4963    0.0000 O   0  0  0  0  0  0  0  0  0  0  0  0
   -3.3405   -3.9271    0.0000 C   0  0  0  0  0  0  0  0  0  0  0  0
   -2.4589   -5.1406    0.0000 C   0  0  0  0  0  0  0  0  0  0  0  0
   -1.0323   -5.6041    0.0000 C   0  0  0  0  0  0  0  0  0  0  0  0
    0.3943   -5.1406    0.0000 C   0  0  0  0  0  0  0  0  0  0  0  0
    1.2760   -6.3541    0.0000 C   0  0  0  0  0  0  0  0  0  0  0  0
    0.6659   -7.7244    0.0000 O   0  0  0  0  0  0  0  0  0  0  0  0
    1.2760   -3.9271    0.0000 C   0  0  0  0  0  0  0  0  0  0  0  0
    1.2760   -2.4271    0.0000 C   0  0  0  0  0  0  0  0  0  0  0  0
    2.7026   -1.9635    0.0000 O   0  0  0  0  0  0  0  0  0  0  0  0
    0.3943   -1.2135    0.0000 C   0  0  0  0  0  0  0  0  0  0  0  0
  2  1  1  1
  2  3  1  0
  3  4  2  0
  3  5  1  0
  6  5  1  1
  6  7  1  0
  7  8  2  0
  8  9  1  0
  9 10  1  0
  8 11  1  0
 11 12  1  0
 12 13  1  0
 13 14  2  0
 14 15  1  0
 15 16  2  0
 14 17  1  0
 17 18  1  0
 18 19  1  1
 20 18  1  6
 20  2  1  0
 20  6  1  0
M  END
>  <id>  (171) 
SANC00658_minRM1.pdb

>  <SMILES>  (171) 
C[C@@H]1C(=O)O[C@@H]2/C=C(\CO)CC/C=C(/C=O)C[C@H](O)[C@@H]12

>  <warheads>  (171) 
ab_unsat_carbonyl:1

>  <n_warheads>  (171) 
1

>  <max_tier>  (171) 
1

>  <pains_flag>  (171) 


>  <MW>  (171) 
280.3

>  <cLogP>  (171) 
0.75

>  <HBD>  (171) 
2

>  <HBA>  (171) 
5

>  <TPSA>  (171) 
83.8

>  <ArRings>  (171) 
0

$$$$
SANC00659_minRM1.pdb
     RDKit          2D

 25 26  0  0  0  0  0  0  0  0999 V2000
    0.3318   -4.9484    0.0000 C   0  0  0  0  0  0  0  0  0  0  0  0
    1.2135   -3.7348    0.0000 C   0  0  0  0  0  0  0  0  0  0  0  0
    2.7135   -3.7348    0.0000 C   0  0  0  0  0  0  0  0  0  0  0  0
    3.5952   -4.9484    0.0000 O   0  0  0  0  0  0  0  0  0  0  0  0
    3.1771   -2.3083    0.0000 O   0  0  0  0  0  0  0  0  0  0  0  0
    1.9635   -1.4266    0.0000 C   0  0  0  0  0  0  0  0  0  0  0  0
    2.4271    0.0000    0.0000 C   0  0  0  0  0  0  0  0  0  0  0  0
    1.9635    1.4266    0.0000 C   0  0  0  0  0  0  0  0  0  0  0  0
    3.1771    2.3083    0.0000 C   0  0  0  0  0  0  0  0  0  0  0  0
    4.5474    1.6982    0.0000 O   0  0  0  0  0  0  0  0  0  0  0  0
    5.7609    2.5798    0.0000 C   0  0  0  0  0  0  0  0  0  0  0  0
    7.1312    1.9697    0.0000 C   0  0  0  0  0  0  0  0  0  0  0  0
    5.6041    4.0716    0.0000 O   0  0  0  0  0  0  0  0  0  0  0  0
    0.7500    2.3083    0.0000 C   0  0  0  0  0  0  0  0  0  0  0  0
   -0.7500    2.3083    0.0000 C   0  0  0  0  0  0  0  0  0  0  0  0
   -1.9635    1.4266    0.0000 C   0  0  0  0  0  0  0  0  0  0  0  0
   -2.4271    0.0000    0.0000 C   0  0  0  0  0  0  0  0  0  0  0  0
   -3.9271    0.0000    0.0000 C   0  0  0  0  0  0  0  0  0  0  0  0
   -4.6771    1.2990    0.0000 O   0  0  0  0  0  0  0  0  0  0  0  0
   -6.1771    1.2990    0.0000 C   0  0  0  0  0  0  0  0  0  0  0  0
   -6.9271    2.5981    0.0000 C   0  0  0  0  0  0  0  0  0  0  0  0
   -6.9271    0.0000    0.0000 O   0  0  0  0  0  0  0  0  0  0  0  0
   -1.9635   -1.4266    0.0000 C   0  0  0  0  0  0  0  0  0  0  0  0
   -0.7500   -2.3083    0.0000 C   0  0  0  0  0  0  0  0  0  0  0  0
    0.7500   -2.3083    0.0000 C   0  0  0  0  0  0  0  0  0  0  0  0
  1  2  2  0
  2  3  1  0
  3  4  2  0
  3  5  1  0
  6  5  1  1
  6  7  1  0
  7  8  2  0
  8  9  1  0
  9 10  1  0
 10 11  1  0
 11 12  1  0
 11 13  2  0
  8 14  1  0
 14 15  1  0
 15 16  1  0
 16 17  2  0
 17 18  1  0
 18 19  1  0
 19 20  1  0
 20 21  1  0
 20 22  2  0
 17 23  1  0
 23 24  1  0
 25 24  1  6
 25  2  1  0
 25  6  1  0
M  END
>  <id>  (172) 
SANC00659_minRM1.pdb

>  <SMILES>  (172) 
C=C1C(=O)O[C@@H]2/C=C(/COC(C)=O)CC/C=C(/COC(C)=O)CC[C@@H]12

>  <warheads>  (172) 
ab_unsat_carbonyl:1;exo_methylene_carbonyl:1

>  <n_warheads>  (172) 
2

>  <max_tier>  (172) 
1

>  <pains_flag>  (172) 


>  <MW>  (172) 
348.4

>  <cLogP>  (172) 
2.64

>  <HBD>  (172) 
0

>  <HBA>  (172) 
6

>  <TPSA>  (172) 
78.9

>  <ArRings>  (172) 
0

$$$$
SANC00660_minRM1.pdb
     RDKit          2D

 22 23  0  0  0  0  0  0  0  0999 V2000
    0.3318   -4.9484    0.0000 C   0  0  0  0  0  0  0  0  0  0  0  0
    1.2135   -3.7348    0.0000 C   0  0  0  0  0  0  0  0  0  0  0  0
    2.7135   -3.7348    0.0000 C   0  0  0  0  0  0  0  0  0  0  0  0
    3.5952   -4.9484    0.0000 O   0  0  0  0  0  0  0  0  0  0  0  0
    3.1771   -2.3083    0.0000 O   0  0  0  0  0  0  0  0  0  0  0  0
    1.9635   -1.4266    0.0000 C   0  0  0  0  0  0  0  0  0  0  0  0
    2.4271    0.0000    0.0000 C   0  0  0  0  0  0  0  0  0  0  0  0
    1.9635    1.4266    0.0000 C   0  0  0  0  0  0  0  0  0  0  0  0
    3.1771    2.3083    0.0000 C   0  0  0  0  0  0  0  0  0  0  0  0
    4.5474    1.6982    0.0000 O   0  0  0  0  0  0  0  0  0  0  0  0
    0.7500    2.3083    0.0000 C   0  0  0  0  0  0  0  0  0  0  0  0
   -0.7500    2.3083    0.0000 C   0  0  0  0  0  0  0  0  0  0  0  0
   -1.9635    1.4266    0.0000 C   0  0  0  0  0  0  0  0  0  0  0  0
   -2.4271    0.0000    0.0000 C   0  0  0  0  0  0  0  0  0  0  0  0
   -3.9271    0.0000    0.0000 C   0  0  0  0  0  0  0  0  0  0  0  0
   -4.6771    1.2990    0.0000 O   0  0  0  0  0  0  0  0  0  0  0  0
   -6.1771    1.2990    0.0000 C   0  0  0  0  0  0  0  0  0  0  0  0
   -6.9271    2.5981    0.0000 C   0  0  0  0  0  0  0  0  0  0  0  0
   -6.9271    0.0000    0.0000 O   0  0  0  0  0  0  0  0  0  0  0  0
   -1.9635   -1.4266    0.0000 C   0  0  0  0  0  0  0  0  0  0  0  0
   -0.7500   -2.3083    0.0000 C   0  0  0  0  0  0  0  0  0  0  0  0
    0.7500   -2.3083    0.0000 C   0  0  0  0  0  0  0  0  0  0  0  0
  1  2  2  0
  2  3  1  0
  3  4  2  0
  3  5  1  0
  6  5  1  1
  6  7  1  0
  7  8  2  0
  8  9  1  0
  9 10  1  0
  8 11  1  0
 11 12  1  0
 12 13  1  0
 13 14  2  0
 14 15  1  0
 15 16  1  0
 16 17  1  0
 17 18  1  0
 17 19  2  0
 14 20  1  0
 20 21  1  0
 22 21  1  6
 22  2  1  0
 22  6  1  0
M  END
>  <id>  (173) 
SANC00660_minRM1.pdb

>  <SMILES>  (173) 
C=C1C(=O)O[C@@H]2/C=C(/CO)CC/C=C(/COC(C)=O)CC[C@@H]12

>  <warheads>  (173) 
ab_unsat_carbonyl:1;exo_methylene_carbonyl:1

>  <n_warheads>  (173) 
2

>  <max_tier>  (173) 
1

>  <pains_flag>  (173) 


>  <MW>  (173) 
306.4

>  <cLogP>  (173) 
2.07

>  <HBD>  (173) 
1

>  <HBA>  (173) 
5

>  <TPSA>  (173) 
72.8

>  <ArRings>  (173) 
0

$$$$
SANC00661_minRM1.pdb
     RDKit          2D

 22 23  0  0  0  0  0  0  0  0999 V2000
    0.3318   -4.9484    0.0000 C   0  0  0  0  0  0  0  0  0  0  0  0
    1.2135   -3.7348    0.0000 C   0  0  0  0  0  0  0  0  0  0  0  0
    2.7135   -3.7348    0.0000 C   0  0  0  0  0  0  0  0  0  0  0  0
    3.5952   -4.9484    0.0000 O   0  0  0  0  0  0  0  0  0  0  0  0
    3.1771   -2.3083    0.0000 O   0  0  0  0  0  0  0  0  0  0  0  0
    1.9635   -1.4266    0.0000 C   0  0  0  0  0  0  0  0  0  0  0  0
    2.4271    0.0000    0.0000 C   0  0  0  0  0  0  0  0  0  0  0  0
    1.9635    1.4266    0.0000 C   0  0  0  0  0  0  0  0  0  0  0  0
    3.1771    2.3083    0.0000 C   0  0  0  0  0  0  0  0  0  0  0  0
    4.5474    1.6982    0.0000 O   0  0  0  0  0  0  0  0  0  0  0  0
    5.7609    2.5798    0.0000 C   0  0  0  0  0  0  0  0  0  0  0  0
    7.1312    1.9697    0.0000 C   0  0  0  0  0  0  0  0  0  0  0  0
    5.6041    4.0716    0.0000 O   0  0  0  0  0  0  0  0  0  0  0  0
    0.7500    2.3083    0.0000 C   0  0  0  0  0  0  0  0  0  0  0  0
   -0.7500    2.3083    0.0000 C   0  0  0  0  0  0  0  0  0  0  0  0
   -1.9635    1.4266    0.0000 C   0  0  0  0  0  0  0  0  0  0  0  0
   -2.4271    0.0000    0.0000 C   0  0  0  0  0  0  0  0  0  0  0  0
   -3.9271    0.0000    0.0000 C   0  0  0  0  0  0  0  0  0  0  0  0
   -4.6771    1.2990    0.0000 O   0  0  0  0  0  0  0  0  0  0  0  0
   -1.9635   -1.4266    0.0000 C   0  0  0  0  0  0  0  0  0  0  0  0
   -0.7500   -2.3083    0.0000 C   0  0  0  0  0  0  0  0  0  0  0  0
    0.7500   -2.3083    0.0000 C   0  0  0  0  0  0  0  0  0  0  0  0
  1  2  2  0
  2  3  1  0
  3  4  2  0
  3  5  1  0
  6  5  1  1
  6  7  1  0
  7  8  2  0
  8  9  1  0
  9 10  1  0
 10 11  1  0
 11 12  1  0
 11 13  2  0
  8 14  1  0
 14 15  1  0
 15 16  1  0
 16 17  2  0
 17 18  1  0
 18 19  2  0
 17 20  1  0
 20 21  1  0
 22 21  1  6
 22  2  1  0
 22  6  1  0
M  END
>  <id>  (174) 
SANC00661_minRM1.pdb

>  <SMILES>  (174) 
C=C1C(=O)O[C@@H]2/C=C(/COC(C)=O)CC/C=C(/C=O)CC[C@@H]12

>  <warheads>  (174) 
ab_unsat_carbonyl:2;exo_methylene_carbonyl:1

>  <n_warheads>  (174) 
3

>  <max_tier>  (174) 
1

>  <pains_flag>  (174) 


>  <MW>  (174) 
304.3

>  <cLogP>  (174) 
2.27

>  <HBD>  (174) 
0

>  <HBA>  (174) 
5

>  <TPSA>  (174) 
69.7

>  <ArRings>  (174) 
0

$$$$
SANC00662_minRM1.pdb
     RDKit          2D

 19 20  0  0  0  0  0  0  0  0999 V2000
    0.3318   -4.9484    0.0000 C   0  0  0  0  0  0  0  0  0  0  0  0
    1.2135   -3.7348    0.0000 C   0  0  0  0  0  0  0  0  0  0  0  0
    2.7135   -3.7348    0.0000 C   0  0  0  0  0  0  0  0  0  0  0  0
    3.5952   -4.9484    0.0000 O   0  0  0  0  0  0  0  0  0  0  0  0
    3.1771   -2.3083    0.0000 O   0  0  0  0  0  0  0  0  0  0  0  0
    1.9635   -1.4266    0.0000 C   0  0  0  0  0  0  0  0  0  0  0  0
    2.4271    0.0000    0.0000 C   0  0  0  0  0  0  0  0  0  0  0  0
    1.9635    1.4266    0.0000 C   0  0  0  0  0  0  0  0  0  0  0  0
    3.1771    2.3083    0.0000 C   0  0  0  0  0  0  0  0  0  0  0  0
    4.5474    1.6982    0.0000 O   0  0  0  0  0  0  0  0  0  0  0  0
    0.7500    2.3083    0.0000 C   0  0  0  0  0  0  0  0  0  0  0  0
   -0.7500    2.3083    0.0000 C   0  0  0  0  0  0  0  0  0  0  0  0
   -1.9635    1.4266    0.0000 C   0  0  0  0  0  0  0  0  0  0  0  0
   -2.4271    0.0000    0.0000 C   0  0  0  0  0  0  0  0  0  0  0  0
   -3.9271    0.0000    0.0000 C   0  0  0  0  0  0  0  0  0  0  0  0
   -4.6771    1.2990    0.0000 O   0  0  0  0  0  0  0  0  0  0  0  0
   -1.9635   -1.4266    0.0000 C   0  0  0  0  0  0  0  0  0  0  0  0
   -0.7500   -2.3083    0.0000 C   0  0  0  0  0  0  0  0  0  0  0  0
    0.7500   -2.3083    0.0000 C   0  0  0  0  0  0  0  0  0  0  0  0
  1  2  2  0
  2  3  1  0
  3  4  2  0
  3  5  1  0
  6  5  1  1
  6  7  1  0
  7  8  2  0
  8  9  1  0
  9 10  1  0
  8 11  1  0
 11 12  1  0
 12 13  1  0
 13 14  2  0
 14 15  1  0
 15 16  2  0
 14 17  1  0
 17 18  1  0
 19 18  1  6
 19  2  1  0
 19  6  1  0
M  END
>  <id>  (175) 
SANC00662_minRM1.pdb

>  <SMILES>  (175) 
C=C1C(=O)O[C@@H]2/C=C(/CO)CC/C=C(/C=O)CC[C@@H]12

>  <warheads>  (175) 
ab_unsat_carbonyl:2;exo_methylene_carbonyl:1

>  <n_warheads>  (175) 
3

>  <max_tier>  (175) 
1

>  <pains_flag>  (175) 


>  <MW>  (175) 
262.3

>  <cLogP>  (175) 
1.7

>  <HBD>  (175) 
1

>  <HBA>  (175) 
4

>  <TPSA>  (175) 
63.6

>  <ArRings>  (175) 
0

$$$$
SANC00691_minRM1.pdb
     RDKit          2D

 21 24  0  0  0  0  0  0  0  0999 V2000
    2.2350    6.2990    0.0000 C   0  0  0  0  0  0  0  0  0  0  0  0
    0.8647    5.6889    0.0000 C   0  0  0  0  0  0  0  0  0  0  0  0
    0.7079    4.1971    0.0000 C   0  0  0  0  0  0  0  0  0  0  0  0
    1.9214    3.3154    0.0000 C   0  0  0  0  0  0  0  0  0  0  0  0
    1.7646    1.8236    0.0000 C   0  0  0  0  0  0  0  0  0  0  0  0
    0.3943    1.2135    0.0000 C   0  0  0  0  0  0  0  0  0  0  0  0
    1.2760    0.0000    0.0000 C   0  0  0  0  0  0  0  0  0  0  0  0
    0.3943   -1.2135    0.0000 C   0  0  0  0  0  0  0  0  0  0  0  0
   -1.0323   -0.7500    0.0000 C   0  0  0  0  0  0  0  0  0  0  0  0
   -2.2458   -1.6317    0.0000 C   0  0  0  0  0  0  0  0  0  0  0  0
   -2.3463   -0.0067    0.0000 C   0  0  0  0  0  0  0  0  0  0  0  0
   -2.1895    1.4851    0.0000 C   0  0  0  0  0  0  0  0  0  0  0  0
   -0.8192    2.0952    0.0000 C   0  0  0  0  0  0  0  0  0  0  0  0
   -0.6624    3.5870    0.0000 C   0  0  0  0  0  0  0  0  0  0  0  0
   -2.0328    2.9769    0.0000 C   0  0  0  0  0  0  0  0  0  0  0  0
   -1.8760    4.4687    0.0000 C   0  0  0  0  0  0  0  0  0  0  0  0
   -1.7192    5.9604    0.0000 C   0  0  0  0  0  0  0  0  0  0  0  0
   -2.9327    6.8421    0.0000 O   0  0  0  0  0  0  0  0  0  0  0  0
   -0.3488    6.5706    0.0000 C   0  0  0  0  0  0  0  0  0  0  0  0
   -0.1921    8.0623    0.0000 O   0  0  0  0  0  0  0  0  0  0  0  0
   -1.0323    0.7500    0.0000 C   0  0  0  0  0  0  0  0  0  0  0  0
  1  2  1  0
  2  3  2  0
  3  4  1  0
  4  5  1  0
  6  5  1  6
  6  7  1  0
  7  8  2  0
  8  9  1  0
  9 10  1  6
  9 11  1  0
 11 12  1  0
 13 12  1  1
 13 14  1  0
 14 15  1  1
 14 16  1  0
 16 17  2  0
 17 18  1  0
 17 19  1  0
 19 20  2  0
  9 21  1  0
 19  2  1  0
 14  3  1  0
 13  6  1  0
 21  6  1  0
M  END
>  <id>  (176) 
SANC00691_minRM1.pdb

>  <SMILES>  (176) 
CC1=C2CC[C@@]34C=C[C@@](C)(CC[C@H]3[C@]2(C)C=C(O)C1=O)C4

>  <warheads>  (176) 
ab_unsat_carbonyl:2

>  <n_warheads>  (176) 
2

>  <max_tier>  (176) 
1

>  <pains_flag>  (176) 


>  <MW>  (176) 
284.4

>  <cLogP>  (176) 
4.49

>  <HBD>  (176) 
1

>  <HBA>  (176) 
2

>  <TPSA>  (176) 
37.3

>  <ArRings>  (176) 
0

$$$$
SANC00697_minRM1.pdb
     RDKit          2D

 24 25  0  0  0  0  0  0  0  0999 V2000
    2.3472   -4.4995    0.0000 C   0  0  0  0  0  0  0  0  0  0  0  0
    2.6810   -3.0371    0.0000 C   0  0  0  0  0  0  0  0  0  0  0  0
    4.0324   -2.3863    0.0000 C   0  0  0  0  0  0  0  0  0  0  0  0
    5.5324   -2.3863    0.0000 C   0  0  0  0  0  0  0  0  0  0  0  0
    6.4677   -1.2135    0.0000 C   0  0  0  0  0  0  0  0  0  0  0  0
    6.8015    0.2489    0.0000 C   0  0  0  0  0  0  0  0  0  0  0  0
    8.0408   -0.5961    0.0000 C   0  0  0  0  0  0  0  0  0  0  0  0
    8.0408    1.0938    0.0000 O   0  0  0  0  0  0  0  0  0  0  0  0
    6.4677    1.7113    0.0000 C   0  0  0  0  0  0  0  0  0  0  0  0
    5.1162    2.3621    0.0000 C   0  0  0  0  0  0  0  0  0  0  0  0
    4.1810    3.5348    0.0000 C   0  0  0  0  0  0  0  0  0  0  0  0
    4.2931    5.0306    0.0000 O   0  0  0  0  0  0  0  0  0  0  0  0
    5.6143    3.9770    0.0000 C   0  0  0  0  0  0  0  0  0  0  0  0
    5.9481    5.4394    0.0000 C   0  0  0  0  0  0  0  0  0  0  0  0
    6.7139    2.9567    0.0000 C   0  0  0  0  0  0  0  0  0  0  0  0
    2.6810    3.5348    0.0000 C   0  0  0  0  0  0  0  0  0  0  0  0
    1.3295    2.8840    0.0000 C   0  0  0  0  0  0  0  0  0  0  0  0
    0.3943    1.2135    0.0000 C   0  0  0  0  0  0  0  0  0  0  0  0
    1.2760    0.0000    0.0000 C   0  0  0  0  0  0  0  0  0  0  0  0
    0.3943   -1.2135    0.0000 C   0  0  0  0  0  0  0  0  0  0  0  0
    1.3295   -2.3863    0.0000 C   0  0  0  0  0  0  0  0  0  0  0  0
   -1.0323   -0.7500    0.0000 O   0  0  0  0  0  0  0  0  0  0  0  0
   -1.0323    0.7500    0.0000 C   0  0  0  0  0  0  0  0  0  0  0  0
   -2.2458    1.6317    0.0000 O   0  0  0  0  0  0  0  0  0  0  0  0
  1  2  1  0
  2  3  2  0
  3  4  1  0
  4  5  1  0
  5  6  1  0
  6  7  1  6
  6  8  1  0
  6  9  1  0
  9 10  2  0
 10 11  1  0
 11 12  1  1
 11 13  1  0
 13 14  1  0
 13 15  1  0
 11 16  1  0
 16 17  1  0
 17 18  1  0
 18 19  2  0
 19 20  1  0
 20 21  1  6
 20 22  1  0
 22 23  1  0
 23 24  2  0
 21  2  1  0
 23 18  1  0
M  END
>  <id>  (177) 
SANC00697_minRM1.pdb

>  <SMILES>  (177) 
C/C1=C\CC[C@](C)(O)/C=C/[C@@](O)(C(C)C)CCC2=C[C@H](C1)OC2=O

>  <warheads>  (177) 
ab_unsat_carbonyl:1

>  <n_warheads>  (177) 
1

>  <max_tier>  (177) 
1

>  <pains_flag>  (177) 


>  <MW>  (177) 
334.5

>  <cLogP>  (177) 
3.44

>  <HBD>  (177) 
2

>  <HBA>  (177) 
4

>  <TPSA>  (177) 
66.8

>  <ArRings>  (177) 
0

$$$$
SANC00698_minRM1.pdb
     RDKit          2D

 25 26  0  0  0  0  0  0  0  0999 V2000
    2.3472    4.9972    0.0000 C   0  0  0  0  0  0  0  0  0  0  0  0
    2.6810    3.5348    0.0000 C   0  0  0  0  0  0  0  0  0  0  0  0
    1.3295    2.8840    0.0000 C   0  0  0  0  0  0  0  0  0  0  0  0
    0.3943    1.2135    0.0000 C   0  0  0  0  0  0  0  0  0  0  0  0
    1.2760    0.0000    0.0000 C   0  0  0  0  0  0  0  0  0  0  0  0
    0.3943   -1.2135    0.0000 C   0  0  0  0  0  0  0  0  0  0  0  0
    1.3295   -2.3863    0.0000 C   0  0  0  0  0  0  0  0  0  0  0  0
    2.6810   -3.0371    0.0000 C   0  0  0  0  0  0  0  0  0  0  0  0
    4.1810   -3.0371    0.0000 C   0  0  0  0  0  0  0  0  0  0  0  0
    5.2806   -4.0574    0.0000 O   0  0  0  0  0  0  0  0  0  0  0  0
    3.6330   -4.4334    0.0000 C   0  0  0  0  0  0  0  0  0  0  0  0
    4.5682   -5.6062    0.0000 C   0  0  0  0  0  0  0  0  0  0  0  0
    2.1497   -4.6570    0.0000 C   0  0  0  0  0  0  0  0  0  0  0  0
    5.5324   -2.3863    0.0000 C   0  0  0  0  0  0  0  0  0  0  0  0
    5.8662   -0.9239    0.0000 C   0  0  0  0  0  0  0  0  0  0  0  0
    6.8015    0.2489    0.0000 C   0  0  0  0  0  0  0  0  0  0  0  0
    7.5515   -1.0502    0.0000 C   0  0  0  0  0  0  0  0  0  0  0  0
    8.2847    0.4724    0.0000 O   0  0  0  0  0  0  0  0  0  0  0  0
    6.4677    1.7113    0.0000 C   0  0  0  0  0  0  0  0  0  0  0  0
    5.5324    2.8840    0.0000 C   0  0  0  0  0  0  0  0  0  0  0  0
    4.1810    3.5348    0.0000 C   0  0  0  0  0  0  0  0  0  0  0  0
    4.5148    4.9972    0.0000 O   0  0  0  0  0  0  0  0  0  0  0  0
   -1.0323   -0.7500    0.0000 C   0  0  0  0  0  0  0  0  0  0  0  0
   -2.2458   -1.6317    0.0000 O   0  0  0  0  0  0  0  0  0  0  0  0
   -1.0323    0.7500    0.0000 O   0  0  0  0  0  0  0  0  0  0  0  0
  1  2  2  0
  2  3  1  0
  4  3  1  1
  4  5  1  0
  5  6  2  0
  6  7  1  0
  7  8  1  0
  8  9  1  0
  9 10  1  6
  9 11  1  0
 11 12  1  0
 11 13  1  0
  9 14  1  0
 14 15  2  0
 15 16  1  0
 16 17  1  1
 16 18  1  0
 16 19  1  0
 19 20  1  0
 20 21  1  0
 21 22  1  6
  6 23  1  0
 23 24  2  0
 23 25  1  0
 21  2  1  0
 25  4  1  0
M  END
>  <id>  (178) 
SANC00698_minRM1.pdb

>  <SMILES>  (178) 
C=C1C[C@H]2C=C(CC[C@](O)(C(C)C)/C=C/[C@@](C)(O)CC[C@H]1O)C(=O)O2

>  <warheads>  (178) 
ab_unsat_carbonyl:1

>  <n_warheads>  (178) 
1

>  <max_tier>  (178) 
1

>  <pains_flag>  (178) 


>  <MW>  (178) 
350.5

>  <cLogP>  (178) 
2.41

>  <HBD>  (178) 
3

>  <HBA>  (178) 
5

>  <TPSA>  (178) 
87.0

>  <ArRings>  (178) 
0

$$$$
SANC00699_minRM1.pdb
     RDKit          2D

 25 26  0  0  0  0  0  0  0  0999 V2000
    4.5682   -5.6062    0.0000 C   0  0  0  0  0  0  0  0  0  0  0  0
    3.6330   -4.4334    0.0000 C   0  0  0  0  0  0  0  0  0  0  0  0
    2.1497   -4.6570    0.0000 C   0  0  0  0  0  0  0  0  0  0  0  0
    4.1810   -3.0371    0.0000 C   0  0  0  0  0  0  0  0  0  0  0  0
    5.2806   -4.0574    0.0000 O   0  0  0  0  0  0  0  0  0  0  0  0
    5.5324   -2.3863    0.0000 C   0  0  0  0  0  0  0  0  0  0  0  0
    5.8662   -0.9239    0.0000 C   0  0  0  0  0  0  0  0  0  0  0  0
    6.8015    0.2489    0.0000 C   0  0  0  0  0  0  0  0  0  0  0  0
    7.5515   -1.0502    0.0000 C   0  0  0  0  0  0  0  0  0  0  0  0
    8.2847    0.4724    0.0000 O   0  0  0  0  0  0  0  0  0  0  0  0
    6.4677    1.7113    0.0000 C   0  0  0  0  0  0  0  0  0  0  0  0
    5.5324    2.8840    0.0000 C   0  0  0  0  0  0  0  0  0  0  0  0
    4.0324    2.8840    0.0000 C   0  0  0  0  0  0  0  0  0  0  0  0
    2.6810    3.5348    0.0000 C   0  0  0  0  0  0  0  0  0  0  0  0
    3.7806    4.5551    0.0000 C   0  0  0  0  0  0  0  0  0  0  0  0
    2.1330    4.9311    0.0000 O   0  0  0  0  0  0  0  0  0  0  0  0
    1.3295    2.8840    0.0000 C   0  0  0  0  0  0  0  0  0  0  0  0
    0.3943    1.2135    0.0000 C   0  0  0  0  0  0  0  0  0  0  0  0
    1.2760    0.0000    0.0000 C   0  0  0  0  0  0  0  0  0  0  0  0
    0.3943   -1.2135    0.0000 C   0  0  0  0  0  0  0  0  0  0  0  0
    1.3295   -2.3863    0.0000 C   0  0  0  0  0  0  0  0  0  0  0  0
    2.6810   -3.0371    0.0000 C   0  0  0  0  0  0  0  0  0  0  0  0
   -1.0323   -0.7500    0.0000 C   0  0  0  0  0  0  0  0  0  0  0  0
   -2.2458   -1.6317    0.0000 O   0  0  0  0  0  0  0  0  0  0  0  0
   -1.0323    0.7500    0.0000 O   0  0  0  0  0  0  0  0  0  0  0  0
  1  2  1  0
  2  3  1  0
  2  4  1  0
  4  5  1  6
  4  6  1  0
  6  7  2  0
  7  8  1  0
  8  9  1  6
  8 10  1  0
  8 11  1  0
 11 12  1  0
 12 13  2  0
 13 14  1  0
 14 15  1  6
 14 16  1  0
 14 17  1  0
 18 17  1  1
 18 19  1  0
 19 20  2  0
 20 21  1  0
 21 22  1  0
 20 23  1  0
 23 24  2  0
 23 25  1  0
 22  4  1  0
 25 18  1  0
M  END
>  <id>  (179) 
SANC00699_minRM1.pdb

>  <SMILES>  (179) 
CC(C)[C@]1(O)/C=C/[C@](C)(O)C/C=C/[C@](C)(O)C[C@H]2C=C(CC1)C(=O)O2

>  <warheads>  (179) 
ab_unsat_carbonyl:1

>  <n_warheads>  (179) 
1

>  <max_tier>  (179) 
1

>  <pains_flag>  (179) 


>  <MW>  (179) 
350.5

>  <cLogP>  (179) 
2.41

>  <HBD>  (179) 
3

>  <HBA>  (179) 
5

>  <TPSA>  (179) 
87.0

>  <ArRings>  (179) 
0

$$$$
SANC00701_minRM1.pdb
     RDKit          2D

 22 23  0  0  0  0  0  0  0  0999 V2000
    8.3015    0.2489    0.0000 C   0  0  0  0  0  0  0  0  0  0  0  0
    6.8015    0.2489    0.0000 C   0  0  0  0  0  0  0  0  0  0  0  0
    6.4677    1.7113    0.0000 C   0  0  0  0  0  0  0  0  0  0  0  0
    5.5324    2.8840    0.0000 C   0  0  0  0  0  0  0  0  0  0  0  0
    4.1810    3.5348    0.0000 C   0  0  0  0  0  0  0  0  0  0  0  0
    2.8295    2.8840    0.0000 C   0  0  0  0  0  0  0  0  0  0  0  0
    3.1633    1.4216    0.0000 C   0  0  0  0  0  0  0  0  0  0  0  0
    1.3295    2.8840    0.0000 C   0  0  0  0  0  0  0  0  0  0  0  0
    0.3943    1.2135    0.0000 C   0  0  0  0  0  0  0  0  0  0  0  0
    1.2760    0.0000    0.0000 C   0  0  0  0  0  0  0  0  0  0  0  0
    0.3943   -1.2135    0.0000 C   0  0  0  0  0  0  0  0  0  0  0  0
    1.3295   -2.3863    0.0000 C   0  0  0  0  0  0  0  0  0  0  0  0
    2.6810   -3.0371    0.0000 C   0  0  0  0  0  0  0  0  0  0  0  0
    4.1810   -3.0371    0.0000 C   0  0  0  0  0  0  0  0  0  0  0  0
    4.5148   -4.4995    0.0000 C   0  0  0  0  0  0  0  0  0  0  0  0
    3.4152   -5.5197    0.0000 C   0  0  0  0  0  0  0  0  0  0  0  0
    5.9481   -4.9416    0.0000 C   0  0  0  0  0  0  0  0  0  0  0  0
    5.5324   -2.3863    0.0000 C   0  0  0  0  0  0  0  0  0  0  0  0
    6.4677   -1.2135    0.0000 C   0  0  0  0  0  0  0  0  0  0  0  0
   -1.0323   -0.7500    0.0000 C   0  0  0  0  0  0  0  0  0  0  0  0
   -2.2458   -1.6317    0.0000 O   0  0  0  0  0  0  0  0  0  0  0  0
   -1.0323    0.7500    0.0000 O   0  0  0  0  0  0  0  0  0  0  0  0
  1  2  1  0
  2  3  2  0
  3  4  1  0
  4  5  1  0
  5  6  2  0
  6  7  1  0
  6  8  1  0
  9  8  1  1
  9 10  1  0
 10 11  2  0
 11 12  1  0
 12 13  1  0
 13 14  1  0
 14 15  1  1
 15 16  1  0
 15 17  1  0
 14 18  1  0
 18 19  2  0
 11 20  1  0
 20 21  2  0
 20 22  1  0
 19  2  1  0
 22  9  1  0
M  END
>  <id>  (180) 
SANC00701_minRM1.pdb

>  <SMILES>  (180) 
CC1=C/C/C=C(\C)C[C@H]2C=C(CC[C@H](C(C)C)/C=C\1)C(=O)O2

>  <warheads>  (180) 
ab_unsat_carbonyl:1

>  <n_warheads>  (180) 
1

>  <max_tier>  (180) 
1

>  <pains_flag>  (180) 


>  <MW>  (180) 
300.4

>  <cLogP>  (180) 
5.13

>  <HBD>  (180) 
0

>  <HBA>  (180) 
2

>  <TPSA>  (180) 
26.3

>  <ArRings>  (180) 
0

$$$$
SANC00702_minRM1.pdb
     RDKit          2D

 23 24  0  0  0  0  0  0  0  0999 V2000
    2.3472   -4.4995    0.0000 C   0  0  0  0  0  0  0  0  0  0  0  0
    2.6810   -3.0371    0.0000 C   0  0  0  0  0  0  0  0  0  0  0  0
    4.0324   -2.3863    0.0000 C   0  0  0  0  0  0  0  0  0  0  0  0
    5.5324   -2.3863    0.0000 C   0  0  0  0  0  0  0  0  0  0  0  0
    6.4677   -1.2135    0.0000 C   0  0  0  0  0  0  0  0  0  0  0  0
    6.8015    0.2489    0.0000 C   0  0  0  0  0  0  0  0  0  0  0  0
    8.0408   -0.5961    0.0000 C   0  0  0  0  0  0  0  0  0  0  0  0
    8.0408    1.0938    0.0000 O   0  0  0  0  0  0  0  0  0  0  0  0
    6.4677    1.7113    0.0000 C   0  0  0  0  0  0  0  0  0  0  0  0
    5.1162    2.3621    0.0000 C   0  0  0  0  0  0  0  0  0  0  0  0
    4.1810    3.5348    0.0000 C   0  0  0  0  0  0  0  0  0  0  0  0
    5.1162    4.7076    0.0000 C   0  0  0  0  0  0  0  0  0  0  0  0
    4.5682    6.1039    0.0000 C   0  0  0  0  0  0  0  0  0  0  0  0
    6.5995    4.4840    0.0000 C   0  0  0  0  0  0  0  0  0  0  0  0
    2.6810    3.5348    0.0000 C   0  0  0  0  0  0  0  0  0  0  0  0
    1.3295    2.8840    0.0000 C   0  0  0  0  0  0  0  0  0  0  0  0
    0.3943    1.2135    0.0000 C   0  0  0  0  0  0  0  0  0  0  0  0
    1.2760    0.0000    0.0000 C   0  0  0  0  0  0  0  0  0  0  0  0
    0.3943   -1.2135    0.0000 C   0  0  0  0  0  0  0  0  0  0  0  0
    1.3295   -2.3863    0.0000 C   0  0  0  0  0  0  0  0  0  0  0  0
   -1.0323   -0.7500    0.0000 O   0  0  0  0  0  0  0  0  0  0  0  0
   -1.0323    0.7500    0.0000 C   0  0  0  0  0  0  0  0  0  0  0  0
   -2.2458    1.6317    0.0000 O   0  0  0  0  0  0  0  0  0  0  0  0
  1  2  1  0
  2  3  2  0
  3  4  1  0
  4  5  1  0
  5  6  1  0
  6  7  1  6
  6  8  1  0
  6  9  1  0
  9 10  2  0
 10 11  1  0
 11 12  1  6
 12 13  1  0
 12 14  1  0
 11 15  1  0
 15 16  1  0
 16 17  1  0
 17 18  2  0
 18 19  1  0
 19 20  1  6
 19 21  1  0
 21 22  1  0
 22 23  2  0
 20  2  1  0
 22 17  1  0
M  END
>  <id>  (181) 
SANC00702_minRM1.pdb

>  <SMILES>  (181) 
C/C1=C\CC[C@](C)(O)/C=C/[C@@H](C(C)C)CCC2=C[C@H](C1)OC2=O

>  <warheads>  (181) 
ab_unsat_carbonyl:1

>  <n_warheads>  (181) 
1

>  <max_tier>  (181) 
1

>  <pains_flag>  (181) 


>  <MW>  (181) 
318.5

>  <cLogP>  (181) 
4.33

>  <HBD>  (181) 
1

>  <HBA>  (181) 
3

>  <TPSA>  (181) 
46.5

>  <ArRings>  (181) 
0

$$$$
SANC00703_minRM1.pdb
     RDKit          2D

 30 33  0  0  0  0  0  0  0  0999 V2000
  -11.0874   -5.0022    0.0000 C   0  0  0  0  0  0  0  0  0  0  0  0
   -9.9727   -6.0059    0.0000 C   0  0  0  0  0  0  0  0  0  0  0  0
   -8.5461   -5.5424    0.0000 C   0  0  0  0  0  0  0  0  0  0  0  0
   -7.4314   -6.5461    0.0000 C   0  0  0  0  0  0  0  0  0  0  0  0
   -6.0048   -6.0826    0.0000 C   0  0  0  0  0  0  0  0  0  0  0  0
   -4.8901   -7.0863    0.0000 C   0  0  0  0  0  0  0  0  0  0  0  0
   -5.2020   -8.5535    0.0000 C   0  0  0  0  0  0  0  0  0  0  0  0
   -3.4635   -6.6227    0.0000 C   0  0  0  0  0  0  0  0  0  0  0  0
   -2.2500   -7.5044    0.0000 C   0  0  0  0  0  0  0  0  0  0  0  0
   -1.0365   -6.6227    0.0000 C   0  0  0  0  0  0  0  0  0  0  0  0
   -1.5000   -5.1962    0.0000 C   0  0  0  0  0  0  0  0  0  0  0  0
   -0.7500   -3.8971    0.0000 C   0  0  0  0  0  0  0  0  0  0  0  0
    0.7500   -3.8971    0.0000 C   0  0  0  0  0  0  0  0  0  0  0  0
    1.5000   -2.5981    0.0000 C   0  0  0  0  0  0  0  0  0  0  0  0
    0.7500   -1.2990    0.0000 C   0  0  0  0  0  0  0  0  0  0  0  0
    1.5000    0.0000    0.0000 C   0  0  0  0  0  0  0  0  0  0  0  0
    0.7500    1.2990    0.0000 C   0  0  0  0  0  0  0  0  0  0  0  0
    1.5000    2.5981    0.0000 O   0  0  0  0  0  0  0  0  0  0  0  0
   -0.7500    1.2990    0.0000 C   0  0  0  0  0  0  0  0  0  0  0  0
   -1.5000    0.0000    0.0000 C   0  0  0  0  0  0  0  0  0  0  0  0
   -0.7500   -1.2990    0.0000 C   0  0  0  0  0  0  0  0  0  0  0  0
   -2.2500   -1.2990    0.0000 C   0  0  0  0  0  0  0  0  0  0  0  0
   -1.5000   -2.5981    0.0000 C   0  0  0  0  0  0  0  0  0  0  0  0
   -3.0000   -2.5981    0.0000 C   0  0  0  0  0  0  0  0  0  0  0  0
   -3.7500   -3.8971    0.0000 C   0  0  0  0  0  0  0  0  0  0  0  0
   -3.0000   -5.1962    0.0000 C   0  0  0  0  0  0  0  0  0  0  0  0
   -4.4918   -5.3529    0.0000 C   0  0  0  0  0  0  0  0  0  0  0  0
   -8.2343   -4.0752    0.0000 C   0  0  0  0  0  0  0  0  0  0  0  0
   -9.3490   -3.0715    0.0000 C   0  0  0  0  0  0  0  0  0  0  0  0
   -6.8077   -3.6116    0.0000 C   0  0  0  0  0  0  0  0  0  0  0  0
  1  2  1  0
  3  2  1  1
  3  4  1  0
  4  5  2  0
  5  6  1  0
  6  7  1  6
  6  8  1  0
  8  9  1  6
  9 10  1  0
 11 10  1  6
 11 12  1  0
 12 13  1  1
 13 14  1  0
 14 15  1  0
 15 16  2  0
 16 17  1  0
 17 18  2  0
 17 19  1  0
 19 20  1  0
 20 21  1  0
 21 22  1  6
 21 23  1  0
 23 24  1  6
 24 25  1  0
 25 26  1  0
 26 27  1  6
  3 28  1  0
 28 29  1  0
 28 30  1  0
 26  8  1  0
 26 11  1  0
 23 12  1  0
 21 15  1  0
M  END
>  <id>  (182) 
SANC00703_minRM1.pdb

>  <SMILES>  (182) 
CC[C@H](/C=C/[C@@H](C)[C@H]1CC[C@H]2[C@@H]3CCC4=CC(=O)CC[C@]4(C)[C@H]3CC[C@]12C)C(C)C

>  <warheads>  (182) 
ab_unsat_carbonyl:1

>  <n_warheads>  (182) 
1

>  <max_tier>  (182) 
1

>  <pains_flag>  (182) 


>  <MW>  (182) 
410.7

>  <cLogP>  (182) 
8.01

>  <HBD>  (182) 
0

>  <HBA>  (182) 
1

>  <TPSA>  (182) 
17.1

>  <ArRings>  (182) 
0

$$$$
SANC00706_minRM1.pdb
     RDKit          2D

 38 39  0  0  0  0  0  0  0  0999 V2000
   -5.8051   -5.5834    0.0000 C   0  0  0  0  0  0  0  0  0  0  0  0
   -4.3786   -5.1199    0.0000 N   0  0  0  0  0  0  0  0  0  0  0  0
   -4.0667   -3.6527    0.0000 C   0  0  0  0  0  0  0  0  0  0  0  0
   -5.1814   -2.6490    0.0000 C   0  0  0  0  0  0  0  0  0  0  0  0
   -4.8695   -1.1818    0.0000 O   0  0  0  0  0  0  0  0  0  0  0  0
   -6.6080   -3.1125    0.0000 N   0  0  0  0  0  0  0  0  0  0  0  0
   -7.7227   -2.1088    0.0000 C   0  0  0  0  0  0  0  0  0  0  0  0
   -7.4108   -0.6416    0.0000 C   0  0  0  0  0  0  0  0  0  0  0  0
   -5.9843   -0.1781    0.0000 O   0  0  0  0  0  0  0  0  0  0  0  0
   -8.5256    0.3621    0.0000 N   0  0  0  0  0  0  0  0  0  0  0  0
   -8.2137    1.8293    0.0000 C   0  0  0  0  0  0  0  0  0  0  0  0
   -9.9521   -0.1014    0.0000 C   0  0  0  0  0  0  0  0  0  0  0  0
  -10.2640   -1.5686    0.0000 C   0  0  0  0  0  0  0  0  0  0  0  0
  -11.6906   -2.0322    0.0000 C   0  0  0  0  0  0  0  0  0  0  0  0
  -12.8053   -1.0285    0.0000 C   0  0  0  0  0  0  0  0  0  0  0  0
  -12.0025   -3.4994    0.0000 C   0  0  0  0  0  0  0  0  0  0  0  0
  -10.8878   -4.5031    0.0000 O   0  0  0  0  0  0  0  0  0  0  0  0
  -13.4291   -3.9629    0.0000 O   0  0  0  0  0  0  0  0  0  0  0  0
  -11.0669    0.9023    0.0000 C   0  0  0  0  0  0  0  0  0  0  0  0
  -12.4935    0.4388    0.0000 C   0  0  0  0  0  0  0  0  0  0  0  0
  -10.7550    2.3695    0.0000 C   0  0  0  0  0  0  0  0  0  0  0  0
   -9.1493   -2.5723    0.0000 C   0  0  0  0  0  0  0  0  0  0  0  0
   -9.6128   -1.1457    0.0000 C   0  0  0  0  0  0  0  0  0  0  0  0
   -8.6858   -3.9989    0.0000 C   0  0  0  0  0  0  0  0  0  0  0  0
  -10.5759   -3.0359    0.0000 C   0  0  0  0  0  0  0  0  0  0  0  0
   -2.6401   -3.1891    0.0000 C   0  0  0  0  0  0  0  0  0  0  0  0
   -3.1036   -1.7626    0.0000 C   0  0  0  0  0  0  0  0  0  0  0  0
   -2.1766   -4.6157    0.0000 C   0  0  0  0  0  0  0  0  0  0  0  0
   -1.2135   -2.7256    0.0000 C   0  0  0  0  0  0  0  0  0  0  0  0
   -0.0000   -3.6073    0.0000 C   0  0  0  0  0  0  0  0  0  0  0  0
    1.2135   -2.7256    0.0000 N   0  0  0  0  0  0  0  0  0  0  0  0
    2.6401   -3.1891    0.0000 C   0  0  0  0  0  0  0  0  0  0  0  0
    0.7500   -1.2990    0.0000 C   0  0  0  0  0  0  0  0  0  0  0  0
    1.5000    0.0000    0.0000 C   0  0  0  0  0  0  0  0  0  0  0  0
    0.7500    1.2990    0.0000 C   0  0  0  0  0  0  0  0  0  0  0  0
   -0.7500    1.2990    0.0000 C   0  0  0  0  0  0  0  0  0  0  0  0
   -1.5000    0.0000    0.0000 C   0  0  0  0  0  0  0  0  0  0  0  0
   -0.7500   -1.2990    0.0000 C   0  0  0  0  0  0  0  0  0  0  0  0
  1  2  1  0
  3  2  1  6
  3  4  1  0
  4  5  2  0
  4  6  1  0
  7  6  1  1
  7  8  1  0
  8  9  2  0
  8 10  1  0
 10 11  1  0
 10 12  1  0
 12 13  1  0
 13 14  2  0
 14 15  1  0
 14 16  1  0
 16 17  2  0
 16 18  1  0
 12 19  1  6
 19 20  1  0
 19 21  1  0
  7 22  1  0
 22 23  1  0
 22 24  1  0
 22 25  1  0
  3 26  1  0
 26 27  1  0
 26 28  1  0
 26 29  1  0
 29 30  2  0
 30 31  1  0
 31 32  1  0
 31 33  1  0
 33 34  2  0
 34 35  1  0
 35 36  2  0
 36 37  1  0
 37 38  2  0
 38 29  1  0
 38 33  1  0
M  END
>  <id>  (183) 
SANC00706_minRM1.pdb

>  <SMILES>  (183) 
CN[C@H](C(=O)N[C@H](C(=O)N(C)[C@H](/C=C(\C)C(=O)O)C(C)C)C(C)(C)C)C(C)(C)c1cn(C)c2ccccc12

>  <warheads>  (183) 
ab_unsat_carbonyl:1

>  <n_warheads>  (183) 
1

>  <max_tier>  (183) 
1

>  <pains_flag>  (183) 


>  <MW>  (183) 
526.7

>  <cLogP>  (183) 
4.09

>  <HBD>  (183) 
3

>  <HBA>  (183) 
4

>  <TPSA>  (183) 
103.7

>  <ArRings>  (183) 
2

$$$$
SANC00711_minRM1.pdb
     RDKit          2D

 39 42  0  0  0  0  0  0  0  0999 V2000
    5.2500   -1.2990    0.0000 C   0  0  0  0  0  0  0  0  0  0  0  0
    3.7500   -1.2990    0.0000 C   0  0  0  0  0  0  0  0  0  0  0  0
    3.0000   -2.5981    0.0000 O   0  0  0  0  0  0  0  0  0  0  0  0
    3.0000    0.0000    0.0000 C   0  0  0  0  0  0  0  0  0  0  0  0
    1.5000    0.0000    0.0000 C   0  0  0  0  0  0  0  0  0  0  0  0
    0.7500   -1.2990    0.0000 C   0  0  0  0  0  0  0  0  0  0  0  0
   -0.7500   -1.2990    0.0000 C   0  0  0  0  0  0  0  0  0  0  0  0
   -1.5000   -2.5981    0.0000 O   0  0  0  0  0  0  0  0  0  0  0  0
   -1.5000    0.0000    0.0000 C   0  0  0  0  0  0  0  0  0  0  0  0
   -3.0000    0.0000    0.0000 C   0  0  0  0  0  0  0  0  0  0  0  0
   -3.7500   -1.2990    0.0000 C   0  0  0  0  0  0  0  0  0  0  0  0
   -3.7500    1.2990    0.0000 C   0  0  0  0  0  0  0  0  0  0  0  0
   -3.0000    2.5981    0.0000 C   0  0  0  0  0  0  0  0  0  0  0  0
   -3.7500    3.8971    0.0000 O   0  0  0  0  0  0  0  0  0  0  0  0
   -1.5000    2.5981    0.0000 C   0  0  0  0  0  0  0  0  0  0  0  0
   -0.7500    3.8971    0.0000 C   0  0  0  0  0  0  0  0  0  0  0  0
    0.7500    3.8971    0.0000 O   0  0  0  0  0  0  0  0  0  0  0  0
    1.5000    5.1962    0.0000 C   0  0  0  0  0  0  0  0  0  0  0  0
    3.0000    5.1962    0.0000 C   0  0  0  0  0  0  0  0  0  0  0  0
    3.7500    3.8971    0.0000 O   0  0  0  0  0  0  0  0  0  0  0  0
    0.7500    6.4952    0.0000 C   0  0  0  0  0  0  0  0  0  0  0  0
    1.5000    7.7942    0.0000 O   0  0  0  0  0  0  0  0  0  0  0  0
   -0.7500    6.4952    0.0000 C   0  0  0  0  0  0  0  0  0  0  0  0
   -1.5000    7.7942    0.0000 O   0  0  0  0  0  0  0  0  0  0  0  0
   -1.5000    5.1962    0.0000 C   0  0  0  0  0  0  0  0  0  0  0  0
   -3.0000    5.1962    0.0000 O   0  0  0  0  0  0  0  0  0  0  0  0
   -3.7500    6.4952    0.0000 C   0  0  0  0  0  0  0  0  0  0  0  0
   -3.0000    7.7942    0.0000 O   0  0  0  0  0  0  0  0  0  0  0  0
   -5.2500    6.4952    0.0000 C   0  0  0  0  0  0  0  0  0  0  0  0
   -6.0000    7.7942    0.0000 C   0  0  0  0  0  0  0  0  0  0  0  0
   -7.5000    7.7942    0.0000 C   0  0  0  0  0  0  0  0  0  0  0  0
   -8.2500    9.0933    0.0000 C   0  0  0  0  0  0  0  0  0  0  0  0
   -9.7500    9.0933    0.0000 C   0  0  0  0  0  0  0  0  0  0  0  0
  -10.5000    7.7942    0.0000 C   0  0  0  0  0  0  0  0  0  0  0  0
  -12.0000    7.7942    0.0000 O   0  0  0  0  0  0  0  0  0  0  0  0
   -9.7500    6.4952    0.0000 C   0  0  0  0  0  0  0  0  0  0  0  0
   -8.2500    6.4952    0.0000 C   0  0  0  0  0  0  0  0  0  0  0  0
   -0.7500    1.2990    0.0000 C   0  0  0  0  0  0  0  0  0  0  0  0
    0.7500    1.2990    0.0000 O   0  0  0  0  0  0  0  0  0  0  0  0
  1  2  1  0
  2  3  2  0
  2  4  1  0
  4  5  1  0
  5  6  2  0
  6  7  1  0
  7  8  2  0
  7  9  1  0
  9 10  2  0
 10 11  1  0
 10 12  1  0
 12 13  2  0
 13 14  1  0
 13 15  1  0
 16 15  1  1
 16 17  1  0
 17 18  1  0
 18 19  1  1
 19 20  1  0
 18 21  1  0
 21 22  1  6
 21 23  1  0
 23 24  1  1
 23 25  1  0
 25 26  1  6
 26 27  1  0
 27 28  2  0
 27 29  1  0
 29 30  2  0
 30 31  1  0
 31 32  2  0
 32 33  1  0
 33 34  2  0
 34 35  1  0
 34 36  1  0
 36 37  2  0
 15 38  2  0
 38 39  1  0
 39  5  1  0
 38  9  1  0
 25 16  1  0
 37 31  1  0
M  END
>  <id>  (184) 
SANC00711_minRM1.pdb

>  <SMILES>  (184) 
CC(=O)Cc1cc(=O)c2c(C)cc(O)c([C@@H]3O[C@H](CO)[C@@H](O)[C@H](O)[C@H]3OC(=O)/C=C/c3ccc(O)cc3)c2o1

>  <warheads>  (184) 
ab_unsat_carbonyl:1

>  <n_warheads>  (184) 
1

>  <max_tier>  (184) 
1

>  <pains_flag>  (184) 


>  <MW>  (184) 
540.5

>  <cLogP>  (184) 
1.42

>  <HBD>  (184) 
5

>  <HBA>  (184) 
11

>  <TPSA>  (184) 
184.0

>  <ArRings>  (184) 
3

$$$$
SANC00714_minRM1.pdb
     RDKit          2D

 41 46  0  0  0  0  0  0  0  0999 V2000
  -11.4246    0.7500    0.0000 C   0  0  0  0  0  0  0  0  0  0  0  0
  -11.4246   -0.7500    0.0000 C   0  0  0  0  0  0  0  0  0  0  0  0
  -10.1256   -1.5000    0.0000 O   0  0  0  0  0  0  0  0  0  0  0  0
  -10.1256   -3.0000    0.0000 C   0  0  0  0  0  0  0  0  0  0  0  0
   -8.8265   -3.7500    0.0000 O   0  0  0  0  0  0  0  0  0  0  0  0
   -7.5275   -3.0000    0.0000 C   0  0  0  0  0  0  0  0  0  0  0  0
   -7.5275   -1.5000    0.0000 C   0  0  0  0  0  0  0  0  0  0  0  0
   -6.2284   -0.7500    0.0000 C   0  0  0  0  0  0  0  0  0  0  0  0
   -6.3256    0.0412    0.0000 O   0  0  0  0  0  0  0  0  0  0  0  0
   -4.9294   -1.5000    0.0000 C   0  0  0  0  0  0  0  0  0  0  0  0
   -4.9294   -0.0000    0.0000 C   0  0  0  0  0  0  0  0  0  0  0  0
   -5.5660    0.4798    0.0000 O   0  0  0  0  0  0  0  0  0  0  0  0
   -3.6304   -0.7500    0.0000 C   0  0  0  0  0  0  0  0  0  0  0  0
   -3.6304    0.7500    0.0000 C   0  0  0  0  0  0  0  0  0  0  0  0
   -4.9294    1.5000    0.0000 O   0  0  0  0  0  0  0  0  0  0  0  0
   -2.3313    1.5000    0.0000 C   0  0  0  0  0  0  0  0  0  0  0  0
   -1.0323    0.7500    0.0000 C   0  0  0  0  0  0  0  0  0  0  0  0
   -0.8755    2.2418    0.0000 C   0  0  0  0  0  0  0  0  0  0  0  0
    0.3943    1.2135    0.0000 C   0  0  0  0  0  0  0  0  0  0  0  0
    0.8578    2.6401    0.0000 C   0  0  0  0  0  0  0  0  0  0  0  0
   -0.0239    3.8536    0.0000 C   0  0  0  0  0  0  0  0  0  0  0  0
    0.8578    5.0672    0.0000 C   0  0  0  0  0  0  0  0  0  0  0  0
    0.3943    6.4937    0.0000 O   0  0  0  0  0  0  0  0  0  0  0  0
    2.2844    4.6036    0.0000 O   0  0  0  0  0  0  0  0  0  0  0  0
    2.2844    3.1036    0.0000 C   0  0  0  0  0  0  0  0  0  0  0  0
    1.2760    0.0000    0.0000 C   0  0  0  0  0  0  0  0  0  0  0  0
    0.3943   -1.2135    0.0000 C   0  0  0  0  0  0  0  0  0  0  0  0
   -1.0323   -0.7500    0.0000 C   0  0  0  0  0  0  0  0  0  0  0  0
   -0.8755   -2.2418    0.0000 O   0  0  0  0  0  0  0  0  0  0  0  0
   -2.3313   -1.5000    0.0000 C   0  0  0  0  0  0  0  0  0  0  0  0
   -2.3313   -3.0000    0.0000 C   0  0  0  0  0  0  0  0  0  0  0  0
   -3.6304   -3.7500    0.0000 C   0  0  0  0  0  0  0  0  0  0  0  0
   -4.9294   -3.0000    0.0000 C   0  0  0  0  0  0  0  0  0  0  0  0
   -4.9294   -4.5000    0.0000 O   0  0  0  0  0  0  0  0  0  0  0  0
   -6.2284   -3.7500    0.0000 C   0  0  0  0  0  0  0  0  0  0  0  0
  -11.4246   -3.7500    0.0000 C   0  0  0  0  0  0  0  0  0  0  0  0
  -11.4246   -5.2500    0.0000 O   0  0  0  0  0  0  0  0  0  0  0  0
  -12.7236   -3.0000    0.0000 C   0  0  0  0  0  0  0  0  0  0  0  0
  -14.0227   -3.7500    0.0000 O   0  0  0  0  0  0  0  0  0  0  0  0
  -12.7236   -1.5000    0.0000 C   0  0  0  0  0  0  0  0  0  0  0  0
  -14.0227   -0.7500    0.0000 O   0  0  0  0  0  0  0  0  0  0  0  0
  2  1  1  6
  2  3  1  0
  3  4  1  0
  4  5  1  1
  6  5  1  1
  6  7  1  0
  7  8  1  0
  8  9  1  1
  8 10  1  0
 10 11  1  1
 11 12  1  0
 10 13  1  0
 13 14  1  1
 14 15  1  6
 14 16  1  0
 16 17  1  0
 17 18  1  1
 17 19  1  0
 19 20  1  1
 20 21  2  0
 21 22  1  0
 22 23  2  0
 22 24  1  0
 24 25  1  0
 19 26  1  0
 26 27  1  0
 27 28  1  0
 28 29  1  1
 28 30  1  0
 30 31  1  6
 31 32  1  0
 32 33  1  0
 33 34  1  1
 33 35  1  0
  4 36  1  0
 36 37  1  6
 36 38  1  0
 38 39  1  6
 38 40  1  0
 40 41  1  1
 40  2  1  0
 35  6  1  0
 33 10  1  0
 30 13  1  0
 28 17  1  0
 25 20  1  0
M  END
>  <id>  (185) 
SANC00714_minRM1.pdb

>  <SMILES>  (185) 
C[C@@H]1O[C@@H](O[C@H]2C[C@@H](O)[C@]3(CO)[C@H]4[C@H](O)C[C@]5(C)[C@@H](C6=CC(=O)OC6)CC[C@]5(O)[C@@H]4CC[C@]3(O)C2)[C@H](O)[C@H](O)[C@H]1O

>  <warheads>  (185) 
ab_unsat_carbonyl:1

>  <n_warheads>  (185) 
1

>  <max_tier>  (185) 
1

>  <pains_flag>  (185) 


>  <MW>  (185) 
584.7

>  <cLogP>  (185) 
-1.51

>  <HBD>  (185) 
8

>  <HBA>  (185) 
12

>  <TPSA>  (185) 
206.6

>  <ArRings>  (185) 
0

$$$$
SANC00715_minRM1.pdb
     RDKit          2D

 39 44  0  0  0  0  0  0  0  0999 V2000
  -10.1256    1.5000    0.0000 C   0  0  0  0  0  0  0  0  0  0  0  0
  -11.4246    0.7500    0.0000 O   0  0  0  0  0  0  0  0  0  0  0  0
  -11.4246   -0.7500    0.0000 C   0  0  0  0  0  0  0  0  0  0  0  0
  -10.1256   -1.5000    0.0000 C   0  0  0  0  0  0  0  0  0  0  0  0
   -8.8265   -0.7500    0.0000 O   0  0  0  0  0  0  0  0  0  0  0  0
  -10.1256   -3.0000    0.0000 C   0  0  0  0  0  0  0  0  0  0  0  0
   -8.8265   -3.7500    0.0000 O   0  0  0  0  0  0  0  0  0  0  0  0
   -7.5275   -3.0000    0.0000 C   0  0  0  0  0  0  0  0  0  0  0  0
   -6.2284   -3.7500    0.0000 C   0  0  0  0  0  0  0  0  0  0  0  0
   -4.9294   -3.0000    0.0000 C   0  0  0  0  0  0  0  0  0  0  0  0
   -3.6304   -3.7500    0.0000 C   0  0  0  0  0  0  0  0  0  0  0  0
   -2.3313   -3.0000    0.0000 C   0  0  0  0  0  0  0  0  0  0  0  0
   -2.3313   -1.5000    0.0000 C   0  0  0  0  0  0  0  0  0  0  0  0
   -3.6304   -0.7500    0.0000 C   0  0  0  0  0  0  0  0  0  0  0  0
   -3.6304    0.7500    0.0000 C   0  0  0  0  0  0  0  0  0  0  0  0
   -2.3313    1.5000    0.0000 C   0  0  0  0  0  0  0  0  0  0  0  0
   -1.0323    0.7500    0.0000 C   0  0  0  0  0  0  0  0  0  0  0  0
   -0.8755    2.2418    0.0000 C   0  0  0  0  0  0  0  0  0  0  0  0
    0.3943    1.2135    0.0000 C   0  0  0  0  0  0  0  0  0  0  0  0
    0.8578    2.6401    0.0000 C   0  0  0  0  0  0  0  0  0  0  0  0
   -0.0239    3.8536    0.0000 C   0  0  0  0  0  0  0  0  0  0  0  0
    0.8578    5.0672    0.0000 C   0  0  0  0  0  0  0  0  0  0  0  0
    0.3943    6.4937    0.0000 O   0  0  0  0  0  0  0  0  0  0  0  0
    2.2844    4.6036    0.0000 O   0  0  0  0  0  0  0  0  0  0  0  0
    2.2844    3.1036    0.0000 C   0  0  0  0  0  0  0  0  0  0  0  0
    1.2760    0.0000    0.0000 C   0  0  0  0  0  0  0  0  0  0  0  0
    0.3943   -1.2135    0.0000 C   0  0  0  0  0  0  0  0  0  0  0  0
   -1.0323   -0.7500    0.0000 C   0  0  0  0  0  0  0  0  0  0  0  0
   -0.8755   -2.2418    0.0000 O   0  0  0  0  0  0  0  0  0  0  0  0
   -4.9294   -1.5000    0.0000 C   0  0  0  0  0  0  0  0  0  0  0  0
   -4.9294   -0.0000    0.0000 C   0  0  0  0  0  0  0  0  0  0  0  0
   -6.2284   -0.7500    0.0000 C   0  0  0  0  0  0  0  0  0  0  0  0
   -6.2284    0.7500    0.0000 O   0  0  0  0  0  0  0  0  0  0  0  0
   -7.5275   -1.5000    0.0000 C   0  0  0  0  0  0  0  0  0  0  0  0
  -11.4246   -3.7500    0.0000 O   0  0  0  0  0  0  0  0  0  0  0  0
  -12.7236   -3.0000    0.0000 C   0  0  0  0  0  0  0  0  0  0  0  0
  -14.0227   -3.7500    0.0000 C   0  0  0  0  0  0  0  0  0  0  0  0
  -12.7236   -1.5000    0.0000 C   0  0  0  0  0  0  0  0  0  0  0  0
  -14.0227   -0.7500    0.0000 O   0  0  0  0  0  0  0  0  0  0  0  0
  1  2  1  0
  3  2  1  6
  3  4  1  0
  4  5  1  6
  4  6  1  0
  6  7  1  1
  8  7  1  1
  8  9  1  0
 10  9  1  6
 10 11  1  0
 11 12  1  0
 13 12  1  6
 13 14  1  0
 14 15  1  1
 15 16  1  0
 16 17  1  0
 17 18  1  1
 17 19  1  0
 19 20  1  1
 20 21  2  0
 21 22  1  0
 22 23  2  0
 22 24  1  0
 24 25  1  0
 19 26  1  0
 26 27  1  0
 27 28  1  0
 28 29  1  1
 14 30  1  0
 30 31  1  1
 30 32  1  0
 32 33  1  1
 32 34  1  0
  6 35  1  0
 35 36  1  0
 36 37  1  1
 36 38  1  0
 38 39  1  6
 38  3  1  0
 34  8  1  0
 30 10  1  0
 28 13  1  0
 28 17  1  0
 25 20  1  0
M  END
>  <id>  (186) 
SANC00715_minRM1.pdb

>  <SMILES>  (186) 
CO[C@@H]1[C@H](O)[C@@H](O[C@@H]2C[C@H]3CC[C@@H]4[C@H](CC[C@]5(C)[C@@H](C6=CC(=O)OC6)CC[C@]45O)[C@@]3(C)[C@H](O)C2)O[C@@H](C)[C@@H]1O

>  <warheads>  (186) 
ab_unsat_carbonyl:1

>  <n_warheads>  (186) 
1

>  <max_tier>  (186) 
1

>  <pains_flag>  (186) 


>  <MW>  (186) 
550.7

>  <cLogP>  (186) 
2.08

>  <HBD>  (186) 
4

>  <HBA>  (186) 
9

>  <TPSA>  (186) 
134.9

>  <ArRings>  (186) 
0

$$$$
SANC00716_minRM1.pdb
     RDKit          2D

 25 25  0  0  0  0  0  0  0  0999 V2000
    3.0000    0.0000    0.0000 C   0  0  0  0  0  0  0  0  0  0  0  0
    1.5000    0.0000    0.0000 C   0  0  0  0  0  0  0  0  0  0  0  0
    0.7500   -1.2990    0.0000 C   0  0  0  0  0  0  0  0  0  0  0  0
   -0.7500   -1.2990    0.0000 C   0  0  0  0  0  0  0  0  0  0  0  0
   -1.5000   -2.5981    0.0000 O   0  0  0  0  0  0  0  0  0  0  0  0
   -1.5000    0.0000    0.0000 C   0  0  0  0  0  0  0  0  0  0  0  0
   -3.0000    0.0000    0.0000 C   0  0  0  0  0  0  0  0  0  0  0  0
   -3.7500    1.2990    0.0000 C   0  0  0  0  0  0  0  0  0  0  0  0
   -5.2500    1.2990    0.0000 C   0  0  0  0  0  0  0  0  0  0  0  0
   -6.0000    0.0000    0.0000 C   0  0  0  0  0  0  0  0  0  0  0  0
   -6.0000    2.5981    0.0000 C   0  0  0  0  0  0  0  0  0  0  0  0
   -5.2500    3.8971    0.0000 C   0  0  0  0  0  0  0  0  0  0  0  0
   -6.0000    5.1962    0.0000 C   0  0  0  0  0  0  0  0  0  0  0  0
   -5.2500    6.4952    0.0000 C   0  0  0  0  0  0  0  0  0  0  0  0
   -3.7500    6.4952    0.0000 C   0  0  0  0  0  0  0  0  0  0  0  0
   -6.0000    7.7942    0.0000 C   0  0  0  0  0  0  0  0  0  0  0  0
   -5.2500    9.0933    0.0000 C   0  0  0  0  0  0  0  0  0  0  0  0
   -3.7500    9.0933    0.0000 O   0  0  0  0  0  0  0  0  0  0  0  0
   -6.0000   10.3923    0.0000 C   0  0  0  0  0  0  0  0  0  0  0  0
   -5.2500   11.6913    0.0000 C   0  0  0  0  0  0  0  0  0  0  0  0
   -6.0000   12.9904    0.0000 C   0  0  0  0  0  0  0  0  0  0  0  0
   -3.7500   11.6913    0.0000 C   0  0  0  0  0  0  0  0  0  0  0  0
   -0.7500    1.2990    0.0000 C   0  0  0  0  0  0  0  0  0  0  0  0
    0.7500    1.2990    0.0000 C   0  0  0  0  0  0  0  0  0  0  0  0
    1.5000    2.5981    0.0000 O   0  0  0  0  0  0  0  0  0  0  0  0
  1  2  1  0
  2  3  2  0
  3  4  1  0
  4  5  2  0
  4  6  1  0
  6  7  1  0
  7  8  1  0
  8  9  2  0
  9 10  1  0
  9 11  1  0
 11 12  1  0
 12 13  1  0
 13 14  2  0
 14 15  1  0
 14 16  1  0
 16 17  1  0
 17 18  2  0
 17 19  1  0
 19 20  1  0
 20 21  1  0
 20 22  1  0
  6 23  2  0
 23 24  1  0
 24 25  2  0
 24  2  1  0
M  END
>  <id>  (187) 
SANC00716_minRM1.pdb

>  <SMILES>  (187) 
CC1=CC(=O)C(C/C=C(\C)CC/C=C(\C)CC(=O)CC(C)C)=CC1=O

>  <warheads>  (187) 
ab_unsat_carbonyl:4;para_quinone:1

>  <n_warheads>  (187) 
5

>  <max_tier>  (187) 
2

>  <pains_flag>  (187) 
quinone_A(370)

>  <MW>  (187) 
342.5

>  <cLogP>  (187) 
5.08

>  <HBD>  (187) 
0

>  <HBA>  (187) 
3

>  <TPSA>  (187) 
51.2

>  <ArRings>  (187) 
0

$$$$
SANC00720_minRM1.pdb
     RDKit          2D

 24 26  0  0  0  0  0  0  0  0999 V2000
    1.2990   -7.3573    0.0000 C   0  0  0  0  0  0  0  0  0  0  0  0
   -0.0000   -6.6073    0.0000 C   0  0  0  0  0  0  0  0  0  0  0  0
   -0.0000   -5.1073    0.0000 C   0  0  0  0  0  0  0  0  0  0  0  0
    1.5000   -5.1073    0.0000 C   0  0  0  0  0  0  0  0  0  0  0  0
   -1.5000   -5.1073    0.0000 C   0  0  0  0  0  0  0  0  0  0  0  0
   -0.0000   -3.6073    0.0000 C   0  0  0  0  0  0  0  0  0  0  0  0
    1.2135   -2.7256    0.0000 N   0  0  0  0  0  0  0  0  0  0  0  0
    0.7500   -1.2990    0.0000 C   0  0  0  0  0  0  0  0  0  0  0  0
    1.5000    0.0000    0.0000 C   0  0  0  0  0  0  0  0  0  0  0  0
    0.7500    1.2990    0.0000 C   0  0  0  0  0  0  0  0  0  0  0  0
   -0.7500    1.2990    0.0000 C   0  0  0  0  0  0  0  0  0  0  0  0
   -1.5000    0.0000    0.0000 C   0  0  0  0  0  0  0  0  0  0  0  0
   -0.7500   -1.2990    0.0000 C   0  0  0  0  0  0  0  0  0  0  0  0
   -1.2135   -2.7256    0.0000 C   0  0  0  0  0  0  0  0  0  0  0  0
   -2.6401   -3.1891    0.0000 C   0  0  0  0  0  0  0  0  0  0  0  0
   -3.7548   -2.1855    0.0000 C   0  0  0  0  0  0  0  0  0  0  0  0
   -3.4430   -0.7182    0.0000 N   0  0  0  0  0  0  0  0  0  0  0  0
   -4.5577    0.2855    0.0000 C   0  0  0  0  0  0  0  0  0  0  0  0
   -4.2458    1.7527    0.0000 O   0  0  0  0  0  0  0  0  0  0  0  0
   -5.9843   -0.1781    0.0000 C   0  0  0  0  0  0  0  0  0  0  0  0
   -7.0990    0.8256    0.0000 C   0  0  0  0  0  0  0  0  0  0  0  0
   -6.2961   -1.6453    0.0000 N   0  0  0  0  0  0  0  0  0  0  0  0
   -5.1814   -2.6490    0.0000 C   0  0  0  0  0  0  0  0  0  0  0  0
   -5.4933   -4.1162    0.0000 O   0  0  0  0  0  0  0  0  0  0  0  0
  1  2  2  0
  2  3  1  0
  3  4  1  0
  3  5  1  0
  3  6  1  0
  6  7  1  0
  7  8  1  0
  8  9  2  0
  9 10  1  0
 10 11  2  0
 11 12  1  0
 12 13  2  0
 13 14  1  0
 14 15  1  0
 15 16  2  0
 16 17  1  0
 17 18  1  0
 18 19  2  0
 18 20  1  0
 20 21  1  1
 20 22  1  0
 22 23  1  0
 23 24  2  0
 14  6  2  0
 23 16  1  0
 13  8  1  0
M  END
>  <id>  (188) 
SANC00720_minRM1.pdb

>  <SMILES>  (188) 
C=CC(C)(C)c1[nH]c2ccccc2c1/C=C1\NC(=O)[C@H](C)NC1=O

>  <warheads>  (188) 
ab_unsat_carbonyl:1

>  <n_warheads>  (188) 
1

>  <max_tier>  (188) 
1

>  <pains_flag>  (188) 


>  <MW>  (188) 
323.4

>  <cLogP>  (188) 
2.61

>  <HBD>  (188) 
3

>  <HBA>  (188) 
2

>  <TPSA>  (188) 
74.0

>  <ArRings>  (188) 
2

$$$$
SANC00724_minRM1.pdb
     RDKit          2D

 25 25  0  0  0  0  0  0  0  0999 V2000
    3.0000    0.0000    0.0000 C   0  0  0  0  0  0  0  0  0  0  0  0
    1.5000    0.0000    0.0000 C   0  0  0  0  0  0  0  0  0  0  0  0
    0.7500   -1.2990    0.0000 C   0  0  0  0  0  0  0  0  0  0  0  0
   -0.7500   -1.2990    0.0000 C   0  0  0  0  0  0  0  0  0  0  0  0
   -1.5000   -2.5981    0.0000 O   0  0  0  0  0  0  0  0  0  0  0  0
   -1.5000    0.0000    0.0000 C   0  0  0  0  0  0  0  0  0  0  0  0
   -3.0000    0.0000    0.0000 C   0  0  0  0  0  0  0  0  0  0  0  0
   -3.7500    1.2990    0.0000 C   0  0  0  0  0  0  0  0  0  0  0  0
   -5.2500    1.2990    0.0000 C   0  0  0  0  0  0  0  0  0  0  0  0
   -6.0000    0.0000    0.0000 C   0  0  0  0  0  0  0  0  0  0  0  0
   -6.0000    2.5981    0.0000 C   0  0  0  0  0  0  0  0  0  0  0  0
   -5.2500    3.8971    0.0000 C   0  0  0  0  0  0  0  0  0  0  0  0
   -6.0000    5.1962    0.0000 C   0  0  0  0  0  0  0  0  0  0  0  0
   -5.2500    6.4952    0.0000 C   0  0  0  0  0  0  0  0  0  0  0  0
   -3.7500    6.4952    0.0000 C   0  0  0  0  0  0  0  0  0  0  0  0
   -6.0000    7.7942    0.0000 C   0  0  0  0  0  0  0  0  0  0  0  0
   -7.5000    7.7942    0.0000 C   0  0  0  0  0  0  0  0  0  0  0  0
   -8.2500    6.4952    0.0000 O   0  0  0  0  0  0  0  0  0  0  0  0
   -8.2500    9.0933    0.0000 C   0  0  0  0  0  0  0  0  0  0  0  0
   -9.7500    9.0933    0.0000 C   0  0  0  0  0  0  0  0  0  0  0  0
  -10.5000   10.3923    0.0000 C   0  0  0  0  0  0  0  0  0  0  0  0
  -10.5000    7.7942    0.0000 C   0  0  0  0  0  0  0  0  0  0  0  0
   -0.7500    1.2990    0.0000 C   0  0  0  0  0  0  0  0  0  0  0  0
    0.7500    1.2990    0.0000 C   0  0  0  0  0  0  0  0  0  0  0  0
    1.5000    2.5981    0.0000 O   0  0  0  0  0  0  0  0  0  0  0  0
  1  2  1  0
  2  3  2  0
  3  4  1  0
  4  5  2  0
  4  6  1  0
  6  7  1  0
  7  8  1  0
  8  9  2  0
  9 10  1  0
  9 11  1  0
 11 12  1  0
 12 13  1  0
 13 14  1  0
 14 15  1  0
 14 16  2  0
 16 17  1  0
 17 18  2  0
 17 19  1  0
 19 20  1  0
 20 21  1  0
 20 22  1  0
  6 23  2  0
 23 24  1  0
 24 25  2  0
 24  2  1  0
M  END
>  <id>  (189) 
SANC00724_minRM1.pdb

>  <SMILES>  (189) 
CC1=CC(=O)C(C/C=C(\C)CCC/C(C)=C\C(=O)CC(C)C)=CC1=O

>  <warheads>  (189) 
ab_unsat_carbonyl:5;para_quinone:1

>  <n_warheads>  (189) 
6

>  <max_tier>  (189) 
2

>  <pains_flag>  (189) 
quinone_A(370)

>  <MW>  (189) 
342.5

>  <cLogP>  (189) 
5.08

>  <HBD>  (189) 
0

>  <HBA>  (189) 
3

>  <TPSA>  (189) 
51.2

>  <ArRings>  (189) 
0

$$$$
SANC00725_minRM1.pdb
     RDKit          2D

 25 25  0  0  0  0  0  0  0  0999 V2000
    3.7500   -6.4952    0.0000 C   0  0  0  0  0  0  0  0  0  0  0  0
    5.2500   -6.4952    0.0000 C   0  0  0  0  0  0  0  0  0  0  0  0
    6.0000   -7.7942    0.0000 C   0  0  0  0  0  0  0  0  0  0  0  0
    7.5000   -7.7942    0.0000 C   0  0  0  0  0  0  0  0  0  0  0  0
    8.2500   -6.4952    0.0000 O   0  0  0  0  0  0  0  0  0  0  0  0
    8.2500   -9.0933    0.0000 C   0  0  0  0  0  0  0  0  0  0  0  0
    9.7500   -9.0933    0.0000 C   0  0  0  0  0  0  0  0  0  0  0  0
   10.5000  -10.3923    0.0000 C   0  0  0  0  0  0  0  0  0  0  0  0
   10.5000   -7.7942    0.0000 C   0  0  0  0  0  0  0  0  0  0  0  0
    6.0000   -5.1962    0.0000 C   0  0  0  0  0  0  0  0  0  0  0  0
    5.2500   -3.8971    0.0000 C   0  0  0  0  0  0  0  0  0  0  0  0
    6.0000   -2.5981    0.0000 C   0  0  0  0  0  0  0  0  0  0  0  0
    5.2500   -1.2990    0.0000 C   0  0  0  0  0  0  0  0  0  0  0  0
    6.0000    0.0000    0.0000 C   0  0  0  0  0  0  0  0  0  0  0  0
    3.7500   -1.2990    0.0000 C   0  0  0  0  0  0  0  0  0  0  0  0
    3.0000    0.0000    0.0000 C   0  0  0  0  0  0  0  0  0  0  0  0
    1.5000    0.0000    0.0000 C   0  0  0  0  0  0  0  0  0  0  0  0
    0.7500   -1.2990    0.0000 C   0  0  0  0  0  0  0  0  0  0  0  0
   -0.7500   -1.2990    0.0000 C   0  0  0  0  0  0  0  0  0  0  0  0
   -1.5000   -2.5981    0.0000 O   0  0  0  0  0  0  0  0  0  0  0  0
   -1.5000    0.0000    0.0000 C   0  0  0  0  0  0  0  0  0  0  0  0
   -3.0000    0.0000    0.0000 C   0  0  0  0  0  0  0  0  0  0  0  0
   -0.7500    1.2990    0.0000 C   0  0  0  0  0  0  0  0  0  0  0  0
    0.7500    1.2990    0.0000 C   0  0  0  0  0  0  0  0  0  0  0  0
    1.5000    2.5981    0.0000 O   0  0  0  0  0  0  0  0  0  0  0  0
  1  2  1  0
  2  3  2  0
  3  4  1  0
  4  5  2  0
  4  6  1  0
  6  7  1  0
  7  8  1  0
  7  9  1  0
  2 10  1  0
 10 11  1  0
 11 12  1  0
 12 13  1  0
 13 14  1  0
 13 15  2  0
 15 16  1  0
 16 17  1  0
 17 18  2  0
 18 19  1  0
 19 20  1  0
 19 21  2  0
 21 22  1  0
 21 23  1  0
 23 24  2  0
 24 25  1  0
 24 17  1  0
M  END
>  <id>  (190) 
SANC00725_minRM1.pdb

>  <SMILES>  (190) 
C/C(=C/C(=O)CC(C)C)CCC/C(C)=C/Cc1cc(O)c(C)cc1O

>  <warheads>  (190) 
ab_unsat_carbonyl:1

>  <n_warheads>  (190) 
1

>  <max_tier>  (190) 
1

>  <pains_flag>  (190) 


>  <MW>  (190) 
344.5

>  <cLogP>  (190) 
5.63

>  <HBD>  (190) 
2

>  <HBA>  (190) 
3

>  <TPSA>  (190) 
57.5

>  <ArRings>  (190) 
1

$$$$
SANC00727_minRM1.pdb
     RDKit          2D

 28 28  0  0  0  0  0  0  0  0999 V2000
    5.2500   -1.2990    0.0000 C   0  0  0  0  0  0  0  0  0  0  0  0
    3.7500   -1.2990    0.0000 C   0  0  0  0  0  0  0  0  0  0  0  0
    3.0000   -2.5981    0.0000 O   0  0  0  0  0  0  0  0  0  0  0  0
    3.0000    0.0000    0.0000 O   0  0  0  0  0  0  0  0  0  0  0  0
    1.5000    0.0000    0.0000 C   0  0  0  0  0  0  0  0  0  0  0  0
    0.7500   -1.2990    0.0000 C   0  0  0  0  0  0  0  0  0  0  0  0
   -0.7500   -1.2990    0.0000 C   0  0  0  0  0  0  0  0  0  0  0  0
   -1.5000   -2.5981    0.0000 C   0  0  0  0  0  0  0  0  0  0  0  0
   -1.5000    0.0000    0.0000 C   0  0  0  0  0  0  0  0  0  0  0  0
   -3.0000    0.0000    0.0000 O   0  0  0  0  0  0  0  0  0  0  0  0
   -0.7500    1.2990    0.0000 C   0  0  0  0  0  0  0  0  0  0  0  0
    0.7500    1.2990    0.0000 C   0  0  0  0  0  0  0  0  0  0  0  0
    1.5000    2.5981    0.0000 C   0  0  0  0  0  0  0  0  0  0  0  0
    3.0000    2.5981    0.0000 C   0  0  0  0  0  0  0  0  0  0  0  0
    3.7500    3.8971    0.0000 C   0  0  0  0  0  0  0  0  0  0  0  0
    3.0000    5.1962    0.0000 C   0  0  0  0  0  0  0  0  0  0  0  0
    5.2500    3.8971    0.0000 C   0  0  0  0  0  0  0  0  0  0  0  0
    6.0000    2.5981    0.0000 C   0  0  0  0  0  0  0  0  0  0  0  0
    7.5000    2.5981    0.0000 C   0  0  0  0  0  0  0  0  0  0  0  0
    8.2500    1.2990    0.0000 C   0  0  0  0  0  0  0  0  0  0  0  0
    7.5000    0.0000    0.0000 C   0  0  0  0  0  0  0  0  0  0  0  0
    9.7500    1.2990    0.0000 C   0  0  0  0  0  0  0  0  0  0  0  0
   10.5000    2.5981    0.0000 C   0  0  0  0  0  0  0  0  0  0  0  0
    9.7500    3.8971    0.0000 O   0  0  0  0  0  0  0  0  0  0  0  0
   12.0000    2.5981    0.0000 C   0  0  0  0  0  0  0  0  0  0  0  0
   12.7500    3.8971    0.0000 C   0  0  0  0  0  0  0  0  0  0  0  0
   14.2500    3.8971    0.0000 C   0  0  0  0  0  0  0  0  0  0  0  0
   12.0000    5.1962    0.0000 C   0  0  0  0  0  0  0  0  0  0  0  0
  1  2  1  0
  2  3  2  0
  2  4  1  0
  4  5  1  0
  5  6  2  0
  6  7  1  0
  7  8  1  0
  7  9  2  0
  9 10  1  0
  9 11  1  0
 11 12  2  0
 12 13  1  0
 13 14  1  0
 14 15  2  0
 15 16  1  0
 15 17  1  0
 17 18  1  0
 18 19  1  0
 19 20  1  0
 20 21  1  0
 20 22  2  0
 22 23  1  0
 23 24  2  0
 23 25  1  0
 25 26  1  0
 26 27  1  0
 26 28  1  0
 12  5  1  0
M  END
>  <id>  (191) 
SANC00727_minRM1.pdb

>  <SMILES>  (191) 
CC(=O)Oc1cc(C)c(O)cc1C/C=C(\C)CCC/C(C)=C\C(=O)CC(C)C

>  <warheads>  (191) 
ab_unsat_carbonyl:1

>  <n_warheads>  (191) 
1

>  <max_tier>  (191) 
1

>  <pains_flag>  (191) 


>  <MW>  (191) 
386.5

>  <cLogP>  (191) 
5.85

>  <HBD>  (191) 
1

>  <HBA>  (191) 
4

>  <TPSA>  (191) 
63.6

>  <ArRings>  (191) 
1

$$$$
SANC00733_minRM1.pdb
     RDKit          2D

 30 32  0  0  0  0  0  0  0  0999 V2000
   -7.7199   -5.1642    0.0000 C   0  0  0  0  0  0  0  0  0  0  0  0
   -7.0623   -3.8160    0.0000 C   0  0  0  0  0  0  0  0  0  0  0  0
   -7.9011   -2.5725    0.0000 C   0  0  0  0  0  0  0  0  0  0  0  0
   -5.5660   -3.7114    0.0000 C   0  0  0  0  0  0  0  0  0  0  0  0
   -4.9084   -2.3632    0.0000 C   0  0  0  0  0  0  0  0  0  0  0  0
   -5.7472   -1.1196    0.0000 O   0  0  0  0  0  0  0  0  0  0  0  0
   -3.4121   -2.2586    0.0000 O   0  0  0  0  0  0  0  0  0  0  0  0
   -2.7545   -0.9104    0.0000 C   0  0  0  0  0  0  0  0  0  0  0  0
   -3.7965    0.1686    0.0000 C   0  0  0  0  0  0  0  0  0  0  0  0
   -3.9011    1.6650    0.0000 C   0  0  0  0  0  0  0  0  0  0  0  0
   -5.3929    1.8218    0.0000 C   0  0  0  0  0  0  0  0  0  0  0  0
   -6.2746    0.6083    0.0000 C   0  0  0  0  0  0  0  0  0  0  0  0
   -6.0030    3.1921    0.0000 C   0  0  0  0  0  0  0  0  0  0  0  0
   -5.1213    4.4056    0.0000 C   0  0  0  0  0  0  0  0  0  0  0  0
   -5.7314    5.7759    0.0000 O   0  0  0  0  0  0  0  0  0  0  0  0
   -3.6295    4.2488    0.0000 C   0  0  0  0  0  0  0  0  0  0  0  0
   -2.7479    5.4624    0.0000 C   0  0  0  0  0  0  0  0  0  0  0  0
   -3.3580    6.8327    0.0000 C   0  0  0  0  0  0  0  0  0  0  0  0
   -1.2561    5.3056    0.0000 C   0  0  0  0  0  0  0  0  0  0  0  0
   -3.0194    2.8785    0.0000 C   0  0  0  0  0  0  0  0  0  0  0  0
   -1.5640    3.2414    0.0000 C   0  0  0  0  0  0  0  0  0  0  0  0
   -0.2158    2.5838    0.0000 C   0  0  0  0  0  0  0  0  0  0  0  0
    0.8632    3.6258    0.0000 C   0  0  0  0  0  0  0  0  0  0  0  0
    0.3943    1.2135    0.0000 C   0  0  0  0  0  0  0  0  0  0  0  0
    0.8578    2.6401    0.0000 O   0  0  0  0  0  0  0  0  0  0  0  0
    1.2760    0.0000    0.0000 C   0  0  0  0  0  0  0  0  0  0  0  0
    0.3943   -1.2135    0.0000 C   0  0  0  0  0  0  0  0  0  0  0  0
   -1.0323   -0.7500    0.0000 C   0  0  0  0  0  0  0  0  0  0  0  0
   -2.2458   -1.6317    0.0000 C   0  0  0  0  0  0  0  0  0  0  0  0
   -1.0323    0.7500    0.0000 O   0  0  0  0  0  0  0  0  0  0  0  0
  1  2  1  0
  2  3  1  0
  2  4  2  0
  4  5  1  0
  5  6  2  0
  5  7  1  0
  8  7  1  6
  8  9  1  0
 10  9  1  6
 10 11  1  0
 11 12  1  0
 11 13  2  0
 13 14  1  0
 14 15  2  0
 14 16  1  0
 16 17  1  6
 17 18  1  0
 17 19  1  0
 16 20  1  0
 20 21  1  1
 21 22  2  0
 22 23  1  0
 22 24  1  0
 24 25  1  6
 24 26  1  0
 26 27  2  0
 27 28  1  0
 28 29  1  1
 28 30  1  0
 28  8  1  0
 20 10  1  0
 30 24  1  0
M  END
>  <id>  (192) 
SANC00733_minRM1.pdb

>  <SMILES>  (192) 
CC(C)=CC(=O)O[C@@H]1C[C@@H]2C(C)=CC(=O)[C@H](C(C)C)[C@H]2/C=C(/C)[C@@]2(O)C=C[C@@]1(C)O2

>  <warheads>  (192) 
ab_unsat_carbonyl:2

>  <n_warheads>  (192) 
2

>  <max_tier>  (192) 
1

>  <pains_flag>  (192) 


>  <MW>  (192) 
414.5

>  <cLogP>  (192) 
4.28

>  <HBD>  (192) 
1

>  <HBA>  (192) 
5

>  <TPSA>  (192) 
72.8

>  <ArRings>  (192) 
0

$$$$
SANC00734_minRM1.pdb
     RDKit          2D

 33 36  0  0  0  0  0  0  0  0999 V2000
   -6.0442    0.9254    0.0000 C   0  0  0  0  0  0  0  0  0  0  0  0
   -5.1625    2.1389    0.0000 C   0  0  0  0  0  0  0  0  0  0  0  0
   -5.7726    3.5093    0.0000 C   0  0  0  0  0  0  0  0  0  0  0  0
   -4.8909    4.7228    0.0000 C   0  0  0  0  0  0  0  0  0  0  0  0
   -5.5010    6.0931    0.0000 O   0  0  0  0  0  0  0  0  0  0  0  0
   -3.3991    4.5660    0.0000 C   0  0  0  0  0  0  0  0  0  0  0  0
   -2.5174    5.7795    0.0000 C   0  0  0  0  0  0  0  0  0  0  0  0
   -3.1275    7.1498    0.0000 C   0  0  0  0  0  0  0  0  0  0  0  0
   -1.0257    5.6227    0.0000 C   0  0  0  0  0  0  0  0  0  0  0  0
   -2.7890    3.1957    0.0000 C   0  0  0  0  0  0  0  0  0  0  0  0
   -1.3336    3.5586    0.0000 C   0  0  0  0  0  0  0  0  0  0  0  0
    0.0146    2.9010    0.0000 C   0  0  0  0  0  0  0  0  0  0  0  0
    1.0936    3.9430    0.0000 C   0  0  0  0  0  0  0  0  0  0  0  0
    0.3943    1.2135    0.0000 C   0  0  0  0  0  0  0  0  0  0  0  0
    0.8578    2.6401    0.0000 O   0  0  0  0  0  0  0  0  0  0  0  0
    1.2760    0.0000    0.0000 C   0  0  0  0  0  0  0  0  0  0  0  0
    0.3943   -1.2135    0.0000 C   0  0  0  0  0  0  0  0  0  0  0  0
   -1.0323   -0.7500    0.0000 C   0  0  0  0  0  0  0  0  0  0  0  0
   -2.2458   -1.6317    0.0000 C   0  0  0  0  0  0  0  0  0  0  0  0
   -1.0323    0.7500    0.0000 O   0  0  0  0  0  0  0  0  0  0  0  0
   -2.5241   -0.5932    0.0000 C   0  0  0  0  0  0  0  0  0  0  0  0
   -3.1816   -1.9414    0.0000 O   0  0  0  0  0  0  0  0  0  0  0  0
   -4.6780   -2.0460    0.0000 C   0  0  0  0  0  0  0  0  0  0  0  0
   -5.5168   -0.8025    0.0000 O   0  0  0  0  0  0  0  0  0  0  0  0
   -5.3355   -3.3942    0.0000 C   0  0  0  0  0  0  0  0  0  0  0  0
   -6.8319   -3.4989    0.0000 C   0  0  0  0  0  0  0  0  0  0  0  0
   -7.6707   -2.2553    0.0000 C   0  0  0  0  0  0  0  0  0  0  0  0
   -9.1670   -2.3599    0.0000 C   0  0  0  0  0  0  0  0  0  0  0  0
   -9.8246   -3.7081    0.0000 C   0  0  0  0  0  0  0  0  0  0  0  0
   -8.9858   -4.9517    0.0000 C   0  0  0  0  0  0  0  0  0  0  0  0
   -7.4894   -4.8470    0.0000 C   0  0  0  0  0  0  0  0  0  0  0  0
   -3.5661    0.4858    0.0000 C   0  0  0  0  0  0  0  0  0  0  0  0
   -3.6707    1.9821    0.0000 C   0  0  0  0  0  0  0  0  0  0  0  0
  1  2  1  0
  2  3  2  0
  3  4  1  0
  4  5  2  0
  4  6  1  0
  6  7  1  1
  7  8  1  0
  7  9  1  0
  6 10  1  0
 10 11  1  6
 11 12  2  0
 12 13  1  0
 12 14  1  0
 14 15  1  1
 14 16  1  0
 16 17  2  0
 17 18  1  0
 18 19  1  1
 18 20  1  0
 18 21  1  0
 21 22  1  6
 22 23  1  0
 23 24  2  0
 23 25  1  0
 25 26  1  0
 26 27  2  0
 27 28  1  0
 28 29  2  0
 29 30  1  0
 30 31  2  0
 21 32  1  0
 33 32  1  6
 33  2  1  0
 33 10  1  0
 20 14  1  0
 31 26  1  0
M  END
>  <id>  (193) 
SANC00734_minRM1.pdb

>  <SMILES>  (193) 
CC1=CC(=O)[C@@H](C(C)C)[C@@H]2/C=C(/C)[C@]3(O)C=C[C@@](C)(O3)[C@H](OC(=O)Cc3ccccc3)C[C@H]12

>  <warheads>  (193) 
ab_unsat_carbonyl:1

>  <n_warheads>  (193) 
1

>  <max_tier>  (193) 
1

>  <pains_flag>  (193) 


>  <MW>  (193) 
450.6

>  <cLogP>  (193) 
4.56

>  <HBD>  (193) 
1

>  <HBA>  (193) 
5

>  <TPSA>  (193) 
72.8

>  <ArRings>  (193) 
1

$$$$
SANC00736_minRM1.pdb
     RDKit          2D

 28 29  0  0  0  0  0  0  0  0999 V2000
    2.7760    0.0000    0.0000 C   0  0  0  0  0  0  0  0  0  0  0  0
    1.2760    0.0000    0.0000 C   0  0  0  0  0  0  0  0  0  0  0  0
    0.3943    1.2135    0.0000 C   0  0  0  0  0  0  0  0  0  0  0  0
   -1.0323    0.7500    0.0000 C   0  0  0  0  0  0  0  0  0  0  0  0
   -2.2458    1.6317    0.0000 C   0  0  0  0  0  0  0  0  0  0  0  0
   -3.6161    1.0216    0.0000 C   0  0  0  0  0  0  0  0  0  0  0  0
   -4.8297    1.9033    0.0000 C   0  0  0  0  0  0  0  0  0  0  0  0
   -3.7729   -0.4702    0.0000 C   0  0  0  0  0  0  0  0  0  0  0  0
   -5.1432   -1.0803    0.0000 C   0  0  0  0  0  0  0  0  0  0  0  0
   -5.3000   -2.5721    0.0000 C   0  0  0  0  0  0  0  0  0  0  0  0
   -6.6704   -3.1822    0.0000 C   0  0  0  0  0  0  0  0  0  0  0  0
   -7.8839   -2.3005    0.0000 C   0  0  0  0  0  0  0  0  0  0  0  0
   -6.8271   -4.6740    0.0000 C   0  0  0  0  0  0  0  0  0  0  0  0
   -8.1975   -5.2841    0.0000 C   0  0  0  0  0  0  0  0  0  0  0  0
   -8.3543   -6.7759    0.0000 C   0  0  0  0  0  0  0  0  0  0  0  0
   -9.7246   -7.3860    0.0000 C   0  0  0  0  0  0  0  0  0  0  0  0
  -10.9381   -6.5043    0.0000 C   0  0  0  0  0  0  0  0  0  0  0  0
   -9.8814   -8.8778    0.0000 C   0  0  0  0  0  0  0  0  0  0  0  0
  -11.2517   -9.4879    0.0000 C   0  0  0  0  0  0  0  0  0  0  0  0
  -11.4085  -10.9796    0.0000 C   0  0  0  0  0  0  0  0  0  0  0  0
  -12.7788  -11.5898    0.0000 C   0  0  0  0  0  0  0  0  0  0  0  0
  -13.0907  -13.0570    0.0000 C   0  0  0  0  0  0  0  0  0  0  0  0
  -14.5824  -13.2138    0.0000 C   0  0  0  0  0  0  0  0  0  0  0  0
  -15.1926  -11.8434    0.0000 O   0  0  0  0  0  0  0  0  0  0  0  0
  -14.0778  -10.8398    0.0000 C   0  0  0  0  0  0  0  0  0  0  0  0
   -1.0323   -0.7500    0.0000 O   0  0  0  0  0  0  0  0  0  0  0  0
    0.3943   -1.2135    0.0000 C   0  0  0  0  0  0  0  0  0  0  0  0
    0.8578   -2.6401    0.0000 O   0  0  0  0  0  0  0  0  0  0  0  0
  1  2  1  0
  2  3  2  0
  3  4  1  0
  4  5  2  0
  5  6  1  0
  6  7  1  1
  6  8  1  0
  8  9  1  0
  9 10  1  0
 10 11  1  0
 11 12  1  0
 11 13  2  0
 13 14  1  0
 14 15  1  0
 15 16  1  0
 16 17  1  0
 16 18  2  0
 18 19  1  0
 19 20  1  0
 20 21  1  0
 21 22  1  0
 22 23  2  0
 23 24  1  0
 24 25  1  0
  4 26  1  0
 26 27  1  0
 27 28  2  0
 27  2  1  0
 25 21  2  0
M  END
>  <id>  (194) 
SANC00736_minRM1.pdb

>  <SMILES>  (194) 
CC1=C/C(=C/[C@H](C)CCC/C(C)=C/CC/C(C)=C/CCc2ccoc2)OC1=O

>  <warheads>  (194) 
ab_unsat_carbonyl:1

>  <n_warheads>  (194) 
1

>  <max_tier>  (194) 
1

>  <pains_flag>  (194) 


>  <MW>  (194) 
382.5

>  <cLogP>  (194) 
7.08

>  <HBD>  (194) 
0

>  <HBA>  (194) 
3

>  <TPSA>  (194) 
39.4

>  <ArRings>  (194) 
1

$$$$
SANC00737_minRM1.pdb
     RDKit          2D

 29 30  0  0  0  0  0  0  0  0999 V2000
    8.5808    9.5939    0.0000 C   0  0  0  0  0  0  0  0  0  0  0  0
    8.1173    8.1673    0.0000 C   0  0  0  0  0  0  0  0  0  0  0  0
    6.6501    7.8555    0.0000 C   0  0  0  0  0  0  0  0  0  0  0  0
    6.1865    6.4289    0.0000 C   0  0  0  0  0  0  0  0  0  0  0  0
    4.7193    6.1170    0.0000 C   0  0  0  0  0  0  0  0  0  0  0  0
    4.2558    4.6904    0.0000 C   0  0  0  0  0  0  0  0  0  0  0  0
    5.2595    3.5757    0.0000 C   0  0  0  0  0  0  0  0  0  0  0  0
    2.7886    4.3786    0.0000 C   0  0  0  0  0  0  0  0  0  0  0  0
    2.3250    2.9520    0.0000 C   0  0  0  0  0  0  0  0  0  0  0  0
    0.8578    2.6401    0.0000 C   0  0  0  0  0  0  0  0  0  0  0  0
    0.3943    1.2135    0.0000 C   0  0  0  0  0  0  0  0  0  0  0  0
    1.2760    0.0000    0.0000 C   0  0  0  0  0  0  0  0  0  0  0  0
    0.3943   -1.2135    0.0000 C   0  0  0  0  0  0  0  0  0  0  0  0
   -1.0323   -0.7500    0.0000 O   0  0  0  0  0  0  0  0  0  0  0  0
   -1.0323    0.7500    0.0000 C   0  0  0  0  0  0  0  0  0  0  0  0
    9.1210    7.0526    0.0000 C   0  0  0  0  0  0  0  0  0  0  0  0
   10.5882    7.3645    0.0000 C   0  0  0  0  0  0  0  0  0  0  0  0
   11.5919    6.2498    0.0000 C   0  0  0  0  0  0  0  0  0  0  0  0
   13.0591    6.5616    0.0000 C   0  0  0  0  0  0  0  0  0  0  0  0
   14.0628    5.4469    0.0000 C   0  0  0  0  0  0  0  0  0  0  0  0
   13.5226    7.9882    0.0000 C   0  0  0  0  0  0  0  0  0  0  0  0
   14.9899    8.3001    0.0000 C   0  0  0  0  0  0  0  0  0  0  0  0
   16.1046    7.2964    0.0000 C   0  0  0  0  0  0  0  0  0  0  0  0
   17.4036    8.0464    0.0000 C   0  0  0  0  0  0  0  0  0  0  0  0
   18.7739    7.4363    0.0000 C   0  0  0  0  0  0  0  0  0  0  0  0
   18.9307    5.9445    0.0000 O   0  0  0  0  0  0  0  0  0  0  0  0
   17.0918    9.5136    0.0000 C   0  0  0  0  0  0  0  0  0  0  0  0
   18.0955   10.6283    0.0000 O   0  0  0  0  0  0  0  0  0  0  0  0
   15.6000    9.6704    0.0000 O   0  0  0  0  0  0  0  0  0  0  0  0
  1  2  1  0
  2  3  2  0
  3  4  1  0
  4  5  1  0
  5  6  1  0
  6  7  1  0
  6  8  2  0
  8  9  1  0
  9 10  1  0
 10 11  1  0
 11 12  1  0
 12 13  2  0
 13 14  1  0
 14 15  1  0
  2 16  1  0
 16 17  1  0
 17 18  1  0
 18 19  1  0
 19 20  1  6
 19 21  1  0
 21 22  2  0
 22 23  1  0
 23 24  2  0
 24 25  1  0
 25 26  1  0
 24 27  1  0
 27 28  2  0
 27 29  1  0
 15 11  2  0
 29 22  1  0
M  END
>  <id>  (195) 
SANC00737_minRM1.pdb

>  <SMILES>  (195) 
C/C(=C/CC/C(C)=C/CCc1ccoc1)CCC[C@@H](C)/C=C1\C=C(CO)C(=O)O1

>  <warheads>  (195) 
ab_unsat_carbonyl:1

>  <n_warheads>  (195) 
1

>  <max_tier>  (195) 
1

>  <pains_flag>  (195) 


>  <MW>  (195) 
398.5

>  <cLogP>  (195) 
6.05

>  <HBD>  (195) 
1

>  <HBA>  (195) 
4

>  <TPSA>  (195) 
59.7

>  <ArRings>  (195) 
1

$$$$
SANC00751_minRM1.pdb
     RDKit          2D

 30 33  0  0  0  0  0  0  0  0999 V2000
  -11.0874   -5.0022    0.0000 C   0  0  0  0  0  0  0  0  0  0  0  0
   -9.9727   -6.0059    0.0000 C   0  0  0  0  0  0  0  0  0  0  0  0
   -8.5461   -5.5424    0.0000 C   0  0  0  0  0  0  0  0  0  0  0  0
   -7.4314   -6.5461    0.0000 C   0  0  0  0  0  0  0  0  0  0  0  0
   -6.0048   -6.0826    0.0000 C   0  0  0  0  0  0  0  0  0  0  0  0
   -4.8901   -7.0863    0.0000 C   0  0  0  0  0  0  0  0  0  0  0  0
   -5.2020   -8.5535    0.0000 C   0  0  0  0  0  0  0  0  0  0  0  0
   -3.4635   -6.6227    0.0000 C   0  0  0  0  0  0  0  0  0  0  0  0
   -2.2500   -7.5044    0.0000 C   0  0  0  0  0  0  0  0  0  0  0  0
   -1.0365   -6.6227    0.0000 C   0  0  0  0  0  0  0  0  0  0  0  0
   -1.5000   -5.1962    0.0000 C   0  0  0  0  0  0  0  0  0  0  0  0
   -0.7500   -3.8971    0.0000 C   0  0  0  0  0  0  0  0  0  0  0  0
    0.7500   -3.8971    0.0000 C   0  0  0  0  0  0  0  0  0  0  0  0
    1.5000   -2.5981    0.0000 C   0  0  0  0  0  0  0  0  0  0  0  0
    0.7500   -1.2990    0.0000 C   0  0  0  0  0  0  0  0  0  0  0  0
    1.5000    0.0000    0.0000 C   0  0  0  0  0  0  0  0  0  0  0  0
    0.7500    1.2990    0.0000 C   0  0  0  0  0  0  0  0  0  0  0  0
    1.5000    2.5981    0.0000 O   0  0  0  0  0  0  0  0  0  0  0  0
   -0.7500    1.2990    0.0000 C   0  0  0  0  0  0  0  0  0  0  0  0
   -1.5000    0.0000    0.0000 C   0  0  0  0  0  0  0  0  0  0  0  0
   -0.7500   -1.2990    0.0000 C   0  0  0  0  0  0  0  0  0  0  0  0
   -2.2500   -1.2990    0.0000 C   0  0  0  0  0  0  0  0  0  0  0  0
   -1.5000   -2.5981    0.0000 C   0  0  0  0  0  0  0  0  0  0  0  0
   -3.0000   -2.5981    0.0000 C   0  0  0  0  0  0  0  0  0  0  0  0
   -3.7500   -3.8971    0.0000 C   0  0  0  0  0  0  0  0  0  0  0  0
   -3.0000   -5.1962    0.0000 C   0  0  0  0  0  0  0  0  0  0  0  0
   -4.4918   -5.3529    0.0000 C   0  0  0  0  0  0  0  0  0  0  0  0
   -8.2343   -4.0752    0.0000 C   0  0  0  0  0  0  0  0  0  0  0  0
   -9.3490   -3.0715    0.0000 C   0  0  0  0  0  0  0  0  0  0  0  0
   -6.8077   -3.6116    0.0000 C   0  0  0  0  0  0  0  0  0  0  0  0
  1  2  1  0
  3  2  1  1
  3  4  1  0
  4  5  1  0
  5  6  1  0
  6  7  1  6
  6  8  1  0
  8  9  1  6
  9 10  1  0
 11 10  1  6
 11 12  1  0
 12 13  1  1
 13 14  1  0
 14 15  1  0
 15 16  2  0
 16 17  1  0
 17 18  2  0
 17 19  1  0
 19 20  1  0
 20 21  1  0
 21 22  1  6
 21 23  1  0
 23 24  1  6
 24 25  1  0
 25 26  1  0
 26 27  1  6
  3 28  1  0
 28 29  1  0
 28 30  1  0
 26  8  1  0
 26 11  1  0
 23 12  1  0
 21 15  1  0
M  END
>  <id>  (196) 
SANC00751_minRM1.pdb

>  <SMILES>  (196) 
CC[C@H](CC[C@@H](C)[C@H]1CC[C@H]2[C@@H]3CCC4=CC(=O)CC[C@]4(C)[C@H]3CC[C@]12C)C(C)C

>  <warheads>  (196) 
ab_unsat_carbonyl:1

>  <n_warheads>  (196) 
1

>  <max_tier>  (196) 
1

>  <pains_flag>  (196) 


>  <MW>  (196) 
412.7

>  <cLogP>  (196) 
8.23

>  <HBD>  (196) 
0

>  <HBA>  (196) 
1

>  <TPSA>  (196) 
17.1

>  <ArRings>  (196) 
0

$$$$
SANC00771_minRM1.pdb
     RDKit          2D

 24 26  0  0  0  0  0  0  0  0999 V2000
   -5.1809    7.1383    0.0000 C   0  0  0  0  0  0  0  0  0  0  0  0
   -5.1024    5.6404    0.0000 C   0  0  0  0  0  0  0  0  0  0  0  0
   -3.7659    4.9594    0.0000 C   0  0  0  0  0  0  0  0  0  0  0  0
   -2.7622    6.0741    0.0000 C   0  0  0  0  0  0  0  0  0  0  0  0
   -1.3356    6.5376    0.0000 C   0  0  0  0  0  0  0  0  0  0  0  0
   -1.4141    8.0356    0.0000 C   0  0  0  0  0  0  0  0  0  0  0  0
    0.1316    6.2257    0.0000 C   0  0  0  0  0  0  0  0  0  0  0  0
   -0.0771    7.7111    0.0000 C   0  0  0  0  0  0  0  0  0  0  0  0
    1.4560    6.9300    0.0000 O   0  0  0  0  0  0  0  0  0  0  0  0
    1.2463    5.2220    0.0000 C   0  0  0  0  0  0  0  0  0  0  0  0
    2.5043    6.0390    0.0000 O   0  0  0  0  0  0  0  0  0  0  0  0
    1.7099    3.7955    0.0000 O   0  0  0  0  0  0  0  0  0  0  0  0
    1.3980    2.3282    0.0000 C   0  0  0  0  0  0  0  0  0  0  0  0
    0.3943    1.2135    0.0000 C   0  0  0  0  0  0  0  0  0  0  0  0
    1.2760    0.0000    0.0000 C   0  0  0  0  0  0  0  0  0  0  0  0
    0.3943   -1.2135    0.0000 C   0  0  0  0  0  0  0  0  0  0  0  0
   -1.0323   -0.7500    0.0000 N   0  0  0  0  0  0  0  0  0  0  0  0
   -2.4327   -1.2876    0.0000 C   0  0  0  0  0  0  0  0  0  0  0  0
   -3.3766   -0.1218    0.0000 C   0  0  0  0  0  0  0  0  0  0  0  0
   -2.4995    1.0619    0.0000 C   0  0  0  0  0  0  0  0  0  0  0  0
   -3.6142    2.0656    0.0000 O   0  0  0  0  0  0  0  0  0  0  0  0
   -4.0778    3.4921    0.0000 C   0  0  0  0  0  0  0  0  0  0  0  0
   -5.5757    3.4136    0.0000 O   0  0  0  0  0  0  0  0  0  0  0  0
   -1.0323    0.7500    0.0000 C   0  0  0  0  0  0  0  0  0  0  0  0
  1  2  1  0
  2  3  2  0
  3  4  1  0
  4  5  1  0
  5  6  1  1
  5  7  1  0
  7  8  1  6
  7  9  1  0
  7 10  1  0
 10 11  2  0
 10 12  1  0
 12 13  1  0
 13 14  1  0
 14 15  2  0
 15 16  1  0
 16 17  1  0
 17 18  1  0
 18 19  1  0
 20 19  1  1
 20 21  1  0
 21 22  1  0
 22 23  2  0
 20 24  1  0
 22  3  1  0
 24 14  1  0
 24 17  1  1
M  END
>  <id>  (197) 
SANC00771_minRM1.pdb

>  <SMILES>  (197) 
C/C=C1\C[C@@H](C)[C@@](C)(O)C(=O)OCC2=CCN3CC[C@@H](OC1=O)[C@@H]23

>  <warheads>  (197) 
ab_unsat_carbonyl:1

>  <n_warheads>  (197) 
1

>  <max_tier>  (197) 
1

>  <pains_flag>  (197) 


>  <MW>  (197) 
335.4

>  <cLogP>  (197) 
1.19

>  <HBD>  (197) 
1

>  <HBA>  (197) 
6

>  <TPSA>  (197) 
76.1

>  <ArRings>  (197) 
0

$$$$
SANC00774_minRM1.pdb
     RDKit          2D

 26 27  0  0  0  0  0  0  0  0999 V2000
   -3.7455   -7.5943    0.0000 C   0  0  0  0  0  0  0  0  0  0  0  0
   -3.7455   -6.0943    0.0000 C   0  0  0  0  0  0  0  0  0  0  0  0
   -2.4465   -5.3443    0.0000 C   0  0  0  0  0  0  0  0  0  0  0  0
   -1.3858   -6.4049    0.0000 C   0  0  0  0  0  0  0  0  0  0  0  0
    0.0631   -6.7931    0.0000 C   0  0  0  0  0  0  0  0  0  0  0  0
    0.0631   -8.2931    0.0000 C   0  0  0  0  0  0  0  0  0  0  0  0
    1.5120   -6.4049    0.0000 C   0  0  0  0  0  0  0  0  0  0  0  0
    1.3812   -7.8992    0.0000 C   0  0  0  0  0  0  0  0  0  0  0  0
    2.8714   -7.0388    0.0000 O   0  0  0  0  0  0  0  0  0  0  0  0
    2.5726   -5.3443    0.0000 C   0  0  0  0  0  0  0  0  0  0  0  0
    3.8717   -6.0943    0.0000 O   0  0  0  0  0  0  0  0  0  0  0  0
    2.9608   -3.8954    0.0000 O   0  0  0  0  0  0  0  0  0  0  0  0
    2.5726   -2.4465    0.0000 C   0  0  0  0  0  0  0  0  0  0  0  0
    1.3858   -1.3858    0.0000 C   0  0  0  0  0  0  0  0  0  0  0  0
    1.9598    0.0000    0.0000 C   0  0  0  0  0  0  0  0  0  0  0  0
    1.3858    1.3858    0.0000 C   0  0  0  0  0  0  0  0  0  0  0  0
    0.0000    1.9598    0.0000 N   0  0  0  0  0  0  0  0  0  0  0  0
    0.0000    3.4598    0.0000 C   0  0  0  0  0  0  0  0  0  0  0  0
   -1.3858    1.3858    0.0000 C   0  0  0  0  0  0  0  0  0  0  0  0
   -1.9598    0.0000    0.0000 C   0  0  0  0  0  0  0  0  0  0  0  0
   -1.3858   -1.3858    0.0000 C   0  0  0  0  0  0  0  0  0  0  0  0
   -2.4465   -2.4465    0.0000 O   0  0  0  0  0  0  0  0  0  0  0  0
   -2.8347   -3.8954    0.0000 C   0  0  0  0  0  0  0  0  0  0  0  0
   -4.3347   -3.8954    0.0000 O   0  0  0  0  0  0  0  0  0  0  0  0
   -0.0000   -1.9598    0.0000 C   0  0  0  0  0  0  0  0  0  0  0  0
   -0.0000   -3.4598    0.0000 O   0  0  0  0  0  0  0  0  0  0  0  0
  1  2  1  0
  2  3  2  0
  3  4  1  0
  4  5  1  0
  5  6  1  6
  5  7  1  0
  7  8  1  1
  7  9  1  0
  7 10  1  0
 10 11  2  0
 10 12  1  0
 12 13  1  0
 13 14  1  0
 14 15  2  0
 15 16  1  0
 16 17  1  0
 17 18  1  0
 17 19  1  0
 19 20  1  0
 21 20  1  6
 21 22  1  0
 22 23  1  0
 23 24  2  0
 21 25  1  0
 25 26  2  0
 23  3  1  0
 25 14  1  0
M  END
>  <id>  (198) 
SANC00774_minRM1.pdb

>  <SMILES>  (198) 
C/C=C1\C[C@@H](C)[C@@](C)(O)C(=O)OC/C2=C/CN(C)CC[C@@H](OC1=O)C2=O

>  <warheads>  (198) 
ab_unsat_carbonyl:2

>  <n_warheads>  (198) 
2

>  <max_tier>  (198) 
1

>  <pains_flag>  (198) 


>  <MW>  (198) 
365.4

>  <cLogP>  (198) 
1.01

>  <HBD>  (198) 
1

>  <HBA>  (198) 
7

>  <TPSA>  (198) 
93.1

>  <ArRings>  (198) 
0

$$$$
SANC00781_minRM1.pdb
     RDKit          2D

 27 29  0  0  0  0  0  0  0  0999 V2000
    2.5159    3.2595    0.0000 C   0  0  0  0  0  0  0  0  0  0  0  0
    1.0159    3.2595    0.0000 C   0  0  0  0  0  0  0  0  0  0  0  0
    0.6276    1.8107    0.0000 C   0  0  0  0  0  0  0  0  0  0  0  0
   -0.4330    0.7500    0.0000 C   0  0  0  0  0  0  0  0  0  0  0  0
    0.8660    0.0000    0.0000 O   0  0  0  0  0  0  0  0  0  0  0  0
   -0.4330   -0.7500    0.0000 C   0  0  0  0  0  0  0  0  0  0  0  0
   -1.1830   -2.0490    0.0000 C   0  0  0  0  0  0  0  0  0  0  0  0
   -1.8819    0.3618    0.0000 C   0  0  0  0  0  0  0  0  0  0  0  0
   -1.8819   -1.1382    0.0000 O   0  0  0  0  0  0  0  0  0  0  0  0
   -3.3308    0.7500    0.0000 O   0  0  0  0  0  0  0  0  0  0  0  0
   -4.3915    1.8107    0.0000 C   0  0  0  0  0  0  0  0  0  0  0  0
   -5.7773    1.3628    0.0000 C   0  0  0  0  0  0  0  0  0  0  0  0
   -7.1631    1.9368    0.0000 C   0  0  0  0  0  0  0  0  0  0  0  0
   -7.7371    3.3226    0.0000 N   0  0  0  0  0  0  0  0  0  0  0  0
   -9.2371    3.3226    0.0000 C   0  0  0  0  0  0  0  0  0  0  0  0
   -7.1631    4.7084    0.0000 C   0  0  0  0  0  0  0  0  0  0  0  0
   -5.7773    5.2825    0.0000 C   0  0  0  0  0  0  0  0  0  0  0  0
   -4.3915    4.7084    0.0000 C   0  0  0  0  0  0  0  0  0  0  0  0
   -3.3308    5.7691    0.0000 C   0  0  0  0  0  0  0  0  0  0  0  0
   -1.8819    6.1573    0.0000 O   0  0  0  0  0  0  0  0  0  0  0  0
   -0.4330    5.7691    0.0000 C   0  0  0  0  0  0  0  0  0  0  0  0
    0.3170    7.0681    0.0000 O   0  0  0  0  0  0  0  0  0  0  0  0
    0.6276    4.7084    0.0000 C   0  0  0  0  0  0  0  0  0  0  0  0
    1.2616    6.0679    0.0000 C   0  0  0  0  0  0  0  0  0  0  0  0
    2.1219    4.5777    0.0000 O   0  0  0  0  0  0  0  0  0  0  0  0
   -4.7797    3.2595    0.0000 C   0  0  0  0  0  0  0  0  0  0  0  0
   -6.2797    3.2595    0.0000 O   0  0  0  0  0  0  0  0  0  0  0  0
  2  1  1  6
  2  3  1  0
  4  3  1  6
  4  5  1  0
  5  6  1  0
  6  7  1  1
  4  8  1  0
  8  9  2  0
  8 10  1  0
 10 11  1  0
 11 12  1  6
 12 13  1  0
 13 14  1  0
 14 15  1  0
 14 16  1  0
 16 17  1  0
 17 18  2  0
 18 19  1  0
 19 20  1  0
 20 21  1  0
 21 22  2  0
 21 23  1  0
 23 24  1  1
 23 25  1  0
 18 26  1  0
 26 27  2  0
 23  2  1  0
  6  4  1  0
 26 11  1  0
M  END
>  <id>  (199) 
SANC00781_minRM1.pdb

>  <SMILES>  (199) 
C[C@@H]1C[C@@]2(O[C@H]2C)C(=O)O[C@@H]2CCN(C)C/C=C(/COC(=O)[C@]1(C)O)C2=O

>  <warheads>  (199) 
ab_unsat_carbonyl:1

>  <n_warheads>  (199) 
1

>  <max_tier>  (199) 
1

>  <pains_flag>  (199) 


>  <MW>  (199) 
381.4

>  <cLogP>  (199) 
0.22

>  <HBD>  (199) 
1

>  <HBA>  (199) 
8

>  <TPSA>  (199) 
105.7

>  <ArRings>  (199) 
0

$$$$
SANC00782_minRM1.pdb
     RDKit          2D

 30 32  0  0  0  0  0  0  0  0999 V2000
   -8.2404    0.8434    0.0000 C   0  0  0  0  0  0  0  0  0  0  0  0
   -6.7461    0.7127    0.0000 C   0  0  0  0  0  0  0  0  0  0  0  0
   -6.1122   -0.6468    0.0000 O   0  0  0  0  0  0  0  0  0  0  0  0
   -5.8857    1.9414    0.0000 O   0  0  0  0  0  0  0  0  0  0  0  0
   -4.3915    1.8107    0.0000 C   0  0  0  0  0  0  0  0  0  0  0  0
   -5.0254    0.4512    0.0000 C   0  0  0  0  0  0  0  0  0  0  0  0
   -4.7797    3.2595    0.0000 C   0  0  0  0  0  0  0  0  0  0  0  0
   -6.2797    3.2595    0.0000 O   0  0  0  0  0  0  0  0  0  0  0  0
   -4.3915    4.7084    0.0000 O   0  0  0  0  0  0  0  0  0  0  0  0
   -3.3308    5.7691    0.0000 C   0  0  0  0  0  0  0  0  0  0  0  0
   -1.8819    6.1573    0.0000 C   0  0  0  0  0  0  0  0  0  0  0  0
   -1.5769    7.5814    0.0000 C   0  0  0  0  0  0  0  0  0  0  0  0
   -0.3868    8.4946    0.0000 C   0  0  0  0  0  0  0  0  0  0  0  0
    1.1003    8.2988    0.0000 N   0  0  0  0  0  0  0  0  0  0  0  0
    1.8503    9.5978    0.0000 C   0  0  0  0  0  0  0  0  0  0  0  0
    2.0135    7.1087    0.0000 C   0  0  0  0  0  0  0  0  0  0  0  0
    1.8177    5.6216    0.0000 C   0  0  0  0  0  0  0  0  0  0  0  0
    0.6276    4.7084    0.0000 C   0  0  0  0  0  0  0  0  0  0  0  0
    1.0159    3.2595    0.0000 O   0  0  0  0  0  0  0  0  0  0  0  0
    0.6276    1.8107    0.0000 C   0  0  0  0  0  0  0  0  0  0  0  0
    1.9267    1.0607    0.0000 O   0  0  0  0  0  0  0  0  0  0  0  0
   -0.4330    0.7500    0.0000 C   0  0  0  0  0  0  0  0  0  0  0  0
   -1.8819    0.3618    0.0000 C   0  0  0  0  0  0  0  0  0  0  0  0
   -3.3308    0.7500    0.0000 C   0  0  0  0  0  0  0  0  0  0  0  0
   -4.0808   -0.5490    0.0000 C   0  0  0  0  0  0  0  0  0  0  0  0
    0.8660    0.0000    0.0000 O   0  0  0  0  0  0  0  0  0  0  0  0
   -0.4330   -0.7500    0.0000 C   0  0  0  0  0  0  0  0  0  0  0  0
   -1.1830   -2.0490    0.0000 C   0  0  0  0  0  0  0  0  0  0  0  0
   -0.4330    5.7691    0.0000 C   0  0  0  0  0  0  0  0  0  0  0  0
    0.3170    7.0681    0.0000 O   0  0  0  0  0  0  0  0  0  0  0  0
  1  2  1  0
  2  3  2  0
  2  4  1  0
  4  5  1  0
  5  6  1  6
  5  7  1  0
  7  8  2  0
  7  9  1  0
  9 10  1  0
 10 11  1  0
 11 12  2  0
 12 13  1  0
 13 14  1  0
 14 15  1  0
 14 16  1  0
 16 17  1  0
 18 17  1  1
 18 19  1  0
 19 20  1  0
 20 21  2  0
 20 22  1  0
 22 23  1  6
 23 24  1  0
 24 25  1  1
 22 26  1  0
 26 27  1  0
 27 28  1  1
 18 29  1  0
 29 30  2  0
 24  5  1  0
 29 11  1  0
 27 22  1  0
M  END
>  <id>  (200) 
SANC00782_minRM1.pdb

>  <SMILES>  (200) 
CC(=O)O[C@@]1(C)C(=O)OC/C2=C/CN(C)CC[C@@H](OC(=O)[C@@]3(C[C@H]1C)O[C@H]3C)C2=O

>  <warheads>  (200) 
ab_unsat_carbonyl:1

>  <n_warheads>  (200) 
1

>  <max_tier>  (200) 
1

>  <pains_flag>  (200) 


>  <MW>  (200) 
423.5

>  <cLogP>  (200) 
0.79

>  <HBD>  (200) 
0

>  <HBA>  (200) 
9

>  <TPSA>  (200) 
111.7

>  <ArRings>  (200) 
0

$$$$
SANC00783_minRM1.pdb
     RDKit          2D

 31 32  0  0  0  0  0  0  0  0999 V2000
    4.3616   -9.1671    0.0000 C   0  0  0  0  0  0  0  0  0  0  0  0
    3.0022   -8.5331    0.0000 C   0  0  0  0  0  0  0  0  0  0  0  0
    1.7734   -9.3935    0.0000 O   0  0  0  0  0  0  0  0  0  0  0  0
    2.8714   -7.0388    0.0000 O   0  0  0  0  0  0  0  0  0  0  0  0
    1.5120   -6.4049    0.0000 C   0  0  0  0  0  0  0  0  0  0  0  0
    1.3812   -7.8992    0.0000 C   0  0  0  0  0  0  0  0  0  0  0  0
    2.5726   -5.3443    0.0000 C   0  0  0  0  0  0  0  0  0  0  0  0
    3.8717   -6.0943    0.0000 O   0  0  0  0  0  0  0  0  0  0  0  0
    2.9608   -3.8954    0.0000 O   0  0  0  0  0  0  0  0  0  0  0  0
    2.5726   -2.4465    0.0000 C   0  0  0  0  0  0  0  0  0  0  0  0
    1.3858   -1.3858    0.0000 C   0  0  0  0  0  0  0  0  0  0  0  0
    1.9598    0.0000    0.0000 C   0  0  0  0  0  0  0  0  0  0  0  0
    1.3858    1.3858    0.0000 C   0  0  0  0  0  0  0  0  0  0  0  0
    0.0000    1.9598    0.0000 N   0  0  0  0  0  0  0  0  0  0  0  0
    0.0000    3.4598    0.0000 C   0  0  0  0  0  0  0  0  0  0  0  0
   -1.3858    1.3858    0.0000 C   0  0  0  0  0  0  0  0  0  0  0  0
   -1.9598    0.0000    0.0000 C   0  0  0  0  0  0  0  0  0  0  0  0
   -1.3858   -1.3858    0.0000 C   0  0  0  0  0  0  0  0  0  0  0  0
   -2.4465   -2.4465    0.0000 O   0  0  0  0  0  0  0  0  0  0  0  0
   -2.8347   -3.8954    0.0000 C   0  0  0  0  0  0  0  0  0  0  0  0
   -3.8115   -3.7754    0.0000 O   0  0  0  0  0  0  0  0  0  0  0  0
   -2.4465   -5.3443    0.0000 C   0  0  0  0  0  0  0  0  0  0  0  0
   -3.0804   -6.7037    0.0000 O   0  0  0  0  0  0  0  0  0  0  0  0
   -3.9408   -5.2135    0.0000 C   0  0  0  0  0  0  0  0  0  0  0  0
   -4.4623   -4.3789    0.0000 C   0  0  0  0  0  0  0  0  0  0  0  0
   -4.8011   -6.4423    0.0000 O   0  0  0  0  0  0  0  0  0  0  0  0
   -1.3858   -6.4049    0.0000 C   0  0  0  0  0  0  0  0  0  0  0  0
    0.0631   -6.7931    0.0000 C   0  0  0  0  0  0  0  0  0  0  0  0
    0.0631   -8.2931    0.0000 C   0  0  0  0  0  0  0  0  0  0  0  0
   -0.0000   -1.9598    0.0000 C   0  0  0  0  0  0  0  0  0  0  0  0
   -0.0000   -3.4598    0.0000 O   0  0  0  0  0  0  0  0  0  0  0  0
  1  2  1  0
  2  3  2  0
  2  4  1  0
  4  5  1  0
  5  6  1  6
  5  7  1  0
  7  8  2  0
  7  9  1  0
  9 10  1  0
 10 11  1  0
 11 12  2  0
 12 13  1  0
 13 14  1  0
 14 15  1  0
 14 16  1  0
 16 17  1  0
 18 17  1  1
 18 19  1  0
 19 20  1  0
 20 21  2  0
 20 22  1  0
 22 23  1  6
 22 24  1  0
 24 25  1  6
 24 26  1  0
 22 27  1  0
 27 28  1  0
 28 29  1  6
 18 30  1  0
 30 31  2  0
 28  5  1  0
 30 11  1  0
M  END
>  <id>  (201) 
SANC00783_minRM1.pdb

>  <SMILES>  (201) 
CC(=O)O[C@]1(C)C(=O)OC/C2=C/CN(C)CC[C@H](OC(=O)[C@](O)([C@@H](C)O)C[C@H]1C)C2=O

>  <warheads>  (201) 
ab_unsat_carbonyl:1

>  <n_warheads>  (201) 
1

>  <max_tier>  (201) 
1

>  <pains_flag>  (201) 


>  <MW>  (201) 
441.5

>  <cLogP>  (201) 
-0.25

>  <HBD>  (201) 
2

>  <HBA>  (201) 
10

>  <TPSA>  (201) 
139.7

>  <ArRings>  (201) 
0

$$$$
SANC00784_minRM1.pdb
     RDKit          2D

 25 27  0  0  0  0  0  0  0  0999 V2000
   -1.4141    8.0356    0.0000 C   0  0  0  0  0  0  0  0  0  0  0  0
   -1.3356    6.5376    0.0000 C   0  0  0  0  0  0  0  0  0  0  0  0
    0.1316    6.2257    0.0000 C   0  0  0  0  0  0  0  0  0  0  0  0
    1.2463    5.2220    0.0000 C   0  0  0  0  0  0  0  0  0  0  0  0
    2.5043    6.0390    0.0000 C   0  0  0  0  0  0  0  0  0  0  0  0
    3.8409    5.3580    0.0000 C   0  0  0  0  0  0  0  0  0  0  0  0
    1.7099    3.7955    0.0000 C   0  0  0  0  0  0  0  0  0  0  0  0
    3.2078    3.8740    0.0000 O   0  0  0  0  0  0  0  0  0  0  0  0
    1.3980    2.3282    0.0000 O   0  0  0  0  0  0  0  0  0  0  0  0
    0.3943    1.2135    0.0000 C   0  0  0  0  0  0  0  0  0  0  0  0
    1.2760    0.0000    0.0000 C   0  0  0  0  0  0  0  0  0  0  0  0
    0.3943   -1.2135    0.0000 C   0  0  0  0  0  0  0  0  0  0  0  0
   -1.0323   -0.7500    0.0000 N   0  0  0  0  0  0  0  0  0  0  0  0
   -2.4327   -1.2876    0.0000 C   0  0  0  0  0  0  0  0  0  0  0  0
   -3.3766   -0.1218    0.0000 C   0  0  0  0  0  0  0  0  0  0  0  0
   -2.4995    1.0619    0.0000 C   0  0  0  0  0  0  0  0  0  0  0  0
   -3.6142    2.0656    0.0000 C   0  0  0  0  0  0  0  0  0  0  0  0
   -4.0778    3.4921    0.0000 O   0  0  0  0  0  0  0  0  0  0  0  0
   -3.7659    4.9594    0.0000 C   0  0  0  0  0  0  0  0  0  0  0  0
   -5.1024    5.6404    0.0000 O   0  0  0  0  0  0  0  0  0  0  0  0
   -2.7622    6.0741    0.0000 C   0  0  0  0  0  0  0  0  0  0  0  0
   -2.7098    7.5732    0.0000 O   0  0  0  0  0  0  0  0  0  0  0  0
   -4.1530    6.6360    0.0000 C   0  0  0  0  0  0  0  0  0  0  0  0
   -4.3617    8.1214    0.0000 O   0  0  0  0  0  0  0  0  0  0  0  0
   -1.0323    0.7500    0.0000 C   0  0  0  0  0  0  0  0  0  0  0  0
  1  2  2  0
  2  3  1  0
  3  4  1  0
  4  5  2  0
  5  6  1  0
  4  7  1  0
  7  8  2  0
  7  9  1  0
  9 10  1  0
 10 11  1  6
 11 12  1  0
 12 13  1  0
 13 14  1  0
 14 15  1  0
 15 16  2  0
 16 17  1  0
 17 18  1  0
 18 19  1  0
 19 20  2  0
 19 21  1  0
 21 22  1  6
 21 23  1  0
 23 24  1  0
 16 25  1  0
 21  2  1  0
 25 10  1  0
 25 13  1  6
M  END
>  <id>  (202) 
SANC00784_minRM1.pdb

>  <SMILES>  (202) 
C=C1C/C(=C/C)C(=O)O[C@@H]2CCN3CC=C(COC(=O)[C@@]1(O)CO)[C@H]23

>  <warheads>  (202) 
ab_unsat_carbonyl:1

>  <n_warheads>  (202) 
1

>  <max_tier>  (202) 
1

>  <pains_flag>  (202) 


>  <MW>  (202) 
349.4

>  <cLogP>  (202) 
0.09

>  <HBD>  (202) 
2

>  <HBA>  (202) 
7

>  <TPSA>  (202) 
96.3

>  <ArRings>  (202) 
0

$$$$
SANC00787_minRM1.pdb
     RDKit          2D

 28 29  0  0  0  0  0  0  0  0999 V2000
    0.0631   -8.2931    0.0000 C   0  0  0  0  0  0  0  0  0  0  0  0
    0.0631   -6.7931    0.0000 C   0  0  0  0  0  0  0  0  0  0  0  0
    1.5120   -6.4049    0.0000 C   0  0  0  0  0  0  0  0  0  0  0  0
    2.5726   -5.3443    0.0000 C   0  0  0  0  0  0  0  0  0  0  0  0
    4.0669   -5.2135    0.0000 O   0  0  0  0  0  0  0  0  0  0  0  0
    3.2065   -6.7037    0.0000 C   0  0  0  0  0  0  0  0  0  0  0  0
    4.7008   -6.8345    0.0000 C   0  0  0  0  0  0  0  0  0  0  0  0
    2.3462   -7.9324    0.0000 O   0  0  0  0  0  0  0  0  0  0  0  0
    2.9608   -3.8954    0.0000 C   0  0  0  0  0  0  0  0  0  0  0  0
    4.4608   -3.8954    0.0000 O   0  0  0  0  0  0  0  0  0  0  0  0
    2.5726   -2.4465    0.0000 O   0  0  0  0  0  0  0  0  0  0  0  0
    1.3858   -1.3858    0.0000 C   0  0  0  0  0  0  0  0  0  0  0  0
    1.9598    0.0000    0.0000 C   0  0  0  0  0  0  0  0  0  0  0  0
    1.3858    1.3858    0.0000 C   0  0  0  0  0  0  0  0  0  0  0  0
    0.0000    1.9598    0.0000 N   0  0  0  0  0  0  0  0  0  0  0  0
    0.0000    3.4598    0.0000 C   0  0  0  0  0  0  0  0  0  0  0  0
   -1.3858    1.3858    0.0000 C   0  0  0  0  0  0  0  0  0  0  0  0
   -1.9598    0.0000    0.0000 C   0  0  0  0  0  0  0  0  0  0  0  0
   -1.3858   -1.3858    0.0000 C   0  0  0  0  0  0  0  0  0  0  0  0
   -2.4465   -2.4465    0.0000 C   0  0  0  0  0  0  0  0  0  0  0  0
   -2.8347   -3.8954    0.0000 O   0  0  0  0  0  0  0  0  0  0  0  0
   -2.4465   -5.3443    0.0000 C   0  0  0  0  0  0  0  0  0  0  0  0
   -3.7455   -6.0943    0.0000 O   0  0  0  0  0  0  0  0  0  0  0  0
   -1.3858   -6.4049    0.0000 C   0  0  0  0  0  0  0  0  0  0  0  0
   -2.7453   -7.0388    0.0000 C   0  0  0  0  0  0  0  0  0  0  0  0
   -1.2551   -7.8992    0.0000 O   0  0  0  0  0  0  0  0  0  0  0  0
   -0.0000   -1.9598    0.0000 C   0  0  0  0  0  0  0  0  0  0  0  0
   -0.0000   -3.4598    0.0000 O   0  0  0  0  0  0  0  0  0  0  0  0
  2  1  1  1
  2  3  1  0
  3  4  1  0
  4  5  1  1
  4  6  1  0
  6  7  1  6
  6  8  1  0
  4  9  1  0
  9 10  2  0
  9 11  1  0
 11 12  1  0
 12 13  1  1
 13 14  1  0
 14 15  1  0
 15 16  1  0
 15 17  1  0
 17 18  1  0
 18 19  2  0
 19 20  1  0
 20 21  1  0
 21 22  1  0
 22 23  2  0
 22 24  1  0
 24 25  1  1
 24 26  1  0
 19 27  1  0
 27 28  2  0
 24  2  1  0
 27 12  1  0
M  END
>  <id>  (203) 
SANC00787_minRM1.pdb

>  <SMILES>  (203) 
C[C@@H]1C[C@@](O)([C@H](C)O)C(=O)O[C@@H]2CCN(C)C/C=C(/COC(=O)[C@@]1(C)O)C2=O

>  <warheads>  (203) 
ab_unsat_carbonyl:1

>  <n_warheads>  (203) 
1

>  <max_tier>  (203) 
1

>  <pains_flag>  (203) 


>  <MW>  (203) 
399.4

>  <cLogP>  (203) 
-0.82

>  <HBD>  (203) 
3

>  <HBA>  (203) 
9

>  <TPSA>  (203) 
133.6

>  <ArRings>  (203) 
0

$$$$
SANC00788_minRM1.pdb
     RDKit          2D

 31 32  0  0  0  0  0  0  0  0999 V2000
    4.3616   -9.1671    0.0000 C   0  0  0  0  0  0  0  0  0  0  0  0
    3.0022   -8.5331    0.0000 C   0  0  0  0  0  0  0  0  0  0  0  0
    1.7734   -9.3935    0.0000 O   0  0  0  0  0  0  0  0  0  0  0  0
    2.8714   -7.0388    0.0000 O   0  0  0  0  0  0  0  0  0  0  0  0
    1.5120   -6.4049    0.0000 C   0  0  0  0  0  0  0  0  0  0  0  0
    1.3812   -7.8992    0.0000 C   0  0  0  0  0  0  0  0  0  0  0  0
    2.5726   -5.3443    0.0000 C   0  0  0  0  0  0  0  0  0  0  0  0
    3.8717   -6.0943    0.0000 O   0  0  0  0  0  0  0  0  0  0  0  0
    2.9608   -3.8954    0.0000 O   0  0  0  0  0  0  0  0  0  0  0  0
    2.5726   -2.4465    0.0000 C   0  0  0  0  0  0  0  0  0  0  0  0
    1.3858   -1.3858    0.0000 C   0  0  0  0  0  0  0  0  0  0  0  0
    1.9598    0.0000    0.0000 C   0  0  0  0  0  0  0  0  0  0  0  0
    1.3858    1.3858    0.0000 C   0  0  0  0  0  0  0  0  0  0  0  0
    0.0000    1.9598    0.0000 N   0  0  0  0  0  0  0  0  0  0  0  0
    0.0000    3.4598    0.0000 C   0  0  0  0  0  0  0  0  0  0  0  0
   -1.3858    1.3858    0.0000 C   0  0  0  0  0  0  0  0  0  0  0  0
   -1.9598    0.0000    0.0000 C   0  0  0  0  0  0  0  0  0  0  0  0
   -1.3858   -1.3858    0.0000 C   0  0  0  0  0  0  0  0  0  0  0  0
   -2.4465   -2.4465    0.0000 O   0  0  0  0  0  0  0  0  0  0  0  0
   -2.8347   -3.8954    0.0000 C   0  0  0  0  0  0  0  0  0  0  0  0
   -3.8115   -3.7754    0.0000 O   0  0  0  0  0  0  0  0  0  0  0  0
   -2.4465   -5.3443    0.0000 C   0  0  0  0  0  0  0  0  0  0  0  0
   -3.0804   -6.7037    0.0000 O   0  0  0  0  0  0  0  0  0  0  0  0
   -3.9408   -5.2135    0.0000 C   0  0  0  0  0  0  0  0  0  0  0  0
   -4.4623   -4.3789    0.0000 C   0  0  0  0  0  0  0  0  0  0  0  0
   -4.8011   -6.4423    0.0000 Cl  0  0  0  0  0  0  0  0  0  0  0  0
   -1.3858   -6.4049    0.0000 C   0  0  0  0  0  0  0  0  0  0  0  0
    0.0631   -6.7931    0.0000 C   0  0  0  0  0  0  0  0  0  0  0  0
    0.0631   -8.2931    0.0000 C   0  0  0  0  0  0  0  0  0  0  0  0
   -0.0000   -1.9598    0.0000 C   0  0  0  0  0  0  0  0  0  0  0  0
   -0.0000   -3.4598    0.0000 O   0  0  0  0  0  0  0  0  0  0  0  0
  1  2  1  0
  2  3  2  0
  2  4  1  0
  4  5  1  0
  5  6  1  6
  5  7  1  0
  7  8  2  0
  7  9  1  0
  9 10  1  0
 10 11  1  0
 11 12  2  0
 12 13  1  0
 13 14  1  0
 14 15  1  0
 14 16  1  0
 16 17  1  0
 18 17  1  6
 18 19  1  0
 19 20  1  0
 20 21  2  0
 20 22  1  0
 22 23  1  6
 22 24  1  0
 24 25  1  1
 24 26  1  0
 22 27  1  0
 27 28  1  0
 28 29  1  1
 18 30  1  0
 30 31  2  0
 28  5  1  0
 30 11  1  0
M  END
>  <id>  (204) 
SANC00788_minRM1.pdb

>  <SMILES>  (204) 
CC(=O)O[C@]1(C)C(=O)OC/C2=C/CN(C)CC[C@@H](OC(=O)[C@](O)([C@H](C)Cl)C[C@@H]1C)C2=O

>  <warheads>  (204) 
ab_unsat_carbonyl:1

>  <n_warheads>  (204) 
1

>  <max_tier>  (204) 
1

>  <pains_flag>  (204) 


>  <MW>  (204) 
459.9

>  <cLogP>  (204) 
0.99

>  <HBD>  (204) 
1

>  <HBA>  (204) 
9

>  <TPSA>  (204) 
119.4

>  <ArRings>  (204) 
0

$$$$
SANC00789_minRM1.pdb
     RDKit          2D

 24 26  0  0  0  0  0  0  0  0999 V2000
    2.5043    6.0390    0.0000 C   0  0  0  0  0  0  0  0  0  0  0  0
    1.2463    5.2220    0.0000 C   0  0  0  0  0  0  0  0  0  0  0  0
    1.7099    3.7955    0.0000 C   0  0  0  0  0  0  0  0  0  0  0  0
    3.2078    3.8740    0.0000 O   0  0  0  0  0  0  0  0  0  0  0  0
    1.3980    2.3282    0.0000 O   0  0  0  0  0  0  0  0  0  0  0  0
    0.3943    1.2135    0.0000 C   0  0  0  0  0  0  0  0  0  0  0  0
    1.2760    0.0000    0.0000 C   0  0  0  0  0  0  0  0  0  0  0  0
    0.3943   -1.2135    0.0000 C   0  0  0  0  0  0  0  0  0  0  0  0
   -1.0323   -0.7500    0.0000 N   0  0  0  0  0  0  0  0  0  0  0  0
   -2.4327   -1.2876    0.0000 C   0  0  0  0  0  0  0  0  0  0  0  0
   -3.3766   -0.1218    0.0000 C   0  0  0  0  0  0  0  0  0  0  0  0
   -2.4995    1.0619    0.0000 C   0  0  0  0  0  0  0  0  0  0  0  0
   -3.6142    2.0656    0.0000 C   0  0  0  0  0  0  0  0  0  0  0  0
   -4.0778    3.4921    0.0000 O   0  0  0  0  0  0  0  0  0  0  0  0
   -3.7659    4.9594    0.0000 C   0  0  0  0  0  0  0  0  0  0  0  0
   -5.1024    5.6404    0.0000 O   0  0  0  0  0  0  0  0  0  0  0  0
   -2.7622    6.0741    0.0000 C   0  0  0  0  0  0  0  0  0  0  0  0
   -4.1530    6.6360    0.0000 C   0  0  0  0  0  0  0  0  0  0  0  0
   -2.7098    7.5732    0.0000 O   0  0  0  0  0  0  0  0  0  0  0  0
   -1.3356    6.5376    0.0000 C   0  0  0  0  0  0  0  0  0  0  0  0
   -1.4141    8.0356    0.0000 C   0  0  0  0  0  0  0  0  0  0  0  0
    0.1316    6.2257    0.0000 C   0  0  0  0  0  0  0  0  0  0  0  0
    0.8126    7.5623    0.0000 C   0  0  0  0  0  0  0  0  0  0  0  0
   -1.0323    0.7500    0.0000 C   0  0  0  0  0  0  0  0  0  0  0  0
  1  2  2  0
  2  3  1  0
  3  4  2  0
  3  5  1  0
  5  6  1  0
  6  7  1  6
  7  8  1  0
  8  9  1  0
  9 10  1  0
 10 11  1  0
 11 12  2  0
 12 13  1  0
 13 14  1  0
 14 15  1  0
 15 16  2  0
 15 17  1  0
 17 18  1  6
 17 19  1  0
 17 20  1  0
 20 21  1  1
 20 22  1  0
 22 23  1  1
 12 24  1  0
 22  2  1  0
 24  6  1  0
 24  9  1  6
M  END
>  <id>  (205) 
SANC00789_minRM1.pdb

>  <SMILES>  (205) 
C=C1C(=O)O[C@@H]2CCN3CC=C(COC(=O)[C@@](C)(O)[C@@H](C)[C@H]1C)[C@H]23

>  <warheads>  (205) 
ab_unsat_carbonyl:1;exo_methylene_carbonyl:1

>  <n_warheads>  (205) 
2

>  <max_tier>  (205) 
1

>  <pains_flag>  (205) 


>  <MW>  (205) 
335.4

>  <cLogP>  (205) 
1.05

>  <HBD>  (205) 
1

>  <HBA>  (205) 
6

>  <TPSA>  (205) 
76.1

>  <ArRings>  (205) 
0

$$$$
SANC00793_minRM1.pdb
     RDKit          2D

 28 29  0  0  0  0  0  0  0  0999 V2000
    0.0631   -8.2931    0.0000 C   0  0  0  0  0  0  0  0  0  0  0  0
    0.0631   -6.7931    0.0000 C   0  0  0  0  0  0  0  0  0  0  0  0
    1.5120   -6.4049    0.0000 C   0  0  0  0  0  0  0  0  0  0  0  0
    2.5726   -5.3443    0.0000 C   0  0  0  0  0  0  0  0  0  0  0  0
    4.0669   -5.2135    0.0000 O   0  0  0  0  0  0  0  0  0  0  0  0
    3.2065   -6.7037    0.0000 C   0  0  0  0  0  0  0  0  0  0  0  0
    4.7008   -6.8345    0.0000 C   0  0  0  0  0  0  0  0  0  0  0  0
    2.3462   -7.9324    0.0000 Cl  0  0  0  0  0  0  0  0  0  0  0  0
    2.9608   -3.8954    0.0000 C   0  0  0  0  0  0  0  0  0  0  0  0
    4.4608   -3.8954    0.0000 O   0  0  0  0  0  0  0  0  0  0  0  0
    2.5726   -2.4465    0.0000 O   0  0  0  0  0  0  0  0  0  0  0  0
    1.3858   -1.3858    0.0000 C   0  0  0  0  0  0  0  0  0  0  0  0
    1.9598    0.0000    0.0000 C   0  0  0  0  0  0  0  0  0  0  0  0
    1.3858    1.3858    0.0000 C   0  0  0  0  0  0  0  0  0  0  0  0
    0.0000    1.9598    0.0000 N   0  0  0  0  0  0  0  0  0  0  0  0
    0.0000    3.4598    0.0000 C   0  0  0  0  0  0  0  0  0  0  0  0
   -1.3858    1.3858    0.0000 C   0  0  0  0  0  0  0  0  0  0  0  0
   -1.9598    0.0000    0.0000 C   0  0  0  0  0  0  0  0  0  0  0  0
   -1.3858   -1.3858    0.0000 C   0  0  0  0  0  0  0  0  0  0  0  0
   -2.4465   -2.4465    0.0000 C   0  0  0  0  0  0  0  0  0  0  0  0
   -2.8347   -3.8954    0.0000 O   0  0  0  0  0  0  0  0  0  0  0  0
   -2.4465   -5.3443    0.0000 C   0  0  0  0  0  0  0  0  0  0  0  0
   -3.7455   -6.0943    0.0000 O   0  0  0  0  0  0  0  0  0  0  0  0
   -1.3858   -6.4049    0.0000 C   0  0  0  0  0  0  0  0  0  0  0  0
   -2.7453   -7.0388    0.0000 C   0  0  0  0  0  0  0  0  0  0  0  0
   -1.2551   -7.8992    0.0000 O   0  0  0  0  0  0  0  0  0  0  0  0
   -0.0000   -1.9598    0.0000 C   0  0  0  0  0  0  0  0  0  0  0  0
   -0.0000   -3.4598    0.0000 O   0  0  0  0  0  0  0  0  0  0  0  0
  2  1  1  1
  2  3  1  0
  3  4  1  0
  4  5  1  1
  4  6  1  0
  6  7  1  1
  6  8  1  0
  4  9  1  0
  9 10  2  0
  9 11  1  0
 11 12  1  0
 12 13  1  1
 13 14  1  0
 14 15  1  0
 15 16  1  0
 15 17  1  0
 17 18  1  0
 18 19  2  0
 19 20  1  0
 20 21  1  0
 21 22  1  0
 22 23  2  0
 22 24  1  0
 24 25  1  1
 24 26  1  0
 19 27  1  0
 27 28  2  0
 24  2  1  0
 27 12  1  0
M  END
>  <id>  (206) 
SANC00793_minRM1.pdb

>  <SMILES>  (206) 
C[C@@H]1C[C@@](O)([C@@H](C)Cl)C(=O)O[C@@H]2CCN(C)C/C=C(/COC(=O)[C@@]1(C)O)C2=O

>  <warheads>  (206) 
ab_unsat_carbonyl:1

>  <n_warheads>  (206) 
1

>  <max_tier>  (206) 
1

>  <pains_flag>  (206) 


>  <MW>  (206) 
417.9

>  <cLogP>  (206) 
0.42

>  <HBD>  (206) 
2

>  <HBA>  (206) 
8

>  <TPSA>  (206) 
113.4

>  <ArRings>  (206) 
0

$$$$
SANC00796_minRM1.pdb
     RDKit          2D

 26 27  0  0  0  0  0  0  0  0999 V2000
   -3.7455   -7.5943    0.0000 C   0  0  0  0  0  0  0  0  0  0  0  0
   -3.7455   -6.0943    0.0000 C   0  0  0  0  0  0  0  0  0  0  0  0
   -2.4465   -5.3443    0.0000 C   0  0  0  0  0  0  0  0  0  0  0  0
   -1.3858   -6.4049    0.0000 C   0  0  0  0  0  0  0  0  0  0  0  0
    0.0631   -6.7931    0.0000 C   0  0  0  0  0  0  0  0  0  0  0  0
    0.0631   -8.2931    0.0000 C   0  0  0  0  0  0  0  0  0  0  0  0
    1.5120   -6.4049    0.0000 C   0  0  0  0  0  0  0  0  0  0  0  0
    1.3812   -7.8992    0.0000 C   0  0  0  0  0  0  0  0  0  0  0  0
    2.8714   -7.0388    0.0000 O   0  0  0  0  0  0  0  0  0  0  0  0
    2.5726   -5.3443    0.0000 C   0  0  0  0  0  0  0  0  0  0  0  0
    3.8717   -6.0943    0.0000 O   0  0  0  0  0  0  0  0  0  0  0  0
    2.9608   -3.8954    0.0000 O   0  0  0  0  0  0  0  0  0  0  0  0
    2.5726   -2.4465    0.0000 C   0  0  0  0  0  0  0  0  0  0  0  0
    1.3858   -1.3858    0.0000 C   0  0  0  0  0  0  0  0  0  0  0  0
    1.9598    0.0000    0.0000 C   0  0  0  0  0  0  0  0  0  0  0  0
    1.3858    1.3858    0.0000 C   0  0  0  0  0  0  0  0  0  0  0  0
    0.0000    1.9598    0.0000 N   0  0  0  0  0  0  0  0  0  0  0  0
    0.0000    3.4598    0.0000 C   0  0  0  0  0  0  0  0  0  0  0  0
   -1.3858    1.3858    0.0000 C   0  0  0  0  0  0  0  0  0  0  0  0
   -1.9598    0.0000    0.0000 C   0  0  0  0  0  0  0  0  0  0  0  0
   -1.3858   -1.3858    0.0000 C   0  0  0  0  0  0  0  0  0  0  0  0
   -2.4465   -2.4465    0.0000 O   0  0  0  0  0  0  0  0  0  0  0  0
   -2.8347   -3.8954    0.0000 C   0  0  0  0  0  0  0  0  0  0  0  0
   -4.3347   -3.8954    0.0000 O   0  0  0  0  0  0  0  0  0  0  0  0
   -0.0000   -1.9598    0.0000 C   0  0  0  0  0  0  0  0  0  0  0  0
   -0.0000   -3.4598    0.0000 O   0  0  0  0  0  0  0  0  0  0  0  0
  1  2  1  0
  2  3  2  0
  3  4  1  0
  4  5  1  0
  5  6  1  6
  5  7  1  0
  7  8  1  1
  7  9  1  0
  7 10  1  0
 10 11  2  0
 10 12  1  0
 12 13  1  0
 14 13  1  6
 14 15  1  0
 15 16  1  0
 16 17  1  0
 17 18  1  0
 17 19  1  0
 19 20  1  0
 21 20  1  6
 21 22  1  0
 22 23  1  0
 23 24  2  0
 21 25  1  0
 25 26  2  0
 23  3  1  0
 25 14  1  0
M  END
>  <id>  (207) 
SANC00796_minRM1.pdb

>  <SMILES>  (207) 
C/C=C1\C[C@@H](C)[C@@](C)(O)C(=O)OC[C@H]2CCN(C)CC[C@@H](OC1=O)C2=O

>  <warheads>  (207) 
ab_unsat_carbonyl:1

>  <n_warheads>  (207) 
1

>  <max_tier>  (207) 
1

>  <pains_flag>  (207) 


>  <MW>  (207) 
367.4

>  <cLogP>  (207) 
1.09

>  <HBD>  (207) 
1

>  <HBA>  (207) 
7

>  <TPSA>  (207) 
93.1

>  <ArRings>  (207) 
0

$$$$
SANC00797_minRM1.pdb
     RDKit          2D

 25 27  0  0  0  0  0  0  0  0999 V2000
   -1.4141    8.0356    0.0000 C   0  0  0  0  0  0  0  0  0  0  0  0
   -1.3356    6.5376    0.0000 C   0  0  0  0  0  0  0  0  0  0  0  0
    0.1316    6.2257    0.0000 C   0  0  0  0  0  0  0  0  0  0  0  0
    1.2463    5.2220    0.0000 C   0  0  0  0  0  0  0  0  0  0  0  0
    2.5043    6.0390    0.0000 C   0  0  0  0  0  0  0  0  0  0  0  0
    2.4258    7.5370    0.0000 C   0  0  0  0  0  0  0  0  0  0  0  0
    3.6838    8.3539    0.0000 O   0  0  0  0  0  0  0  0  0  0  0  0
    1.7099    3.7955    0.0000 C   0  0  0  0  0  0  0  0  0  0  0  0
    3.2078    3.8740    0.0000 O   0  0  0  0  0  0  0  0  0  0  0  0
    1.3980    2.3282    0.0000 O   0  0  0  0  0  0  0  0  0  0  0  0
    0.3943    1.2135    0.0000 C   0  0  0  0  0  0  0  0  0  0  0  0
    1.2760    0.0000    0.0000 C   0  0  0  0  0  0  0  0  0  0  0  0
    0.3943   -1.2135    0.0000 C   0  0  0  0  0  0  0  0  0  0  0  0
   -1.0323   -0.7500    0.0000 N   0  0  0  0  0  0  0  0  0  0  0  0
   -2.4327   -1.2876    0.0000 C   0  0  0  0  0  0  0  0  0  0  0  0
   -3.3766   -0.1218    0.0000 C   0  0  0  0  0  0  0  0  0  0  0  0
   -2.4995    1.0619    0.0000 C   0  0  0  0  0  0  0  0  0  0  0  0
   -3.6142    2.0656    0.0000 C   0  0  0  0  0  0  0  0  0  0  0  0
   -4.0778    3.4921    0.0000 O   0  0  0  0  0  0  0  0  0  0  0  0
   -3.7659    4.9594    0.0000 C   0  0  0  0  0  0  0  0  0  0  0  0
   -5.1024    5.6404    0.0000 O   0  0  0  0  0  0  0  0  0  0  0  0
   -2.7622    6.0741    0.0000 C   0  0  0  0  0  0  0  0  0  0  0  0
   -4.1530    6.6360    0.0000 C   0  0  0  0  0  0  0  0  0  0  0  0
   -2.7098    7.5732    0.0000 O   0  0  0  0  0  0  0  0  0  0  0  0
   -1.0323    0.7500    0.0000 C   0  0  0  0  0  0  0  0  0  0  0  0
  2  1  1  6
  2  3  1  0
  3  4  1  0
  4  5  2  0
  5  6  1  0
  6  7  1  0
  4  8  1  0
  8  9  2  0
  8 10  1  0
 10 11  1  0
 11 12  1  6
 12 13  1  0
 13 14  1  0
 14 15  1  0
 15 16  1  0
 16 17  2  0
 17 18  1  0
 18 19  1  0
 19 20  1  0
 20 21  2  0
 20 22  1  0
 22 23  1  1
 22 24  1  0
 17 25  1  0
 22  2  1  0
 25 11  1  0
 25 14  1  6
M  END
>  <id>  (208) 
SANC00797_minRM1.pdb

>  <SMILES>  (208) 
C[C@@H]1C/C(=C\CO)C(=O)O[C@@H]2CCN3CC=C(COC(=O)[C@]1(C)O)[C@H]23

>  <warheads>  (208) 
ab_unsat_carbonyl:1

>  <n_warheads>  (208) 
1

>  <max_tier>  (208) 
1

>  <pains_flag>  (208) 


>  <MW>  (208) 
351.4

>  <cLogP>  (208) 
0.17

>  <HBD>  (208) 
2

>  <HBA>  (208) 
7

>  <TPSA>  (208) 
96.3

>  <ArRings>  (208) 
0

$$$$
SANC00799_minRM1.pdb
     RDKit          2D

 27 29  0  0  0  0  0  0  0  0999 V2000
   -1.4141    8.0356    0.0000 C   0  0  0  0  0  0  0  0  0  0  0  0
   -1.3356    6.5376    0.0000 C   0  0  0  0  0  0  0  0  0  0  0  0
    0.1316    6.2257    0.0000 C   0  0  0  0  0  0  0  0  0  0  0  0
    1.2463    5.2220    0.0000 C   0  0  0  0  0  0  0  0  0  0  0  0
    2.5043    6.0390    0.0000 C   0  0  0  0  0  0  0  0  0  0  0  0
    3.8409    5.3580    0.0000 C   0  0  0  0  0  0  0  0  0  0  0  0
    1.7099    3.7955    0.0000 C   0  0  0  0  0  0  0  0  0  0  0  0
    3.2078    3.8740    0.0000 O   0  0  0  0  0  0  0  0  0  0  0  0
    1.3980    2.3282    0.0000 O   0  0  0  0  0  0  0  0  0  0  0  0
    0.3943    1.2135    0.0000 C   0  0  0  0  0  0  0  0  0  0  0  0
    1.2760    0.0000    0.0000 C   0  0  0  0  0  0  0  0  0  0  0  0
    0.3943   -1.2135    0.0000 C   0  0  0  0  0  0  0  0  0  0  0  0
   -1.0323   -0.7500    0.0000 N   0  0  0  0  0  0  0  0  0  0  0  0
   -2.4327   -1.2876    0.0000 C   0  0  0  0  0  0  0  0  0  0  0  0
   -3.3766   -0.1218    0.0000 C   0  0  0  0  0  0  0  0  0  0  0  0
   -2.4995    1.0619    0.0000 C   0  0  0  0  0  0  0  0  0  0  0  0
   -3.6142    2.0656    0.0000 C   0  0  0  0  0  0  0  0  0  0  0  0
   -4.0778    3.4921    0.0000 O   0  0  0  0  0  0  0  0  0  0  0  0
   -3.7659    4.9594    0.0000 C   0  0  0  0  0  0  0  0  0  0  0  0
   -5.1024    5.6404    0.0000 O   0  0  0  0  0  0  0  0  0  0  0  0
   -2.7622    6.0741    0.0000 C   0  0  0  0  0  0  0  0  0  0  0  0
   -4.1530    6.6360    0.0000 C   0  0  0  0  0  0  0  0  0  0  0  0
   -2.7098    7.5732    0.0000 O   0  0  0  0  0  0  0  0  0  0  0  0
   -3.9819    8.3681    0.0000 C   0  0  0  0  0  0  0  0  0  0  0  0
   -3.9296    9.8671    0.0000 C   0  0  0  0  0  0  0  0  0  0  0  0
   -5.3063    7.6638    0.0000 O   0  0  0  0  0  0  0  0  0  0  0  0
   -1.0323    0.7500    0.0000 C   0  0  0  0  0  0  0  0  0  0  0  0
  1  2  2  0
  2  3  1  0
  3  4  1  0
  4  5  2  0
  5  6  1  0
  4  7  1  0
  7  8  2  0
  7  9  1  0
  9 10  1  0
 10 11  1  6
 11 12  1  0
 12 13  1  0
 13 14  1  0
 14 15  1  0
 15 16  2  0
 16 17  1  0
 17 18  1  0
 18 19  1  0
 19 20  2  0
 19 21  1  0
 21 22  1  6
 21 23  1  0
 23 24  1  0
 24 25  1  0
 24 26  2  0
 16 27  1  0
 21  2  1  0
 27 10  1  0
 27 13  1  6
M  END
>  <id>  (209) 
SANC00799_minRM1.pdb

>  <SMILES>  (209) 
C=C1C/C(=C/C)C(=O)O[C@@H]2CCN3CC=C(COC(=O)[C@@]1(C)OC(C)=O)[C@H]23

>  <warheads>  (209) 
ab_unsat_carbonyl:1

>  <n_warheads>  (209) 
1

>  <max_tier>  (209) 
1

>  <pains_flag>  (209) 


>  <MW>  (209) 
375.4

>  <cLogP>  (209) 
1.68

>  <HBD>  (209) 
0

>  <HBA>  (209) 
7

>  <TPSA>  (209) 
82.1

>  <ArRings>  (209) 
0

$$$$
SANC00807_minRM1.pdb
     RDKit          2D

 39 42  0  0  0  0  0  0  0  0999 V2000
    2.1328    3.1443    0.0000 C   0  0  0  0  0  0  0  0  0  0  0  0
    0.7062    2.6807    0.0000 C   0  0  0  0  0  0  0  0  0  0  0  0
    0.3943    1.2135    0.0000 C   0  0  0  0  0  0  0  0  0  0  0  0
    1.2760    0.0000    0.0000 C   0  0  0  0  0  0  0  0  0  0  0  0
    0.3943   -1.2135    0.0000 C   0  0  0  0  0  0  0  0  0  0  0  0
   -1.0323   -0.7500    0.0000 C   0  0  0  0  0  0  0  0  0  0  0  0
   -2.2458   -1.6317    0.0000 C   0  0  0  0  0  0  0  0  0  0  0  0
   -2.2458   -3.1317    0.0000 C   0  0  0  0  0  0  0  0  0  0  0  0
   -3.6724   -3.5952    0.0000 C   0  0  0  0  0  0  0  0  0  0  0  0
   -4.5541   -2.3817    0.0000 O   0  0  0  0  0  0  0  0  0  0  0  0
   -3.6724   -1.1682    0.0000 C   0  0  0  0  0  0  0  0  0  0  0  0
   -1.0323    0.7500    0.0000 C   0  0  0  0  0  0  0  0  0  0  0  0
   -2.4026    0.1399    0.0000 C   0  0  0  0  0  0  0  0  0  0  0  0
   -2.1470    1.7537    0.0000 C   0  0  0  0  0  0  0  0  0  0  0  0
   -3.5736    1.2902    0.0000 O   0  0  0  0  0  0  0  0  0  0  0  0
   -4.6883    2.2939    0.0000 C   0  0  0  0  0  0  0  0  0  0  0  0
   -6.1149    1.8303    0.0000 C   0  0  0  0  0  0  0  0  0  0  0  0
   -4.3764    3.7611    0.0000 O   0  0  0  0  0  0  0  0  0  0  0  0
   -1.8351    3.2209    0.0000 C   0  0  0  0  0  0  0  0  0  0  0  0
   -2.9499    4.2246    0.0000 O   0  0  0  0  0  0  0  0  0  0  0  0
   -2.6380    5.6918    0.0000 C   0  0  0  0  0  0  0  0  0  0  0  0
   -3.7527    6.6955    0.0000 C   0  0  0  0  0  0  0  0  0  0  0  0
   -1.2114    6.1554    0.0000 O   0  0  0  0  0  0  0  0  0  0  0  0
   -0.4086    3.6844    0.0000 C   0  0  0  0  0  0  0  0  0  0  0  0
   -0.0967    5.1517    0.0000 C   0  0  0  0  0  0  0  0  0  0  0  0
   -1.5958    5.2040    0.0000 C   0  0  0  0  0  0  0  0  0  0  0  0
    1.2941    4.5898    0.0000 C   0  0  0  0  0  0  0  0  0  0  0  0
    2.4761    5.5132    0.0000 C   0  0  0  0  0  0  0  0  0  0  0  0
    2.2673    6.9986    0.0000 C   0  0  0  0  0  0  0  0  0  0  0  0
    3.4494    7.9221    0.0000 O   0  0  0  0  0  0  0  0  0  0  0  0
    0.8766    7.5606    0.0000 C   0  0  0  0  0  0  0  0  0  0  0  0
   -0.2381    8.5643    0.0000 C   0  0  0  0  0  0  0  0  0  0  0  0
    1.6715    8.8326    0.0000 C   0  0  0  0  0  0  0  0  0  0  0  0
   -0.3054    6.6371    0.0000 C   0  0  0  0  0  0  0  0  0  0  0  0
   -1.6962    7.1990    0.0000 C   0  0  0  0  0  0  0  0  0  0  0  0
   -1.9050    8.6844    0.0000 C   0  0  0  0  0  0  0  0  0  0  0  0
   -0.7230    9.6079    0.0000 O   0  0  0  0  0  0  0  0  0  0  0  0
   -3.2958    9.2463    0.0000 O   0  0  0  0  0  0  0  0  0  0  0  0
   -3.5045   10.7317    0.0000 C   0  0  0  0  0  0  0  0  0  0  0  0
  1  2  2  0
  2  3  1  0
  3  4  2  0
  4  5  1  0
  5  6  1  0
  6  7  1  1
  7  8  1  0
  8  9  2  0
  9 10  1  0
 10 11  1  0
  6 12  1  0
 12 13  1  1
 12 14  1  0
 14 15  1  1
 15 16  1  0
 16 17  1  0
 16 18  2  0
 14 19  1  0
 19 20  1  6
 20 21  1  0
 21 22  1  0
 21 23  2  0
 19 24  1  0
 24 25  1  0
 25 26  1  1
 25 27  1  0
 27 28  2  0
 28 29  1  0
 29 30  2  0
 29 31  1  0
 31 32  1  0
 31 33  1  0
 31 34  1  0
 34 35  1  1
 35 36  1  0
 36 37  2  0
 36 38  1  0
 38 39  1  0
 24  2  1  6
 34 25  1  0
 12  3  1  0
 11  7  2  0
M  END
>  <id>  (210) 
SANC00807_minRM1.pdb

>  <SMILES>  (210) 
C=C1C2=CC[C@@H](c3ccoc3)[C@]2(C)[C@@H](OC(C)=O)[C@H](OC(C)=O)[C@@H]1[C@@]1(C)C=CC(=O)C(C)(C)[C@@H]1CC(=O)OC

>  <warheads>  (210) 
ab_unsat_carbonyl:1

>  <n_warheads>  (210) 
1

>  <max_tier>  (210) 
1

>  <pains_flag>  (210) 


>  <MW>  (210) 
538.6

>  <cLogP>  (210) 
5.1

>  <HBD>  (210) 
0

>  <HBA>  (210) 
8

>  <TPSA>  (210) 
109.1

>  <ArRings>  (210) 
1

$$$$
SANC00808_minRM1.pdb
     RDKit          2D

 36 39  0  0  0  0  0  0  0  0999 V2000
    2.1328    3.1443    0.0000 C   0  0  0  0  0  0  0  0  0  0  0  0
    0.7062    2.6807    0.0000 C   0  0  0  0  0  0  0  0  0  0  0  0
    0.3943    1.2135    0.0000 C   0  0  0  0  0  0  0  0  0  0  0  0
    1.2760    0.0000    0.0000 C   0  0  0  0  0  0  0  0  0  0  0  0
    0.3943   -1.2135    0.0000 C   0  0  0  0  0  0  0  0  0  0  0  0
   -1.0323   -0.7500    0.0000 C   0  0  0  0  0  0  0  0  0  0  0  0
   -2.2458   -1.6317    0.0000 C   0  0  0  0  0  0  0  0  0  0  0  0
   -2.2458   -3.1317    0.0000 C   0  0  0  0  0  0  0  0  0  0  0  0
   -3.6724   -3.5952    0.0000 C   0  0  0  0  0  0  0  0  0  0  0  0
   -4.5541   -2.3817    0.0000 O   0  0  0  0  0  0  0  0  0  0  0  0
   -3.6724   -1.1682    0.0000 C   0  0  0  0  0  0  0  0  0  0  0  0
   -1.0323    0.7500    0.0000 C   0  0  0  0  0  0  0  0  0  0  0  0
   -2.4026    0.1399    0.0000 C   0  0  0  0  0  0  0  0  0  0  0  0
   -2.1470    1.7537    0.0000 C   0  0  0  0  0  0  0  0  0  0  0  0
   -3.5736    1.2902    0.0000 O   0  0  0  0  0  0  0  0  0  0  0  0
   -1.8351    3.2209    0.0000 C   0  0  0  0  0  0  0  0  0  0  0  0
   -2.9499    4.2246    0.0000 O   0  0  0  0  0  0  0  0  0  0  0  0
   -4.3764    3.7611    0.0000 C   0  0  0  0  0  0  0  0  0  0  0  0
   -5.4912    4.7648    0.0000 C   0  0  0  0  0  0  0  0  0  0  0  0
   -4.6883    2.2939    0.0000 O   0  0  0  0  0  0  0  0  0  0  0  0
   -0.4086    3.6844    0.0000 C   0  0  0  0  0  0  0  0  0  0  0  0
   -0.0967    5.1517    0.0000 C   0  0  0  0  0  0  0  0  0  0  0  0
    1.2941    4.5898    0.0000 C   0  0  0  0  0  0  0  0  0  0  0  0
   -1.5958    5.2040    0.0000 C   0  0  0  0  0  0  0  0  0  0  0  0
   -2.3000    6.5284    0.0000 C   0  0  0  0  0  0  0  0  0  0  0  0
   -1.5051    7.8005    0.0000 C   0  0  0  0  0  0  0  0  0  0  0  0
   -2.2093    9.1249    0.0000 O   0  0  0  0  0  0  0  0  0  0  0  0
   -0.0060    7.7482    0.0000 C   0  0  0  0  0  0  0  0  0  0  0  0
    1.4206    8.2117    0.0000 C   0  0  0  0  0  0  0  0  0  0  0  0
   -0.2148    9.2336    0.0000 C   0  0  0  0  0  0  0  0  0  0  0  0
    0.6982    6.4237    0.0000 C   0  0  0  0  0  0  0  0  0  0  0  0
    2.1973    6.3714    0.0000 C   0  0  0  0  0  0  0  0  0  0  0  0
    2.9922    7.6435    0.0000 C   0  0  0  0  0  0  0  0  0  0  0  0
    2.2880    8.9679    0.0000 O   0  0  0  0  0  0  0  0  0  0  0  0
    4.4912    7.5911    0.0000 O   0  0  0  0  0  0  0  0  0  0  0  0
    5.2861    8.8632    0.0000 C   0  0  0  0  0  0  0  0  0  0  0  0
  1  2  2  0
  2  3  1  0
  3  4  2  0
  4  5  1  0
  5  6  1  0
  6  7  1  1
  7  8  1  0
  8  9  2  0
  9 10  1  0
 10 11  1  0
  6 12  1  0
 12 13  1  1
 12 14  1  0
 14 15  1  1
 14 16  1  0
 16 17  1  6
 17 18  1  0
 18 19  1  0
 18 20  2  0
 16 21  1  0
 21 22  1  0
 22 23  1  6
 22 24  1  0
 24 25  2  0
 25 26  1  0
 26 27  2  0
 26 28  1  0
 28 29  1  0
 28 30  1  0
 28 31  1  0
 31 32  1  6
 32 33  1  0
 33 34  2  0
 33 35  1  0
 35 36  1  0
 21  2  1  6
 31 22  1  0
 12  3  1  0
 11  7  2  0
M  END
>  <id>  (211) 
SANC00808_minRM1.pdb

>  <SMILES>  (211) 
C=C1C2=CC[C@@H](c3ccoc3)[C@]2(C)[C@@H](O)[C@H](OC(C)=O)[C@@H]1[C@@]1(C)C=CC(=O)C(C)(C)[C@@H]1CC(=O)OC

>  <warheads>  (211) 
ab_unsat_carbonyl:1

>  <n_warheads>  (211) 
1

>  <max_tier>  (211) 
1

>  <pains_flag>  (211) 


>  <MW>  (211) 
496.6

>  <cLogP>  (211) 
4.53

>  <HBD>  (211) 
1

>  <HBA>  (211) 
7

>  <TPSA>  (211) 
103.0

>  <ArRings>  (211) 
1

$$$$
SANC00809_minRM1.pdb
     RDKit          2D

 41 44  0  0  0  0  0  0  0  0999 V2000
    2.1328    3.1443    0.0000 C   0  0  0  0  0  0  0  0  0  0  0  0
    0.7062    2.6807    0.0000 C   0  0  0  0  0  0  0  0  0  0  0  0
    0.3943    1.2135    0.0000 C   0  0  0  0  0  0  0  0  0  0  0  0
    1.2760    0.0000    0.0000 C   0  0  0  0  0  0  0  0  0  0  0  0
    0.3943   -1.2135    0.0000 C   0  0  0  0  0  0  0  0  0  0  0  0
   -1.0323   -0.7500    0.0000 C   0  0  0  0  0  0  0  0  0  0  0  0
   -2.2458   -1.6317    0.0000 C   0  0  0  0  0  0  0  0  0  0  0  0
   -2.2458   -3.1317    0.0000 C   0  0  0  0  0  0  0  0  0  0  0  0
   -3.6724   -3.5952    0.0000 C   0  0  0  0  0  0  0  0  0  0  0  0
   -4.1359   -5.0218    0.0000 O   0  0  0  0  0  0  0  0  0  0  0  0
   -4.5541   -2.3817    0.0000 O   0  0  0  0  0  0  0  0  0  0  0  0
   -3.6724   -1.1682    0.0000 C   0  0  0  0  0  0  0  0  0  0  0  0
   -4.1359    0.2584    0.0000 O   0  0  0  0  0  0  0  0  0  0  0  0
   -1.0323    0.7500    0.0000 C   0  0  0  0  0  0  0  0  0  0  0  0
   -2.4026    0.1399    0.0000 C   0  0  0  0  0  0  0  0  0  0  0  0
   -2.1470    1.7537    0.0000 C   0  0  0  0  0  0  0  0  0  0  0  0
   -3.5736    1.2902    0.0000 O   0  0  0  0  0  0  0  0  0  0  0  0
   -4.6883    2.2939    0.0000 C   0  0  0  0  0  0  0  0  0  0  0  0
   -6.1149    1.8303    0.0000 C   0  0  0  0  0  0  0  0  0  0  0  0
   -4.3764    3.7611    0.0000 O   0  0  0  0  0  0  0  0  0  0  0  0
   -1.8351    3.2209    0.0000 C   0  0  0  0  0  0  0  0  0  0  0  0
   -2.9499    4.2246    0.0000 O   0  0  0  0  0  0  0  0  0  0  0  0
   -2.6380    5.6918    0.0000 C   0  0  0  0  0  0  0  0  0  0  0  0
   -3.7527    6.6955    0.0000 C   0  0  0  0  0  0  0  0  0  0  0  0
   -1.2114    6.1554    0.0000 O   0  0  0  0  0  0  0  0  0  0  0  0
   -0.4086    3.6844    0.0000 C   0  0  0  0  0  0  0  0  0  0  0  0
   -0.0967    5.1517    0.0000 C   0  0  0  0  0  0  0  0  0  0  0  0
   -1.5958    5.2040    0.0000 C   0  0  0  0  0  0  0  0  0  0  0  0
    1.2941    4.5898    0.0000 C   0  0  0  0  0  0  0  0  0  0  0  0
    2.4761    5.5132    0.0000 C   0  0  0  0  0  0  0  0  0  0  0  0
    2.2673    6.9986    0.0000 C   0  0  0  0  0  0  0  0  0  0  0  0
    3.4494    7.9221    0.0000 O   0  0  0  0  0  0  0  0  0  0  0  0
    0.8766    7.5606    0.0000 C   0  0  0  0  0  0  0  0  0  0  0  0
   -0.2381    8.5643    0.0000 C   0  0  0  0  0  0  0  0  0  0  0  0
    1.6715    8.8326    0.0000 C   0  0  0  0  0  0  0  0  0  0  0  0
   -0.3054    6.6371    0.0000 C   0  0  0  0  0  0  0  0  0  0  0  0
   -1.6962    7.1990    0.0000 C   0  0  0  0  0  0  0  0  0  0  0  0
   -1.9050    8.6844    0.0000 C   0  0  0  0  0  0  0  0  0  0  0  0
   -0.7230    9.6079    0.0000 O   0  0  0  0  0  0  0  0  0  0  0  0
   -3.2958    9.2463    0.0000 O   0  0  0  0  0  0  0  0  0  0  0  0
   -3.5045   10.7317    0.0000 C   0  0  0  0  0  0  0  0  0  0  0  0
  1  2  2  0
  2  3  1  0
  3  4  2  0
  4  5  1  0
  5  6  1  0
  6  7  1  6
  7  8  2  0
  8  9  1  0
  9 10  1  6
  9 11  1  0
 11 12  1  0
 12 13  2  0
  6 14  1  0
 14 15  1  1
 14 16  1  0
 16 17  1  1
 17 18  1  0
 18 19  1  0
 18 20  2  0
 16 21  1  0
 21 22  1  6
 22 23  1  0
 23 24  1  0
 23 25  2  0
 21 26  1  0
 26 27  1  0
 27 28  1  1
 27 29  1  0
 29 30  2  0
 30 31  1  0
 31 32  2  0
 31 33  1  0
 33 34  1  0
 33 35  1  0
 33 36  1  0
 36 37  1  1
 37 38  1  0
 38 39  2  0
 38 40  1  0
 40 41  1  0
 26  2  1  6
 36 27  1  0
 14  3  1  0
 12  7  1  0
M  END
>  <id>  (212) 
SANC00809_minRM1.pdb

>  <SMILES>  (212) 
C=C1C2=CC[C@H](C3=C[C@H](O)OC3=O)[C@]2(C)[C@@H](OC(C)=O)[C@H](OC(C)=O)[C@@H]1[C@@]1(C)C=CC(=O)C(C)(C)[C@@H]1CC(=O)OC

>  <warheads>  (212) 
ab_unsat_carbonyl:2

>  <n_warheads>  (212) 
2

>  <max_tier>  (212) 
1

>  <pains_flag>  (212) 


>  <MW>  (212) 
570.6

>  <cLogP>  (212) 
3.14

>  <HBD>  (212) 
1

>  <HBA>  (212) 
10

>  <TPSA>  (212) 
142.5

>  <ArRings>  (212) 
0

$$$$
SANC00810_minRM1.pdb
     RDKit          2D

 41 44  0  0  0  0  0  0  0  0999 V2000
    2.1328    3.1443    0.0000 C   0  0  0  0  0  0  0  0  0  0  0  0
    0.7062    2.6807    0.0000 C   0  0  0  0  0  0  0  0  0  0  0  0
    0.3943    1.2135    0.0000 C   0  0  0  0  0  0  0  0  0  0  0  0
    1.2760    0.0000    0.0000 C   0  0  0  0  0  0  0  0  0  0  0  0
    0.3943   -1.2135    0.0000 C   0  0  0  0  0  0  0  0  0  0  0  0
   -1.0323   -0.7500    0.0000 C   0  0  0  0  0  0  0  0  0  0  0  0
   -2.2458   -1.6317    0.0000 C   0  0  0  0  0  0  0  0  0  0  0  0
   -2.2458   -3.1317    0.0000 C   0  0  0  0  0  0  0  0  0  0  0  0
   -3.6724   -3.5952    0.0000 C   0  0  0  0  0  0  0  0  0  0  0  0
   -4.1359   -5.0218    0.0000 O   0  0  0  0  0  0  0  0  0  0  0  0
   -4.5541   -2.3817    0.0000 O   0  0  0  0  0  0  0  0  0  0  0  0
   -3.6724   -1.1682    0.0000 C   0  0  0  0  0  0  0  0  0  0  0  0
   -4.1359    0.2584    0.0000 O   0  0  0  0  0  0  0  0  0  0  0  0
   -1.0323    0.7500    0.0000 C   0  0  0  0  0  0  0  0  0  0  0  0
   -2.4026    0.1399    0.0000 C   0  0  0  0  0  0  0  0  0  0  0  0
   -2.1470    1.7537    0.0000 C   0  0  0  0  0  0  0  0  0  0  0  0
   -3.5736    1.2902    0.0000 O   0  0  0  0  0  0  0  0  0  0  0  0
   -4.6883    2.2939    0.0000 C   0  0  0  0  0  0  0  0  0  0  0  0
   -6.1149    1.8303    0.0000 C   0  0  0  0  0  0  0  0  0  0  0  0
   -4.3764    3.7611    0.0000 O   0  0  0  0  0  0  0  0  0  0  0  0
   -1.8351    3.2209    0.0000 C   0  0  0  0  0  0  0  0  0  0  0  0
   -2.9499    4.2246    0.0000 O   0  0  0  0  0  0  0  0  0  0  0  0
   -2.6380    5.6918    0.0000 C   0  0  0  0  0  0  0  0  0  0  0  0
   -3.7527    6.6955    0.0000 C   0  0  0  0  0  0  0  0  0  0  0  0
   -1.2114    6.1554    0.0000 O   0  0  0  0  0  0  0  0  0  0  0  0
   -0.4086    3.6844    0.0000 C   0  0  0  0  0  0  0  0  0  0  0  0
   -0.0967    5.1517    0.0000 C   0  0  0  0  0  0  0  0  0  0  0  0
   -1.5958    5.2040    0.0000 C   0  0  0  0  0  0  0  0  0  0  0  0
    1.2941    4.5898    0.0000 C   0  0  0  0  0  0  0  0  0  0  0  0
    2.4761    5.5132    0.0000 C   0  0  0  0  0  0  0  0  0  0  0  0
    2.2673    6.9986    0.0000 C   0  0  0  0  0  0  0  0  0  0  0  0
    3.4494    7.9221    0.0000 O   0  0  0  0  0  0  0  0  0  0  0  0
    0.8766    7.5606    0.0000 C   0  0  0  0  0  0  0  0  0  0  0  0
   -0.2381    8.5643    0.0000 C   0  0  0  0  0  0  0  0  0  0  0  0
    1.6715    8.8326    0.0000 C   0  0  0  0  0  0  0  0  0  0  0  0
   -0.3054    6.6371    0.0000 C   0  0  0  0  0  0  0  0  0  0  0  0
   -1.6962    7.1990    0.0000 C   0  0  0  0  0  0  0  0  0  0  0  0
   -1.9050    8.6844    0.0000 C   0  0  0  0  0  0  0  0  0  0  0  0
   -0.7230    9.6079    0.0000 O   0  0  0  0  0  0  0  0  0  0  0  0
   -3.2958    9.2463    0.0000 O   0  0  0  0  0  0  0  0  0  0  0  0
   -3.5045   10.7317    0.0000 C   0  0  0  0  0  0  0  0  0  0  0  0
  1  2  2  0
  2  3  1  0
  3  4  2  0
  4  5  1  0
  5  6  1  0
  6  7  1  6
  7  8  2  0
  8  9  1  0
  9 10  2  0
  9 11  1  0
 11 12  1  0
 12 13  1  6
  6 14  1  0
 14 15  1  1
 14 16  1  0
 16 17  1  1
 17 18  1  0
 18 19  1  0
 18 20  2  0
 16 21  1  0
 21 22  1  6
 22 23  1  0
 23 24  1  0
 23 25  2  0
 21 26  1  0
 26 27  1  0
 27 28  1  1
 27 29  1  0
 29 30  2  0
 30 31  1  0
 31 32  2  0
 31 33  1  0
 33 34  1  0
 33 35  1  0
 33 36  1  0
 36 37  1  1
 37 38  1  0
 38 39  2  0
 38 40  1  0
 40 41  1  0
 26  2  1  6
 36 27  1  0
 14  3  1  0
 12  7  1  0
M  END
>  <id>  (213) 
SANC00810_minRM1.pdb

>  <SMILES>  (213) 
C=C1C2=CC[C@H](C3=CC(=O)O[C@@H]3O)[C@]2(C)[C@@H](OC(C)=O)[C@H](OC(C)=O)[C@@H]1[C@@]1(C)C=CC(=O)C(C)(C)[C@@H]1CC(=O)OC

>  <warheads>  (213) 
ab_unsat_carbonyl:2

>  <n_warheads>  (213) 
2

>  <max_tier>  (213) 
1

>  <pains_flag>  (213) 


>  <MW>  (213) 
570.6

>  <cLogP>  (213) 
3.14

>  <HBD>  (213) 
1

>  <HBA>  (213) 
10

>  <TPSA>  (213) 
142.5

>  <ArRings>  (213) 
0

$$$$
SANC00811_minRM1.pdb
     RDKit          2D

 37 40  0  0  0  0  0  0  0  0999 V2000
    2.1328    3.1443    0.0000 C   0  0  0  0  0  0  0  0  0  0  0  0
    0.7062    2.6807    0.0000 C   0  0  0  0  0  0  0  0  0  0  0  0
    0.3943    1.2135    0.0000 C   0  0  0  0  0  0  0  0  0  0  0  0
    1.2760    0.0000    0.0000 C   0  0  0  0  0  0  0  0  0  0  0  0
    0.3943   -1.2135    0.0000 C   0  0  0  0  0  0  0  0  0  0  0  0
   -1.0323   -0.7500    0.0000 C   0  0  0  0  0  0  0  0  0  0  0  0
   -2.2458   -1.6317    0.0000 C   0  0  0  0  0  0  0  0  0  0  0  0
   -2.2458   -3.1317    0.0000 C   0  0  0  0  0  0  0  0  0  0  0  0
   -3.6724   -3.5952    0.0000 C   0  0  0  0  0  0  0  0  0  0  0  0
   -4.5541   -2.3817    0.0000 O   0  0  0  0  0  0  0  0  0  0  0  0
   -3.6724   -1.1682    0.0000 C   0  0  0  0  0  0  0  0  0  0  0  0
   -4.1359    0.2584    0.0000 O   0  0  0  0  0  0  0  0  0  0  0  0
   -1.0323    0.7500    0.0000 C   0  0  0  0  0  0  0  0  0  0  0  0
   -2.4026    0.1399    0.0000 C   0  0  0  0  0  0  0  0  0  0  0  0
   -2.1470    1.7537    0.0000 C   0  0  0  0  0  0  0  0  0  0  0  0
   -3.5736    1.2902    0.0000 O   0  0  0  0  0  0  0  0  0  0  0  0
   -1.8351    3.2209    0.0000 C   0  0  0  0  0  0  0  0  0  0  0  0
   -2.9499    4.2246    0.0000 O   0  0  0  0  0  0  0  0  0  0  0  0
   -4.3764    3.7611    0.0000 C   0  0  0  0  0  0  0  0  0  0  0  0
   -5.4912    4.7648    0.0000 C   0  0  0  0  0  0  0  0  0  0  0  0
   -4.6883    2.2939    0.0000 O   0  0  0  0  0  0  0  0  0  0  0  0
   -0.4086    3.6844    0.0000 C   0  0  0  0  0  0  0  0  0  0  0  0
   -0.0967    5.1517    0.0000 C   0  0  0  0  0  0  0  0  0  0  0  0
    1.2941    4.5898    0.0000 C   0  0  0  0  0  0  0  0  0  0  0  0
   -1.5958    5.2040    0.0000 C   0  0  0  0  0  0  0  0  0  0  0  0
   -2.3000    6.5284    0.0000 C   0  0  0  0  0  0  0  0  0  0  0  0
   -1.5051    7.8005    0.0000 C   0  0  0  0  0  0  0  0  0  0  0  0
   -2.2093    9.1249    0.0000 O   0  0  0  0  0  0  0  0  0  0  0  0
   -0.0060    7.7482    0.0000 C   0  0  0  0  0  0  0  0  0  0  0  0
    1.4206    8.2117    0.0000 C   0  0  0  0  0  0  0  0  0  0  0  0
   -0.2148    9.2336    0.0000 C   0  0  0  0  0  0  0  0  0  0  0  0
    0.6982    6.4237    0.0000 C   0  0  0  0  0  0  0  0  0  0  0  0
    2.1973    6.3714    0.0000 C   0  0  0  0  0  0  0  0  0  0  0  0
    2.9922    7.6435    0.0000 C   0  0  0  0  0  0  0  0  0  0  0  0
    2.2880    8.9679    0.0000 O   0  0  0  0  0  0  0  0  0  0  0  0
    4.4912    7.5911    0.0000 O   0  0  0  0  0  0  0  0  0  0  0  0
    5.2861    8.8632    0.0000 C   0  0  0  0  0  0  0  0  0  0  0  0
  1  2  2  0
  2  3  1  0
  3  4  2  0
  4  5  1  0
  5  6  1  0
  6  7  1  6
  7  8  2  0
  8  9  1  0
  9 10  1  0
 10 11  1  0
 11 12  2  0
  6 13  1  0
 13 14  1  1
 13 15  1  0
 15 16  1  1
 15 17  1  0
 17 18  1  6
 18 19  1  0
 19 20  1  0
 19 21  2  0
 17 22  1  0
 22 23  1  0
 23 24  1  6
 23 25  1  0
 25 26  2  0
 26 27  1  0
 27 28  2  0
 27 29  1  0
 29 30  1  0
 29 31  1  0
 29 32  1  0
 32 33  1  6
 33 34  1  0
 34 35  2  0
 34 36  1  0
 36 37  1  0
 22  2  1  6
 32 23  1  0
 13  3  1  0
 11  7  1  0
M  END
>  <id>  (214) 
SANC00811_minRM1.pdb

>  <SMILES>  (214) 
C=C1C2=CC[C@H](C3=CCOC3=O)[C@]2(C)[C@@H](O)[C@H](OC(C)=O)[C@@H]1[C@@]1(C)C=CC(=O)C(C)(C)[C@@H]1CC(=O)OC

>  <warheads>  (214) 
ab_unsat_carbonyl:2

>  <n_warheads>  (214) 
2

>  <max_tier>  (214) 
1

>  <pains_flag>  (214) 


>  <MW>  (214) 
512.6

>  <cLogP>  (214) 
3.25

>  <HBD>  (214) 
1

>  <HBA>  (214) 
8

>  <TPSA>  (214) 
116.2

>  <ArRings>  (214) 
0

$$$$
SANC00822_minRM1.pdb
     RDKit          2D

 22 25  0  0  0  0  0  0  0  0999 V2000
    4.8901   -7.0863    0.0000 C   0  0  0  0  0  0  0  0  0  0  0  0
    3.4635   -6.6227    0.0000 C   0  0  0  0  0  0  0  0  0  0  0  0
    2.2500   -7.5044    0.0000 C   0  0  0  0  0  0  0  0  0  0  0  0
    1.0365   -6.6227    0.0000 O   0  0  0  0  0  0  0  0  0  0  0  0
    1.5000   -5.1962    0.0000 C   0  0  0  0  0  0  0  0  0  0  0  0
    3.0000   -5.1962    0.0000 C   0  0  0  0  0  0  0  0  0  0  0  0
    3.7500   -3.8971    0.0000 C   0  0  0  0  0  0  0  0  0  0  0  0
    5.2500   -3.8971    0.0000 O   0  0  0  0  0  0  0  0  0  0  0  0
    3.0000   -2.5981    0.0000 C   0  0  0  0  0  0  0  0  0  0  0  0
    3.7500   -1.2990    0.0000 O   0  0  0  0  0  0  0  0  0  0  0  0
    1.5000   -2.5981    0.0000 C   0  0  0  0  0  0  0  0  0  0  0  0
    0.7500   -3.8971    0.0000 C   0  0  0  0  0  0  0  0  0  0  0  0
   -0.7500   -3.8971    0.0000 C   0  0  0  0  0  0  0  0  0  0  0  0
   -1.5000   -2.5981    0.0000 C   0  0  0  0  0  0  0  0  0  0  0  0
   -0.7500   -1.2990    0.0000 C   0  0  0  0  0  0  0  0  0  0  0  0
    0.7500   -1.2990    0.0000 C   0  0  0  0  0  0  0  0  0  0  0  0
    1.5000    0.0000    0.0000 C   0  0  0  0  0  0  0  0  0  0  0  0
    0.7500    1.2990    0.0000 C   0  0  0  0  0  0  0  0  0  0  0  0
   -0.7500    1.2990    0.0000 C   0  0  0  0  0  0  0  0  0  0  0  0
   -1.5000    0.0000    0.0000 C   0  0  0  0  0  0  0  0  0  0  0  0
   -2.6491   -0.9642    0.0000 C   0  0  0  0  0  0  0  0  0  0  0  0
   -2.6491    0.9642    0.0000 C   0  0  0  0  0  0  0  0  0  0  0  0
  2  1  1  1
  2  3  1  0
  3  4  1  0
  4  5  1  0
  5  6  2  0
  6  7  1  0
  7  8  2  0
  7  9  1  0
  9 10  2  0
  9 11  1  0
 11 12  2  0
 12 13  1  0
 13 14  2  0
 14 15  1  0
 15 16  2  0
 16 17  1  0
 17 18  1  0
 18 19  1  0
 19 20  1  0
 20 21  1  0
 20 22  1  0
  6  2  1  0
 16 11  1  0
 12  5  1  0
 20 15  1  0
M  END
>  <id>  (215) 
SANC00822_minRM1.pdb

>  <SMILES>  (215) 
C[C@H]1COC2=C1C(=O)C(=O)c1c2ccc2c1CCCC2(C)C

>  <warheads>  (215) 
ab_unsat_carbonyl:1

>  <n_warheads>  (215) 
1

>  <max_tier>  (215) 
1

>  <pains_flag>  (215) 
imine_one_A(321)

>  <MW>  (215) 
296.4

>  <cLogP>  (215) 
3.44

>  <HBD>  (215) 
0

>  <HBA>  (215) 
3

>  <TPSA>  (215) 
43.4

>  <ArRings>  (215) 
1

$$$$
SANC00830_minRM1.pdb
     RDKit          2D

 22 23  0  0  0  0  0  0  0  0999 V2000
    3.7500   -1.2990    0.0000 C   0  0  0  0  0  0  0  0  0  0  0  0
    3.0000    0.0000    0.0000 O   0  0  0  0  0  0  0  0  0  0  0  0
    1.5000    0.0000    0.0000 C   0  0  0  0  0  0  0  0  0  0  0  0
    0.7500   -1.2990    0.0000 C   0  0  0  0  0  0  0  0  0  0  0  0
   -0.7500   -1.2990    0.0000 C   0  0  0  0  0  0  0  0  0  0  0  0
   -1.5000   -2.5981    0.0000 O   0  0  0  0  0  0  0  0  0  0  0  0
   -1.5000    0.0000    0.0000 C   0  0  0  0  0  0  0  0  0  0  0  0
   -0.7500    1.2990    0.0000 C   0  0  0  0  0  0  0  0  0  0  0  0
    0.7500    1.2990    0.0000 C   0  0  0  0  0  0  0  0  0  0  0  0
    1.5000    2.5981    0.0000 O   0  0  0  0  0  0  0  0  0  0  0  0
    3.0000    2.5981    0.0000 C   0  0  0  0  0  0  0  0  0  0  0  0
   -1.5000    2.5981    0.0000 C   0  0  0  0  0  0  0  0  0  0  0  0
   -0.7500    3.8971    0.0000 O   0  0  0  0  0  0  0  0  0  0  0  0
   -3.0000    2.5981    0.0000 C   0  0  0  0  0  0  0  0  0  0  0  0
   -3.7500    3.8971    0.0000 C   0  0  0  0  0  0  0  0  0  0  0  0
   -3.0000    5.1962    0.0000 C   0  0  0  0  0  0  0  0  0  0  0  0
   -3.7500    6.4952    0.0000 C   0  0  0  0  0  0  0  0  0  0  0  0
   -1.5000    5.1962    0.0000 O   0  0  0  0  0  0  0  0  0  0  0  0
   -3.7500    1.2990    0.0000 C   0  0  0  0  0  0  0  0  0  0  0  0
   -5.2500    1.2990    0.0000 C   0  0  0  0  0  0  0  0  0  0  0  0
   -3.0000    0.0000    0.0000 C   0  0  0  0  0  0  0  0  0  0  0  0
   -3.7500   -1.2990    0.0000 O   0  0  0  0  0  0  0  0  0  0  0  0
  1  2  1  0
  2  3  1  0
  3  4  2  0
  4  5  1  0
  5  6  1  0
  5  7  2  0
  7  8  1  0
  8  9  2  0
  9 10  1  0
 10 11  1  0
  8 12  1  0
 12 13  2  0
 12 14  1  0
 14 15  1  0
 15 16  1  0
 16 17  1  0
 16 18  2  0
 14 19  2  0
 19 20  1  0
 19 21  1  0
 21 22  2  0
  9  3  1  0
 21  7  1  0
M  END
>  <id>  (216) 
SANC00830_minRM1.pdb

>  <SMILES>  (216) 
COc1cc(O)c2c(c1OC)C(=O)C(CC(C)=O)=C(C)C2=O

>  <warheads>  (216) 
ab_unsat_carbonyl:2

>  <n_warheads>  (216) 
2

>  <max_tier>  (216) 
1

>  <pains_flag>  (216) 
quinone_A(370)

>  <MW>  (216) 
304.3

>  <cLogP>  (216) 
2.08

>  <HBD>  (216) 
1

>  <HBA>  (216) 
6

>  <TPSA>  (216) 
89.9

>  <ArRings>  (216) 
1

$$$$
SANC00837_minRM1.pdb
     RDKit          2D

 38 43  0  0  0  0  0  0  0  0999 V2000
    2.2500   -1.2990    0.0000 C   0  0  0  0  0  0  0  0  0  0  0  0
    0.7500   -1.2990    0.0000 C   0  0  0  0  0  0  0  0  0  0  0  0
    1.5000    0.0000    0.0000 C   0  0  0  0  0  0  0  0  0  0  0  0
    0.7500    1.2990    0.0000 C   0  0  0  0  0  0  0  0  0  0  0  0
   -0.7500    1.2990    0.0000 C   0  0  0  0  0  0  0  0  0  0  0  0
   -1.5000    2.5981    0.0000 O   0  0  0  0  0  0  0  0  0  0  0  0
   -0.7500    3.8971    0.0000 C   0  0  0  0  0  0  0  0  0  0  0  0
    0.7500    3.8971    0.0000 O   0  0  0  0  0  0  0  0  0  0  0  0
    1.5000    5.1962    0.0000 C   0  0  0  0  0  0  0  0  0  0  0  0
    3.0000    5.1962    0.0000 C   0  0  0  0  0  0  0  0  0  0  0  0
    3.7500    3.8971    0.0000 O   0  0  0  0  0  0  0  0  0  0  0  0
    0.7500    6.4952    0.0000 C   0  0  0  0  0  0  0  0  0  0  0  0
    1.5000    7.7942    0.0000 O   0  0  0  0  0  0  0  0  0  0  0  0
   -0.7500    6.4952    0.0000 C   0  0  0  0  0  0  0  0  0  0  0  0
   -1.5000    7.7942    0.0000 O   0  0  0  0  0  0  0  0  0  0  0  0
   -1.5000    5.1962    0.0000 C   0  0  0  0  0  0  0  0  0  0  0  0
   -3.0000    5.1962    0.0000 O   0  0  0  0  0  0  0  0  0  0  0  0
   -1.5000    0.0000    0.0000 C   0  0  0  0  0  0  0  0  0  0  0  0
   -0.7500   -1.2990    0.0000 C   0  0  0  0  0  0  0  0  0  0  0  0
   -1.5000   -2.5981    0.0000 C   0  0  0  0  0  0  0  0  0  0  0  0
   -0.7500   -3.8971    0.0000 C   0  0  0  0  0  0  0  0  0  0  0  0
    0.7500   -3.8971    0.0000 C   0  0  0  0  0  0  0  0  0  0  0  0
    1.5000   -2.5981    0.0000 C   0  0  0  0  0  0  0  0  0  0  0  0
    3.0000   -2.5981    0.0000 C   0  0  0  0  0  0  0  0  0  0  0  0
    3.7500   -3.8971    0.0000 C   0  0  0  0  0  0  0  0  0  0  0  0
    3.0000   -5.1962    0.0000 C   0  0  0  0  0  0  0  0  0  0  0  0
    4.4918   -5.3529    0.0000 C   0  0  0  0  0  0  0  0  0  0  0  0
    3.4635   -6.6227    0.0000 C   0  0  0  0  0  0  0  0  0  0  0  0
    4.8901   -7.0863    0.0000 C   0  0  0  0  0  0  0  0  0  0  0  0
    6.1036   -6.2046    0.0000 C   0  0  0  0  0  0  0  0  0  0  0  0
    7.3172   -7.0863    0.0000 C   0  0  0  0  0  0  0  0  0  0  0  0
    8.7437   -6.6227    0.0000 O   0  0  0  0  0  0  0  0  0  0  0  0
    6.8536   -8.5128    0.0000 O   0  0  0  0  0  0  0  0  0  0  0  0
    5.3536   -8.5128    0.0000 C   0  0  0  0  0  0  0  0  0  0  0  0
    2.2500   -7.5044    0.0000 C   0  0  0  0  0  0  0  0  0  0  0  0
    1.0365   -6.6227    0.0000 C   0  0  0  0  0  0  0  0  0  0  0  0
    1.5000   -5.1962    0.0000 C   0  0  0  0  0  0  0  0  0  0  0  0
    0.0082   -5.3529    0.0000 O   0  0  0  0  0  0  0  0  0  0  0  0
  2  1  1  1
  2  3  1  0
  3  4  1  0
  4  5  1  0
  5  6  1  1
  7  6  1  6
  7  8  1  0
  8  9  1  0
  9 10  1  1
 10 11  1  0
  9 12  1  0
 12 13  1  6
 12 14  1  0
 14 15  1  6
 14 16  1  0
 16 17  1  6
  5 18  1  0
 19 18  1  6
 19 20  1  0
 20 21  1  0
 22 21  1  1
 22 23  1  0
 23 24  1  1
 24 25  1  0
 25 26  1  0
 26 27  1  6
 26 28  1  0
 28 29  1  6
 29 30  2  0
 30 31  1  0
 31 32  2  0
 31 33  1  0
 33 34  1  0
 28 35  1  0
 35 36  1  0
 36 37  1  0
 37 38  1  1
 19  2  1  0
 37 22  1  0
 23  2  1  0
 37 26  1  0
 16  7  1  0
 34 29  1  0
M  END
>  <id>  (217) 
SANC00837_minRM1.pdb

>  <SMILES>  (217) 
C[C@]12CC[C@H](O[C@H]3O[C@H](CO)[C@@H](O)[C@@H](O)[C@H]3O)C[C@H]1CC[C@H]1[C@@H]2CC[C@@]2(C)[C@H](C3=CC(=O)OC3)CC[C@]12O

>  <warheads>  (217) 
ab_unsat_carbonyl:1

>  <n_warheads>  (217) 
1

>  <max_tier>  (217) 
1

>  <pains_flag>  (217) 


>  <MW>  (217) 
536.7

>  <cLogP>  (217) 
1.43

>  <HBD>  (217) 
5

>  <HBA>  (217) 
9

>  <TPSA>  (217) 
145.9

>  <ArRings>  (217) 
0

$$$$
SANC00852_minRM1.pdb
     RDKit          2D

 14 14  0  0  0  0  0  0  0  0999 V2000
    7.5000   -2.5981    0.0000 C   0  0  0  0  0  0  0  0  0  0  0  0
    6.0000   -2.5981    0.0000 O   0  0  0  0  0  0  0  0  0  0  0  0
    5.2500   -1.2990    0.0000 C   0  0  0  0  0  0  0  0  0  0  0  0
    6.0000    0.0000    0.0000 O   0  0  0  0  0  0  0  0  0  0  0  0
    3.7500   -1.2990    0.0000 C   0  0  0  0  0  0  0  0  0  0  0  0
    3.0000    0.0000    0.0000 C   0  0  0  0  0  0  0  0  0  0  0  0
    1.5000    0.0000    0.0000 C   0  0  0  0  0  0  0  0  0  0  0  0
    0.7500   -1.2990    0.0000 C   0  0  0  0  0  0  0  0  0  0  0  0
   -0.7500   -1.2990    0.0000 C   0  0  0  0  0  0  0  0  0  0  0  0
   -1.5000    0.0000    0.0000 C   0  0  0  0  0  0  0  0  0  0  0  0
   -3.0000    0.0000    0.0000 O   0  0  0  0  0  0  0  0  0  0  0  0
   -0.7500    1.2990    0.0000 C   0  0  0  0  0  0  0  0  0  0  0  0
   -1.5000    2.5981    0.0000 O   0  0  0  0  0  0  0  0  0  0  0  0
    0.7500    1.2990    0.0000 C   0  0  0  0  0  0  0  0  0  0  0  0
  1  2  1  0
  2  3  1  0
  3  4  2  0
  3  5  1  0
  5  6  2  0
  6  7  1  0
  7  8  2  0
  8  9  1  0
  9 10  2  0
 10 11  1  0
 10 12  1  0
 12 13  1  0
 12 14  2  0
 14  7  1  0
M  END
>  <id>  (218) 
SANC00852_minRM1.pdb

>  <SMILES>  (218) 
COC(=O)/C=C/c1ccc(O)c(O)c1

>  <warheads>  (218) 
ab_unsat_carbonyl:1

>  <n_warheads>  (218) 
1

>  <max_tier>  (218) 
1

>  <pains_flag>  (218) 
catechol_A(92)

>  <MW>  (218) 
194.2

>  <cLogP>  (218) 
1.28

>  <HBD>  (218) 
2

>  <HBA>  (218) 
4

>  <TPSA>  (218) 
66.8

>  <ArRings>  (218) 
1

$$$$
SANC00853_minRM1.pdb
     RDKit          2D

 26 27  0  0  0  0  0  0  0  0999 V2000
    3.0000   -5.1962    0.0000 O   0  0  0  0  0  0  0  0  0  0  0  0
    1.5000   -5.1962    0.0000 C   0  0  0  0  0  0  0  0  0  0  0  0
    0.7500   -3.8971    0.0000 C   0  0  0  0  0  0  0  0  0  0  0  0
    1.5000   -2.5981    0.0000 C   0  0  0  0  0  0  0  0  0  0  0  0
    0.7500   -1.2990    0.0000 C   0  0  0  0  0  0  0  0  0  0  0  0
    1.5000    0.0000    0.0000 C   0  0  0  0  0  0  0  0  0  0  0  0
    0.7500    1.2990    0.0000 C   0  0  0  0  0  0  0  0  0  0  0  0
   -0.7500    1.2990    0.0000 C   0  0  0  0  0  0  0  0  0  0  0  0
   -1.5000    2.5981    0.0000 O   0  0  0  0  0  0  0  0  0  0  0  0
   -1.5000    0.0000    0.0000 C   0  0  0  0  0  0  0  0  0  0  0  0
   -3.0000    0.0000    0.0000 O   0  0  0  0  0  0  0  0  0  0  0  0
   -0.7500   -1.2990    0.0000 C   0  0  0  0  0  0  0  0  0  0  0  0
    0.7500   -6.4952    0.0000 O   0  0  0  0  0  0  0  0  0  0  0  0
    1.5000   -7.7942    0.0000 C   0  0  0  0  0  0  0  0  0  0  0  0
    0.7500   -9.0933    0.0000 C   0  0  0  0  0  0  0  0  0  0  0  0
    1.5000  -10.3923    0.0000 C   0  0  0  0  0  0  0  0  0  0  0  0
    0.7500  -11.6913    0.0000 C   0  0  0  0  0  0  0  0  0  0  0  0
    1.5000  -12.9904    0.0000 C   0  0  0  0  0  0  0  0  0  0  0  0
    3.0000  -12.9904    0.0000 C   0  0  0  0  0  0  0  0  0  0  0  0
    3.7500  -14.2894    0.0000 O   0  0  0  0  0  0  0  0  0  0  0  0
    3.7500  -11.6913    0.0000 C   0  0  0  0  0  0  0  0  0  0  0  0
    5.2500  -11.6913    0.0000 O   0  0  0  0  0  0  0  0  0  0  0  0
    3.0000  -10.3923    0.0000 C   0  0  0  0  0  0  0  0  0  0  0  0
    3.0000   -7.7942    0.0000 C   0  0  0  0  0  0  0  0  0  0  0  0
    3.7500   -6.4952    0.0000 O   0  0  0  0  0  0  0  0  0  0  0  0
    3.7500   -9.0933    0.0000 O   0  0  0  0  0  0  0  0  0  0  0  0
  1  2  2  0
  2  3  1  0
  3  4  2  0
  4  5  1  0
  5  6  2  0
  6  7  1  0
  7  8  2  0
  8  9  1  0
  8 10  1  0
 10 11  1  0
 10 12  2  0
  2 13  1  0
 13 14  1  0
 14 15  1  1
 15 16  1  0
 16 17  2  0
 17 18  1  0
 18 19  2  0
 19 20  1  0
 19 21  1  0
 21 22  1  0
 21 23  2  0
 14 24  1  0
 24 25  2  0
 24 26  1  0
 12  5  1  0
 23 16  1  0
M  END
>  <id>  (219) 
SANC00853_minRM1.pdb

>  <SMILES>  (219) 
O=C(/C=C/c1ccc(O)c(O)c1)O[C@H](Cc1ccc(O)c(O)c1)C(=O)O

>  <warheads>  (219) 
ab_unsat_carbonyl:1

>  <n_warheads>  (219) 
1

>  <max_tier>  (219) 
1

>  <pains_flag>  (219) 
catechol_A(92)

>  <MW>  (219) 
360.3

>  <cLogP>  (219) 
1.76

>  <HBD>  (219) 
5

>  <HBA>  (219) 
7

>  <TPSA>  (219) 
144.5

>  <ArRings>  (219) 
2

$$$$
SANC00867_minRM1.pdb
     RDKit          2D

 43 47  0  0  0  0  0  0  0  0999 V2000
   -7.5000  -10.3923    0.0000 O   0  0  0  0  0  0  0  0  0  0  0  0
   -8.2500   -9.0933    0.0000 C   0  0  0  0  0  0  0  0  0  0  0  0
   -9.7500   -9.0933    0.0000 C   0  0  0  0  0  0  0  0  0  0  0  0
  -10.5000  -10.3923    0.0000 C   0  0  0  0  0  0  0  0  0  0  0  0
  -12.0000  -10.3923    0.0000 C   0  0  0  0  0  0  0  0  0  0  0  0
  -12.7500   -9.0933    0.0000 C   0  0  0  0  0  0  0  0  0  0  0  0
  -14.2500   -9.0933    0.0000 C   0  0  0  0  0  0  0  0  0  0  0  0
  -15.0000  -10.3923    0.0000 C   0  0  0  0  0  0  0  0  0  0  0  0
  -16.5000  -10.3923    0.0000 O   0  0  0  0  0  0  0  0  0  0  0  0
  -14.2500  -11.6913    0.0000 C   0  0  0  0  0  0  0  0  0  0  0  0
  -12.7500  -11.6913    0.0000 C   0  0  0  0  0  0  0  0  0  0  0  0
   -7.5000   -7.7942    0.0000 O   0  0  0  0  0  0  0  0  0  0  0  0
   -6.0000   -7.7942    0.0000 C   0  0  0  0  0  0  0  0  0  0  0  0
   -5.2500   -6.4952    0.0000 C   0  0  0  0  0  0  0  0  0  0  0  0
   -3.7500   -6.4952    0.0000 O   0  0  0  0  0  0  0  0  0  0  0  0
   -3.0000   -5.1962    0.0000 C   0  0  0  0  0  0  0  0  0  0  0  0
   -1.5000   -5.1962    0.0000 O   0  0  0  0  0  0  0  0  0  0  0  0
   -0.7500   -6.4952    0.0000 C   0  0  0  0  0  0  0  0  0  0  0  0
    0.7500   -6.4952    0.0000 C   0  0  0  0  0  0  0  0  0  0  0  0
    1.5000   -5.1962    0.0000 C   0  0  0  0  0  0  0  0  0  0  0  0
    0.7500   -3.8971    0.0000 C   0  0  0  0  0  0  0  0  0  0  0  0
    1.5000   -2.5981    0.0000 C   0  0  0  0  0  0  0  0  0  0  0  0
    3.0000   -2.5981    0.0000 C   0  0  0  0  0  0  0  0  0  0  0  0
    3.7500   -1.2990    0.0000 O   0  0  0  0  0  0  0  0  0  0  0  0
    3.7500   -3.8971    0.0000 C   0  0  0  0  0  0  0  0  0  0  0  0
    3.0000   -5.1962    0.0000 C   0  0  0  0  0  0  0  0  0  0  0  0
    1.5000   -7.7942    0.0000 O   0  0  0  0  0  0  0  0  0  0  0  0
    0.7500   -9.0933    0.0000 C   0  0  0  0  0  0  0  0  0  0  0  0
    1.5000  -10.3923    0.0000 C   0  0  0  0  0  0  0  0  0  0  0  0
    0.7500  -11.6913    0.0000 C   0  0  0  0  0  0  0  0  0  0  0  0
    1.5000  -12.9904    0.0000 O   0  0  0  0  0  0  0  0  0  0  0  0
   -0.7500  -11.6913    0.0000 C   0  0  0  0  0  0  0  0  0  0  0  0
   -1.5000  -10.3923    0.0000 C   0  0  0  0  0  0  0  0  0  0  0  0
   -3.0000  -10.3923    0.0000 O   0  0  0  0  0  0  0  0  0  0  0  0
   -0.7500   -9.0933    0.0000 C   0  0  0  0  0  0  0  0  0  0  0  0
   -1.5000   -7.7942    0.0000 C   0  0  0  0  0  0  0  0  0  0  0  0
   -3.0000   -7.7942    0.0000 O   0  0  0  0  0  0  0  0  0  0  0  0
   -3.7500   -3.8971    0.0000 C   0  0  0  0  0  0  0  0  0  0  0  0
   -3.0000   -2.5981    0.0000 O   0  0  0  0  0  0  0  0  0  0  0  0
   -5.2500   -3.8971    0.0000 C   0  0  0  0  0  0  0  0  0  0  0  0
   -6.0000   -2.5981    0.0000 O   0  0  0  0  0  0  0  0  0  0  0  0
   -6.0000   -5.1962    0.0000 C   0  0  0  0  0  0  0  0  0  0  0  0
   -7.5000   -5.1962    0.0000 O   0  0  0  0  0  0  0  0  0  0  0  0
  1  2  2  0
  2  3  1  0
  3  4  2  0
  4  5  1  0
  5  6  2  0
  6  7  1  0
  7  8  2  0
  8  9  1  0
  8 10  1  0
 10 11  2  0
  2 12  1  0
 12 13  1  0
 14 13  1  6
 14 15  1  0
 15 16  1  0
 16 17  1  6
 17 18  1  0
 18 19  2  0
 19 20  1  0
 20 21  2  0
 21 22  1  0
 22 23  2  0
 23 24  1  0
 23 25  1  0
 25 26  2  0
 19 27  1  0
 27 28  1  0
 28 29  2  0
 29 30  1  0
 30 31  1  0
 30 32  2  0
 32 33  1  0
 33 34  1  0
 33 35  2  0
 35 36  1  0
 36 37  2  0
 16 38  1  0
 38 39  1  1
 38 40  1  0
 40 41  1  6
 40 42  1  0
 42 43  1  1
 11  5  1  0
 42 14  1  0
 36 18  1  0
 26 20  1  0
 35 28  1  0
M  END
>  <id>  (220) 
SANC00867_minRM1.pdb

>  <SMILES>  (220) 
O=C(/C=C/c1ccc(O)cc1)OC[C@H]1O[C@@H](Oc2c(-c3ccc(O)cc3)oc3cc(O)cc(O)c3c2=O)[C@H](O)[C@@H](O)[C@@H]1O

>  <warheads>  (220) 
ab_unsat_carbonyl:1

>  <n_warheads>  (220) 
1

>  <max_tier>  (220) 
1

>  <pains_flag>  (220) 


>  <MW>  (220) 
594.5

>  <cLogP>  (220) 
1.73

>  <HBD>  (220) 
7

>  <HBA>  (220) 
13

>  <TPSA>  (220) 
216.6

>  <ArRings>  (220) 
4

$$$$
SANC00871_minRM1.pdb
     RDKit          2D

 18 20  0  0  0  0  0  0  0  0999 V2000
    3.0000    0.0000    0.0000 C   0  0  0  0  0  0  0  0  0  0  0  0
    1.5000    0.0000    0.0000 C   0  0  0  0  0  0  0  0  0  0  0  0
    0.7500   -1.2990    0.0000 C   0  0  0  0  0  0  0  0  0  0  0  0
   -0.7500   -1.2990    0.0000 C   0  0  0  0  0  0  0  0  0  0  0  0
   -1.5000   -2.5981    0.0000 O   0  0  0  0  0  0  0  0  0  0  0  0
   -1.5000    0.0000    0.0000 C   0  0  0  0  0  0  0  0  0  0  0  0
   -0.7500    1.2990    0.0000 C   0  0  0  0  0  0  0  0  0  0  0  0
   -2.2500    1.2990    0.0000 C   0  0  0  0  0  0  0  0  0  0  0  0
   -1.5000    2.5981    0.0000 C   0  0  0  0  0  0  0  0  0  0  0  0
   -0.7500    3.8971    0.0000 C   0  0  0  0  0  0  0  0  0  0  0  0
   -1.2135    5.3237    0.0000 O   0  0  0  0  0  0  0  0  0  0  0  0
   -0.0000    6.2054    0.0000 C   0  0  0  0  0  0  0  0  0  0  0  0
   -0.0000    7.7054    0.0000 O   0  0  0  0  0  0  0  0  0  0  0  0
    1.2135    5.3237    0.0000 C   0  0  0  0  0  0  0  0  0  0  0  0
    2.6401    5.7872    0.0000 C   0  0  0  0  0  0  0  0  0  0  0  0
    0.7500    3.8971    0.0000 C   0  0  0  0  0  0  0  0  0  0  0  0
    1.5000    2.5981    0.0000 C   0  0  0  0  0  0  0  0  0  0  0  0
    0.7500    1.2990    0.0000 C   0  0  0  0  0  0  0  0  0  0  0  0
  1  2  2  0
  2  3  1  0
  3  4  1  0
  4  5  1  1
  4  6  1  0
  6  7  1  0
  7  8  1  6
  7  9  1  0
 10  9  1  6
 10 11  1  0
 11 12  1  0
 12 13  2  0
 12 14  1  0
 14 15  2  0
 14 16  1  0
 16 17  1  6
 18 17  1  6
 18  2  1  0
 18  7  1  0
 16 10  1  0
M  END
>  <id>  (221) 
SANC00871_minRM1.pdb

>  <SMILES>  (221) 
C=C1C[C@@H](O)C[C@@]2(C)C[C@@H]3OC(=O)C(=C)[C@@H]3C[C@H]12

>  <warheads>  (221) 
ab_unsat_carbonyl:1;exo_methylene_carbonyl:1

>  <n_warheads>  (221) 
2

>  <max_tier>  (221) 
1

>  <pains_flag>  (221) 


>  <MW>  (221) 
248.3

>  <cLogP>  (221) 
2.21

>  <HBD>  (221) 
1

>  <HBA>  (221) 
3

>  <TPSA>  (221) 
46.5

>  <ArRings>  (221) 
0

$$$$
SANC00872_minRM1.pdb
     RDKit          2D

 19 21  0  0  0  0  0  0  0  0999 V2000
    2.7760    0.0000    0.0000 C   0  0  0  0  0  0  0  0  0  0  0  0
    1.2760    0.0000    0.0000 C   0  0  0  0  0  0  0  0  0  0  0  0
    0.3943    1.2135    0.0000 C   0  0  0  0  0  0  0  0  0  0  0  0
    0.9214    2.6179    0.0000 C   0  0  0  0  0  0  0  0  0  0  0  0
    2.4153    2.7523    0.0000 O   0  0  0  0  0  0  0  0  0  0  0  0
    0.1520    3.9056    0.0000 C   0  0  0  0  0  0  0  0  0  0  0  0
    0.8028    5.2570    0.0000 C   0  0  0  0  0  0  0  0  0  0  0  0
    2.2787    5.5248    0.0000 C   0  0  0  0  0  0  0  0  0  0  0  0
   -0.2814    6.2936    0.0000 C   0  0  0  0  0  0  0  0  0  0  0  0
   -0.0800    7.7800    0.0000 O   0  0  0  0  0  0  0  0  0  0  0  0
   -1.6022    5.5828    0.0000 O   0  0  0  0  0  0  0  0  0  0  0  0
   -1.3344    4.1069    0.0000 C   0  0  0  0  0  0  0  0  0  0  0  0
   -2.4186    3.0703    0.0000 C   0  0  0  0  0  0  0  0  0  0  0  0
   -2.2841    1.5763    0.0000 C   0  0  0  0  0  0  0  0  0  0  0  0
   -3.5718    0.8070    0.0000 C   0  0  0  0  0  0  0  0  0  0  0  0
   -1.0323    0.7500    0.0000 C   0  0  0  0  0  0  0  0  0  0  0  0
   -1.0323   -0.7500    0.0000 C   0  0  0  0  0  0  0  0  0  0  0  0
    0.3943   -1.2135    0.0000 C   0  0  0  0  0  0  0  0  0  0  0  0
    0.8578   -2.6401    0.0000 O   0  0  0  0  0  0  0  0  0  0  0  0
  1  2  1  0
  2  3  2  0
  3  4  1  0
  4  5  1  6
  6  4  1  1
  6  7  1  0
  7  8  1  1
  7  9  1  0
  9 10  2  0
  9 11  1  0
 11 12  1  0
 12 13  1  1
 13 14  1  0
 14 15  1  1
 14 16  1  0
 16 17  1  6
 17 18  1  0
 18 19  2  0
 18  2  1  0
 16  3  1  0
 12  6  1  0
M  END
>  <id>  (222) 
SANC00872_minRM1.pdb

>  <SMILES>  (222) 
CC1=C2[C@@H](O)[C@@H]3[C@H](C)C(=O)O[C@@H]3C[C@H](C)[C@H]2CC1=O

>  <warheads>  (222) 
ab_unsat_carbonyl:1

>  <n_warheads>  (222) 
1

>  <max_tier>  (222) 
1

>  <pains_flag>  (222) 


>  <MW>  (222) 
264.3

>  <cLogP>  (222) 
1.47

>  <HBD>  (222) 
1

>  <HBA>  (222) 
4

>  <TPSA>  (222) 
63.6

>  <ArRings>  (222) 
0

$$$$
SANC00873_minRM1.pdb
     RDKit          2D

 24 29  0  0  0  0  0  0  0  0999 V2000
   -2.4239   -4.0819    0.0000 C   0  0  0  0  0  0  0  0  0  0  0  0
   -1.4202   -2.9672    0.0000 C   0  0  0  0  0  0  0  0  0  0  0  0
   -1.7321   -1.5000    0.0000 C   0  0  0  0  0  0  0  0  0  0  0  0
   -3.0311   -0.7500    0.0000 C   0  0  0  0  0  0  0  0  0  0  0  0
   -4.3301    0.0000    0.0000 O   0  0  0  0  0  0  0  0  0  0  0  0
   -3.0311    0.7500    0.0000 C   0  0  0  0  0  0  0  0  0  0  0  0
   -4.3301    1.5000    0.0000 C   0  0  0  0  0  0  0  0  0  0  0  0
   -4.3301    3.0000    0.0000 C   0  0  0  0  0  0  0  0  0  0  0  0
   -3.0311    3.7500    0.0000 C   0  0  0  0  0  0  0  0  0  0  0  0
   -3.0311    5.2500    0.0000 C   0  0  0  0  0  0  0  0  0  0  0  0
   -3.5441    6.6595    0.0000 C   0  0  0  0  0  0  0  0  0  0  0  0
   -4.5083    4.9895    0.0000 C   0  0  0  0  0  0  0  0  0  0  0  0
   -1.7321    6.0000    0.0000 C   0  0  0  0  0  0  0  0  0  0  0  0
   -0.4330    5.2500    0.0000 C   0  0  0  0  0  0  0  0  0  0  0  0
   -0.4330    3.7500    0.0000 C   0  0  0  0  0  0  0  0  0  0  0  0
   -1.7321    3.0000    0.0000 C   0  0  0  0  0  0  0  0  0  0  0  0
   -0.4330    2.2500    0.0000 C   0  0  0  0  0  0  0  0  0  0  0  0
   -1.7321    1.5000    0.0000 C   0  0  0  0  0  0  0  0  0  0  0  0
   -0.4330    0.7500    0.0000 C   0  0  0  0  0  0  0  0  0  0  0  0
    0.8660    0.0000    0.0000 O   0  0  0  0  0  0  0  0  0  0  0  0
   -0.4330   -0.7500    0.0000 C   0  0  0  0  0  0  0  0  0  0  0  0
    0.6817   -1.7537    0.0000 O   0  0  0  0  0  0  0  0  0  0  0  0
    0.0716   -3.1240    0.0000 C   0  0  0  0  0  0  0  0  0  0  0  0
    0.8216   -4.4231    0.0000 O   0  0  0  0  0  0  0  0  0  0  0  0
  1  2  1  0
  2  3  2  0
  3  4  1  0
  4  5  1  1
  5  6  1  0
  6  7  1  6
  7  8  1  0
  9  8  1  6
  9 10  1  0
 10 11  1  0
 10 12  1  0
 10 13  1  0
 13 14  1  0
 14 15  1  0
 15 16  1  0
 16 17  1  6
 16 18  1  0
 18 19  1  6
 19 20  1  1
 21 20  1  1
 21 22  1  0
 22 23  1  0
 23 24  2  0
 23  2  1  0
 21  3  1  0
  6  4  1  0
 16  9  1  0
 21 19  1  0
 18  6  1  0
M  END
>  <id>  (223) 
SANC00873_minRM1.pdb

>  <SMILES>  (223) 
CC1=C2[C@H]3O[C@]34CC[C@@H]3C(C)(C)CCC[C@@]3(C)[C@@H]4[C@H]3O[C@@]23OC1=O

>  <warheads>  (223) 
ab_unsat_carbonyl:1

>  <n_warheads>  (223) 
1

>  <max_tier>  (223) 
1

>  <pains_flag>  (223) 


>  <MW>  (223) 
330.4

>  <cLogP>  (223) 
3.35

>  <HBD>  (223) 
0

>  <HBA>  (223) 
4

>  <TPSA>  (223) 
51.4

>  <ArRings>  (223) 
0

$$$$
SANC00874_minRM1.pdb
     RDKit          2D

 18 20  0  0  0  0  0  0  0  0999 V2000
   -4.4231   -5.1517    0.0000 C   0  0  0  0  0  0  0  0  0  0  0  0
   -3.1240   -4.4017    0.0000 C   0  0  0  0  0  0  0  0  0  0  0  0
   -2.9672   -2.9099    0.0000 O   0  0  0  0  0  0  0  0  0  0  0  0
   -1.5000   -2.5981    0.0000 C   0  0  0  0  0  0  0  0  0  0  0  0
   -0.7500   -3.8971    0.0000 C   0  0  0  0  0  0  0  0  0  0  0  0
    0.7500   -3.8971    0.0000 C   0  0  0  0  0  0  0  0  0  0  0  0
    1.5000   -5.1962    0.0000 O   0  0  0  0  0  0  0  0  0  0  0  0
    1.5000   -2.5981    0.0000 C   0  0  0  0  0  0  0  0  0  0  0  0
    3.0000   -2.5981    0.0000 O   0  0  0  0  0  0  0  0  0  0  0  0
    0.7500   -1.2990    0.0000 C   0  0  0  0  0  0  0  0  0  0  0  0
    1.5000    0.0000    0.0000 C   0  0  0  0  0  0  0  0  0  0  0  0
    0.7500    1.2990    0.0000 C   0  0  0  0  0  0  0  0  0  0  0  0
   -0.7500    1.2990    0.0000 C   0  0  0  0  0  0  0  0  0  0  0  0
   -1.5000    0.0000    0.0000 C   0  0  0  0  0  0  0  0  0  0  0  0
   -0.7500   -1.2990    0.0000 C   0  0  0  0  0  0  0  0  0  0  0  0
   -1.7537   -5.0118    0.0000 C   0  0  0  0  0  0  0  0  0  0  0  0
   -2.5037   -6.3109    0.0000 C   0  0  0  0  0  0  0  0  0  0  0  0
   -0.5402   -5.8935    0.0000 C   0  0  0  0  0  0  0  0  0  0  0  0
  2  1  1  6
  2  3  1  0
  3  4  1  0
  4  5  2  0
  5  6  1  0
  6  7  2  0
  6  8  1  0
  8  9  2  0
  8 10  1  0
 10 11  2  0
 11 12  1  0
 12 13  2  0
 13 14  1  0
 14 15  2  0
  5 16  1  0
 16 17  1  0
 16 18  1  0
 16  2  1  0
 15  4  1  0
 15 10  1  0
M  END
>  <id>  (224) 
SANC00874_minRM1.pdb

>  <SMILES>  (224) 
C[C@@H]1OC2=C(C(=O)C(=O)c3ccccc32)C1(C)C

>  <warheads>  (224) 
ab_unsat_carbonyl:1

>  <n_warheads>  (224) 
1

>  <max_tier>  (224) 
1

>  <pains_flag>  (224) 
imine_one_A(321)

>  <MW>  (224) 
242.3

>  <cLogP>  (224) 
2.61

>  <HBD>  (224) 
0

>  <HBA>  (224) 
3

>  <TPSA>  (224) 
43.4

>  <ArRings>  (224) 
1

$$$$
SANC00878_minRM1.pdb
     RDKit          2D

 16 18  0  0  0  0  0  0  0  0999 V2000
   -4.0537   -2.9231    0.0000 C   0  0  0  0  0  0  0  0  0  0  0  0
   -3.3037   -1.6240    0.0000 C   0  0  0  0  0  0  0  0  0  0  0  0
   -1.8119   -1.4672    0.0000 C   0  0  0  0  0  0  0  0  0  0  0  0
   -0.5128   -2.2172    0.0000 C   0  0  0  0  0  0  0  0  0  0  0  0
    0.7500   -1.2990    0.0000 C   0  0  0  0  0  0  0  0  0  0  0  0
    1.5000    0.0000    0.0000 C   0  0  0  0  0  0  0  0  0  0  0  0
    0.7500    1.2990    0.0000 C   0  0  0  0  0  0  0  0  0  0  0  0
   -0.7500    1.2990    0.0000 C   0  0  0  0  0  0  0  0  0  0  0  0
   -1.5000    2.5981    0.0000 C   0  0  0  0  0  0  0  0  0  0  0  0
   -1.5000    0.0000    0.0000 C   0  0  0  0  0  0  0  0  0  0  0  0
   -2.7990    0.7500    0.0000 C   0  0  0  0  0  0  0  0  0  0  0  0
   -3.9138   -0.2537    0.0000 C   0  0  0  0  0  0  0  0  0  0  0  0
   -5.3810    0.0582    0.0000 O   0  0  0  0  0  0  0  0  0  0  0  0
   -0.7500   -1.2990    0.0000 C   0  0  0  0  0  0  0  0  0  0  0  0
   -0.8057   -2.0943    0.0000 C   0  0  0  0  0  0  0  0  0  0  0  0
   -1.9935   -2.1379    0.0000 C   0  0  0  0  0  0  0  0  0  0  0  0
  1  2  1  0
  2  3  2  0
  3  4  1  0
  5  4  1  6
  5  6  1  0
  6  7  1  0
  7  8  1  0
  8  9  1  1
  8 10  1  0
 10 11  1  1
 11 12  1  0
 12 13  2  0
 10 14  1  0
 14 15  1  0
 14 16  1  0
 12  2  1  0
 10  3  1  0
 14  5  1  0
M  END
>  <id>  (225) 
SANC00878_minRM1.pdb

>  <SMILES>  (225) 
CC1=C2C[C@H]3CC[C@H](C)[C@]2(CC1=O)C3(C)C

>  <warheads>  (225) 
ab_unsat_carbonyl:1

>  <n_warheads>  (225) 
1

>  <max_tier>  (225) 
1

>  <pains_flag>  (225) 


>  <MW>  (225) 
218.3

>  <cLogP>  (225) 
3.74

>  <HBD>  (225) 
0

>  <HBA>  (225) 
1

>  <TPSA>  (225) 
17.1

>  <ArRings>  (225) 
0

$$$$
SANC00891_minRM1.pdb
     RDKit          2D

 38 40  0  0  0  0  0  0  0  0999 V2000
    3.6581    0.8733    0.0000 C   0  0  0  0  0  0  0  0  0  0  0  0
    3.0000    0.0000    0.0000 C   0  0  0  0  0  0  0  0  0  0  0  0
    1.5000    0.0000    0.0000 C   0  0  0  0  0  0  0  0  0  0  0  0
    0.7500   -1.2990    0.0000 C   0  0  0  0  0  0  0  0  0  0  0  0
    1.5000   -2.5981    0.0000 O   0  0  0  0  0  0  0  0  0  0  0  0
    0.7500   -3.8971    0.0000 C   0  0  0  0  0  0  0  0  0  0  0  0
   -0.7500   -3.8971    0.0000 O   0  0  0  0  0  0  0  0  0  0  0  0
   -1.5000   -5.1962    0.0000 C   0  0  0  0  0  0  0  0  0  0  0  0
   -3.0000   -5.1962    0.0000 C   0  0  0  0  0  0  0  0  0  0  0  0
   -3.7500   -3.8971    0.0000 O   0  0  0  0  0  0  0  0  0  0  0  0
   -0.7500   -6.4952    0.0000 C   0  0  0  0  0  0  0  0  0  0  0  0
   -1.5000   -7.7942    0.0000 O   0  0  0  0  0  0  0  0  0  0  0  0
    0.7500   -6.4952    0.0000 C   0  0  0  0  0  0  0  0  0  0  0  0
    1.5000   -7.7942    0.0000 O   0  0  0  0  0  0  0  0  0  0  0  0
    1.5000   -5.1962    0.0000 C   0  0  0  0  0  0  0  0  0  0  0  0
    3.0000   -5.1962    0.0000 O   0  0  0  0  0  0  0  0  0  0  0  0
   -0.7500   -1.2990    0.0000 O   0  0  0  0  0  0  0  0  0  0  0  0
   -1.5000    0.0000    0.0000 C   0  0  0  0  0  0  0  0  0  0  0  0
   -0.7500    1.2990    0.0000 C   0  0  0  0  0  0  0  0  0  0  0  0
   -1.5000    2.5981    0.0000 C   0  0  0  0  0  0  0  0  0  0  0  0
   -0.7500    3.8971    0.0000 O   0  0  0  0  0  0  0  0  0  0  0  0
   -3.0000    2.5981    0.0000 O   0  0  0  0  0  0  0  0  0  0  0  0
   -3.7500    3.8971    0.0000 C   0  0  0  0  0  0  0  0  0  0  0  0
    0.7500    1.2990    0.0000 C   0  0  0  0  0  0  0  0  0  0  0  0
    1.5000    2.5981    0.0000 C   0  0  0  0  0  0  0  0  0  0  0  0
    3.0000    2.5981    0.0000 C   0  0  0  0  0  0  0  0  0  0  0  0
    3.6581    1.7248    0.0000 O   0  0  0  0  0  0  0  0  0  0  0  0
    3.7500    3.8971    0.0000 O   0  0  0  0  0  0  0  0  0  0  0  0
    5.2500    3.8971    0.0000 C   0  0  0  0  0  0  0  0  0  0  0  0
    6.0000    5.1962    0.0000 C   0  0  0  0  0  0  0  0  0  0  0  0
    7.5000    5.1962    0.0000 C   0  0  0  0  0  0  0  0  0  0  0  0
    8.2500    6.4952    0.0000 C   0  0  0  0  0  0  0  0  0  0  0  0
    9.7500    6.4952    0.0000 C   0  0  0  0  0  0  0  0  0  0  0  0
   10.5000    5.1962    0.0000 C   0  0  0  0  0  0  0  0  0  0  0  0
   12.0000    5.1962    0.0000 O   0  0  0  0  0  0  0  0  0  0  0  0
    9.7500    3.8971    0.0000 C   0  0  0  0  0  0  0  0  0  0  0  0
   10.5000    2.5981    0.0000 O   0  0  0  0  0  0  0  0  0  0  0  0
    8.2500    3.8971    0.0000 C   0  0  0  0  0  0  0  0  0  0  0  0
  1  2  1  0
  2  3  2  0
  3  4  1  0
  4  5  1  6
  6  5  1  1
  6  7  1  0
  7  8  1  0
  8  9  1  1
  9 10  1  0
  8 11  1  0
 11 12  1  6
 11 13  1  0
 13 14  1  1
 13 15  1  0
 15 16  1  6
  4 17  1  0
 17 18  1  0
 18 19  2  0
 19 20  1  0
 20 21  2  0
 20 22  1  0
 22 23  1  0
 19 24  1  0
 24 25  1  1
 25 26  1  0
 26 27  2  0
 26 28  1  0
 28 29  1  0
 29 30  1  0
 30 31  1  0
 31 32  2  0
 32 33  1  0
 33 34  2  0
 34 35  1  0
 34 36  1  0
 36 37  1  0
 36 38  2  0
 24  3  1  0
 38 31  1  0
 15  6  1  0
M  END
>  <id>  (226) 
SANC00891_minRM1.pdb

>  <SMILES>  (226) 
C/C=C1/[C@H](O[C@@H]2O[C@H](CO)[C@@H](O)[C@H](O)[C@H]2O)OC=C(C(=O)OC)[C@H]1CC(=O)OCCc1ccc(O)c(O)c1

>  <warheads>  (226) 
ab_unsat_carbonyl:1

>  <n_warheads>  (226) 
1

>  <max_tier>  (226) 
1

>  <pains_flag>  (226) 
catechol_A(92)

>  <MW>  (226) 
540.5

>  <cLogP>  (226) 
-0.63

>  <HBD>  (226) 
6

>  <HBA>  (226) 
13

>  <TPSA>  (226) 
201.7

>  <ArRings>  (226) 
1

$$$$
SANC00893_minRM1.pdb
     RDKit          2D

 40 43  0  0  0  0  0  0  0  0999 V2000
   -0.7500   -6.4952    0.0000 C   0  0  0  0  0  0  0  0  0  0  0  0
   -1.5000   -5.1962    0.0000 O   0  0  0  0  0  0  0  0  0  0  0  0
   -0.7500   -3.8971    0.0000 C   0  0  0  0  0  0  0  0  0  0  0  0
    0.7500   -3.8971    0.0000 C   0  0  0  0  0  0  0  0  0  0  0  0
    1.5000   -2.5981    0.0000 C   0  0  0  0  0  0  0  0  0  0  0  0
    3.0000   -2.5981    0.0000 C   0  0  0  0  0  0  0  0  0  0  0  0
    0.7500   -1.2990    0.0000 C   0  0  0  0  0  0  0  0  0  0  0  0
    1.5000    0.0000    0.0000 C   0  0  0  0  0  0  0  0  0  0  0  0
    3.0000    0.0000    0.0000 O   0  0  0  0  0  0  0  0  0  0  0  0
    0.7500    1.2990    0.0000 C   0  0  0  0  0  0  0  0  0  0  0  0
   -0.7500    1.2990    0.0000 C   0  0  0  0  0  0  0  0  0  0  0  0
   -1.5000    2.5981    0.0000 C   0  0  0  0  0  0  0  0  0  0  0  0
   -0.7500    3.8971    0.0000 C   0  0  0  0  0  0  0  0  0  0  0  0
   -1.5000    5.1962    0.0000 C   0  0  0  0  0  0  0  0  0  0  0  0
    0.7500    3.8971    0.0000 O   0  0  0  0  0  0  0  0  0  0  0  0
   -1.5000    0.0000    0.0000 O   0  0  0  0  0  0  0  0  0  0  0  0
   -0.7500   -1.2990    0.0000 C   0  0  0  0  0  0  0  0  0  0  0  0
   -1.5000   -2.5981    0.0000 C   0  0  0  0  0  0  0  0  0  0  0  0
   -3.0000   -2.5981    0.0000 C   0  0  0  0  0  0  0  0  0  0  0  0
   -3.7500   -1.2990    0.0000 O   0  0  0  0  0  0  0  0  0  0  0  0
   -5.2500   -1.2990    0.0000 C   0  0  0  0  0  0  0  0  0  0  0  0
   -6.0000    0.0000    0.0000 C   0  0  0  0  0  0  0  0  0  0  0  0
   -5.2500    1.2990    0.0000 O   0  0  0  0  0  0  0  0  0  0  0  0
   -6.0000   -2.5981    0.0000 C   0  0  0  0  0  0  0  0  0  0  0  0
   -7.5000   -2.5981    0.0000 O   0  0  0  0  0  0  0  0  0  0  0  0
   -5.2500   -3.8971    0.0000 C   0  0  0  0  0  0  0  0  0  0  0  0
   -6.0000   -5.1962    0.0000 O   0  0  0  0  0  0  0  0  0  0  0  0
   -3.7500   -3.8971    0.0000 C   0  0  0  0  0  0  0  0  0  0  0  0
   -3.0000   -5.1962    0.0000 O   0  0  0  0  0  0  0  0  0  0  0  0
   -3.7500   -6.4952    0.0000 C   0  0  0  0  0  0  0  0  0  0  0  0
   -5.2500   -6.4952    0.0000 O   0  0  0  0  0  0  0  0  0  0  0  0
   -3.0000   -7.7942    0.0000 C   0  0  0  0  0  0  0  0  0  0  0  0
   -3.7500   -9.0933    0.0000 C   0  0  0  0  0  0  0  0  0  0  0  0
   -3.0000  -10.3923    0.0000 C   0  0  0  0  0  0  0  0  0  0  0  0
   -3.7500  -11.6913    0.0000 C   0  0  0  0  0  0  0  0  0  0  0  0
   -3.0000  -12.9904    0.0000 C   0  0  0  0  0  0  0  0  0  0  0  0
   -1.5000  -12.9904    0.0000 C   0  0  0  0  0  0  0  0  0  0  0  0
   -0.7500  -14.2894    0.0000 O   0  0  0  0  0  0  0  0  0  0  0  0
   -0.7500  -11.6913    0.0000 C   0  0  0  0  0  0  0  0  0  0  0  0
   -1.5000  -10.3923    0.0000 C   0  0  0  0  0  0  0  0  0  0  0  0
  1  2  1  0
  2  3  1  0
  3  4  2  0
  4  5  1  0
  5  6  1  0
  5  7  2  0
  7  8  1  0
  8  9  2  0
  8 10  1  0
 10 11  2  0
 11 12  1  0
 12 13  1  0
 13 14  1  0
 13 15  2  0
 11 16  1  0
 16 17  1  0
 17 18  2  0
 19 18  1  1
 19 20  1  0
 20 21  1  0
 21 22  1  1
 22 23  1  0
 21 24  1  0
 24 25  1  6
 24 26  1  0
 26 27  1  1
 26 28  1  0
 28 29  1  6
 29 30  1  0
 30 31  2  0
 30 32  1  0
 32 33  2  0
 33 34  1  0
 34 35  2  0
 35 36  1  0
 36 37  2  0
 37 38  1  0
 37 39  1  0
 39 40  2  0
 18  3  1  0
 28 19  1  0
 40 34  1  0
 17  7  1  0
M  END
>  <id>  (227) 
SANC00893_minRM1.pdb

>  <SMILES>  (227) 
COc1cc(C)c2c(=O)cc(CC(C)=O)oc2c1[C@@H]1O[C@H](CO)[C@@H](O)[C@H](O)[C@H]1OC(=O)/C=C/c1ccc(O)cc1

>  <warheads>  (227) 
ab_unsat_carbonyl:1

>  <n_warheads>  (227) 
1

>  <max_tier>  (227) 
1

>  <pains_flag>  (227) 


>  <MW>  (227) 
554.5

>  <cLogP>  (227) 
1.73

>  <HBD>  (227) 
4

>  <HBA>  (227) 
11

>  <TPSA>  (227) 
173.0

>  <ArRings>  (227) 
3

$$$$
SANC00903_minRM1.pdb
     RDKit          2D

 11 11  0  0  0  0  0  0  0  0999 V2000
    3.0000    0.0000    0.0000 C   0  0  0  0  0  0  0  0  0  0  0  0
    1.5000    0.0000    0.0000 C   0  0  0  0  0  0  0  0  0  0  0  0
    0.7500   -1.2990    0.0000 C   0  0  0  0  0  0  0  0  0  0  0  0
   -0.7500   -1.2990    0.0000 C   0  0  0  0  0  0  0  0  0  0  0  0
   -1.5000   -2.5981    0.0000 O   0  0  0  0  0  0  0  0  0  0  0  0
   -1.5000    0.0000    0.0000 C   0  0  0  0  0  0  0  0  0  0  0  0
   -3.0000    0.0000    0.0000 C   0  0  0  0  0  0  0  0  0  0  0  0
   -3.7500    1.2990    0.0000 C   0  0  0  0  0  0  0  0  0  0  0  0
   -3.7500   -1.2990    0.0000 C   0  0  0  0  0  0  0  0  0  0  0  0
   -0.7500    1.2990    0.0000 C   0  0  0  0  0  0  0  0  0  0  0  0
    0.7500    1.2990    0.0000 C   0  0  0  0  0  0  0  0  0  0  0  0
  1  2  1  0
  2  3  2  0
  3  4  1  0
  4  5  2  0
  4  6  1  0
  6  7  1  1
  7  8  1  0
  7  9  1  0
  6 10  1  0
 10 11  1  0
 11  2  1  0
M  END
>  <id>  (228) 
SANC00903_minRM1.pdb

>  <SMILES>  (228) 
CC1=CC(=O)[C@@H](C(C)C)CC1

>  <warheads>  (228) 
ab_unsat_carbonyl:1

>  <n_warheads>  (228) 
1

>  <max_tier>  (228) 
1

>  <pains_flag>  (228) 


>  <MW>  (228) 
152.2

>  <cLogP>  (228) 
2.57

>  <HBD>  (228) 
0

>  <HBA>  (228) 
1

>  <TPSA>  (228) 
17.1

>  <ArRings>  (228) 
0

$$$$
SANC00904_minRM1.pdb
     RDKit          2D

 49 55  0  0  0  0  0  0  0  0999 V2000
    2.2500   -1.2990    0.0000 C   0  0  0  0  0  0  0  0  0  0  0  0
    0.7500   -1.2990    0.0000 C   0  0  0  0  0  0  0  0  0  0  0  0
    1.5000    0.0000    0.0000 C   0  0  0  0  0  0  0  0  0  0  0  0
    0.7500    1.2990    0.0000 C   0  0  0  0  0  0  0  0  0  0  0  0
   -0.7500    1.2990    0.0000 C   0  0  0  0  0  0  0  0  0  0  0  0
   -1.5000    2.5981    0.0000 O   0  0  0  0  0  0  0  0  0  0  0  0
   -0.7500    3.8971    0.0000 C   0  0  0  0  0  0  0  0  0  0  0  0
    0.7500    3.8971    0.0000 O   0  0  0  0  0  0  0  0  0  0  0  0
    1.5000    5.1962    0.0000 C   0  0  0  0  0  0  0  0  0  0  0  0
    3.0000    5.1962    0.0000 C   0  0  0  0  0  0  0  0  0  0  0  0
    3.7500    3.8971    0.0000 O   0  0  0  0  0  0  0  0  0  0  0  0
    5.2500    3.8971    0.0000 C   0  0  0  0  0  0  0  0  0  0  0  0
    6.0000    2.5981    0.0000 O   0  0  0  0  0  0  0  0  0  0  0  0
    7.5000    2.5981    0.0000 C   0  0  0  0  0  0  0  0  0  0  0  0
    8.2500    1.2990    0.0000 C   0  0  0  0  0  0  0  0  0  0  0  0
    7.5000    0.0000    0.0000 O   0  0  0  0  0  0  0  0  0  0  0  0
    8.2500    3.8971    0.0000 C   0  0  0  0  0  0  0  0  0  0  0  0
    9.7500    3.8971    0.0000 O   0  0  0  0  0  0  0  0  0  0  0  0
    7.5000    5.1962    0.0000 C   0  0  0  0  0  0  0  0  0  0  0  0
    8.2500    6.4952    0.0000 O   0  0  0  0  0  0  0  0  0  0  0  0
    6.0000    5.1962    0.0000 C   0  0  0  0  0  0  0  0  0  0  0  0
    5.2500    6.4952    0.0000 O   0  0  0  0  0  0  0  0  0  0  0  0
    0.7500    6.4952    0.0000 C   0  0  0  0  0  0  0  0  0  0  0  0
    1.5000    7.7942    0.0000 O   0  0  0  0  0  0  0  0  0  0  0  0
   -0.7500    6.4952    0.0000 C   0  0  0  0  0  0  0  0  0  0  0  0
   -1.5000    7.7942    0.0000 O   0  0  0  0  0  0  0  0  0  0  0  0
   -1.5000    5.1962    0.0000 C   0  0  0  0  0  0  0  0  0  0  0  0
   -3.0000    5.1962    0.0000 O   0  0  0  0  0  0  0  0  0  0  0  0
   -1.5000    0.0000    0.0000 C   0  0  0  0  0  0  0  0  0  0  0  0
   -0.7500   -1.2990    0.0000 C   0  0  0  0  0  0  0  0  0  0  0  0
   -1.5000   -2.5981    0.0000 C   0  0  0  0  0  0  0  0  0  0  0  0
   -0.7500   -3.8971    0.0000 C   0  0  0  0  0  0  0  0  0  0  0  0
    0.7500   -3.8971    0.0000 C   0  0  0  0  0  0  0  0  0  0  0  0
    1.5000   -2.5981    0.0000 C   0  0  0  0  0  0  0  0  0  0  0  0
    3.0000   -2.5981    0.0000 C   0  0  0  0  0  0  0  0  0  0  0  0
    3.7500   -3.8971    0.0000 C   0  0  0  0  0  0  0  0  0  0  0  0
    3.0000   -5.1962    0.0000 C   0  0  0  0  0  0  0  0  0  0  0  0
    4.4918   -5.3529    0.0000 C   0  0  0  0  0  0  0  0  0  0  0  0
    3.4635   -6.6227    0.0000 C   0  0  0  0  0  0  0  0  0  0  0  0
    4.8901   -7.0863    0.0000 C   0  0  0  0  0  0  0  0  0  0  0  0
    6.1036   -6.2046    0.0000 C   0  0  0  0  0  0  0  0  0  0  0  0
    7.3172   -7.0863    0.0000 C   0  0  0  0  0  0  0  0  0  0  0  0
    8.7437   -6.6227    0.0000 O   0  0  0  0  0  0  0  0  0  0  0  0
    6.8536   -8.5128    0.0000 O   0  0  0  0  0  0  0  0  0  0  0  0
    5.3536   -8.5128    0.0000 C   0  0  0  0  0  0  0  0  0  0  0  0
    2.2500   -7.5044    0.0000 C   0  0  0  0  0  0  0  0  0  0  0  0
    1.0365   -6.6227    0.0000 C   0  0  0  0  0  0  0  0  0  0  0  0
    1.5000   -5.1962    0.0000 C   0  0  0  0  0  0  0  0  0  0  0  0
    0.0082   -5.3529    0.0000 O   0  0  0  0  0  0  0  0  0  0  0  0
  2  1  1  1
  2  3  1  0
  3  4  1  0
  4  5  1  0
  5  6  1  6
  7  6  1  6
  7  8  1  0
  8  9  1  0
  9 10  1  1
 10 11  1  0
 12 11  1  1
 12 13  1  0
 13 14  1  0
 14 15  1  6
 15 16  1  0
 14 17  1  0
 17 18  1  1
 17 19  1  0
 19 20  1  1
 19 21  1  0
 21 22  1  6
  9 23  1  0
 23 24  1  1
 23 25  1  0
 25 26  1  6
 25 27  1  0
 27 28  1  1
  5 29  1  0
 30 29  1  6
 30 31  1  0
 31 32  1  0
 33 32  1  1
 33 34  1  0
 34 35  1  6
 35 36  1  0
 36 37  1  0
 37 38  1  1
 37 39  1  0
 39 40  1  6
 40 41  2  0
 41 42  1  0
 42 43  2  0
 42 44  1  0
 44 45  1  0
 39 46  1  0
 46 47  1  0
 47 48  1  0
 48 49  1  6
 30  2  1  0
 48 33  1  0
 34  2  1  0
 48 37  1  0
 27  7  1  0
 45 40  1  0
 21 12  1  0
M  END
>  <id>  (229) 
SANC00904_minRM1.pdb

>  <SMILES>  (229) 
C[C@]12CC[C@@H](O[C@H]3O[C@H](CO[C@@H]4O[C@@H](CO)[C@H](O)[C@H](O)[C@H]4O)[C@H](O)[C@@H](O)[C@@H]3O)C[C@H]1CC[C@H]1[C@H]2CC[C@]2(C)[C@H](C3=CC(=O)OC3)CC[C@@]12O

>  <warheads>  (229) 
ab_unsat_carbonyl:1

>  <n_warheads>  (229) 
1

>  <max_tier>  (229) 
1

>  <pains_flag>  (229) 


>  <MW>  (229) 
698.8

>  <cLogP>  (229) 
-0.75

>  <HBD>  (229) 
8

>  <HBA>  (229) 
14

>  <TPSA>  (229) 
225.1

>  <ArRings>  (229) 
0

$$$$
SANC00905_minRM1.pdb
     RDKit          2D

 49 55  0  0  0  0  0  0  0  0999 V2000
    2.2500   -1.2990    0.0000 C   0  0  0  0  0  0  0  0  0  0  0  0
    0.7500   -1.2990    0.0000 C   0  0  0  0  0  0  0  0  0  0  0  0
    1.5000    0.0000    0.0000 C   0  0  0  0  0  0  0  0  0  0  0  0
    0.7500    1.2990    0.0000 C   0  0  0  0  0  0  0  0  0  0  0  0
   -0.7500    1.2990    0.0000 C   0  0  0  0  0  0  0  0  0  0  0  0
   -1.5000    2.5981    0.0000 O   0  0  0  0  0  0  0  0  0  0  0  0
   -0.7500    3.8971    0.0000 C   0  0  0  0  0  0  0  0  0  0  0  0
    0.7500    3.8971    0.0000 O   0  0  0  0  0  0  0  0  0  0  0  0
    1.5000    5.1962    0.0000 C   0  0  0  0  0  0  0  0  0  0  0  0
    3.0000    5.1962    0.0000 C   0  0  0  0  0  0  0  0  0  0  0  0
    3.7500    3.8971    0.0000 O   0  0  0  0  0  0  0  0  0  0  0  0
    0.7500    6.4952    0.0000 C   0  0  0  0  0  0  0  0  0  0  0  0
    1.5000    7.7942    0.0000 O   0  0  0  0  0  0  0  0  0  0  0  0
   -0.7500    6.4952    0.0000 C   0  0  0  0  0  0  0  0  0  0  0  0
   -1.5000    7.7942    0.0000 O   0  0  0  0  0  0  0  0  0  0  0  0
   -1.5000    5.1962    0.0000 C   0  0  0  0  0  0  0  0  0  0  0  0
   -3.0000    5.1962    0.0000 O   0  0  0  0  0  0  0  0  0  0  0  0
   -3.7500    6.4952    0.0000 C   0  0  0  0  0  0  0  0  0  0  0  0
   -3.0000    7.7942    0.0000 O   0  0  0  0  0  0  0  0  0  0  0  0
   -3.7500    9.0933    0.0000 C   0  0  0  0  0  0  0  0  0  0  0  0
   -3.0000   10.3923    0.0000 C   0  0  0  0  0  0  0  0  0  0  0  0
   -3.7500   11.6913    0.0000 O   0  0  0  0  0  0  0  0  0  0  0  0
   -5.2500    9.0933    0.0000 C   0  0  0  0  0  0  0  0  0  0  0  0
   -6.0000   10.3923    0.0000 O   0  0  0  0  0  0  0  0  0  0  0  0
   -6.0000    7.7942    0.0000 C   0  0  0  0  0  0  0  0  0  0  0  0
   -7.5000    7.7942    0.0000 O   0  0  0  0  0  0  0  0  0  0  0  0
   -5.2500    6.4952    0.0000 C   0  0  0  0  0  0  0  0  0  0  0  0
   -6.0000    5.1962    0.0000 O   0  0  0  0  0  0  0  0  0  0  0  0
   -1.5000    0.0000    0.0000 C   0  0  0  0  0  0  0  0  0  0  0  0
   -0.7500   -1.2990    0.0000 C   0  0  0  0  0  0  0  0  0  0  0  0
   -1.5000   -2.5981    0.0000 C   0  0  0  0  0  0  0  0  0  0  0  0
   -0.7500   -3.8971    0.0000 C   0  0  0  0  0  0  0  0  0  0  0  0
    0.7500   -3.8971    0.0000 C   0  0  0  0  0  0  0  0  0  0  0  0
    1.5000   -2.5981    0.0000 C   0  0  0  0  0  0  0  0  0  0  0  0
    3.0000   -2.5981    0.0000 C   0  0  0  0  0  0  0  0  0  0  0  0
    3.7500   -3.8971    0.0000 C   0  0  0  0  0  0  0  0  0  0  0  0
    3.0000   -5.1962    0.0000 C   0  0  0  0  0  0  0  0  0  0  0  0
    4.4918   -5.3529    0.0000 C   0  0  0  0  0  0  0  0  0  0  0  0
    3.4635   -6.6227    0.0000 C   0  0  0  0  0  0  0  0  0  0  0  0
    4.8901   -7.0863    0.0000 C   0  0  0  0  0  0  0  0  0  0  0  0
    6.1036   -6.2046    0.0000 C   0  0  0  0  0  0  0  0  0  0  0  0
    7.3172   -7.0863    0.0000 C   0  0  0  0  0  0  0  0  0  0  0  0
    8.7437   -6.6227    0.0000 O   0  0  0  0  0  0  0  0  0  0  0  0
    6.8536   -8.5128    0.0000 O   0  0  0  0  0  0  0  0  0  0  0  0
    5.3536   -8.5128    0.0000 C   0  0  0  0  0  0  0  0  0  0  0  0
    2.2500   -7.5044    0.0000 C   0  0  0  0  0  0  0  0  0  0  0  0
    1.0365   -6.6227    0.0000 C   0  0  0  0  0  0  0  0  0  0  0  0
    1.5000   -5.1962    0.0000 C   0  0  0  0  0  0  0  0  0  0  0  0
    0.0082   -5.3529    0.0000 O   0  0  0  0  0  0  0  0  0  0  0  0
  2  1  1  1
  2  3  1  0
  3  4  1  0
  4  5  1  0
  5  6  1  1
  7  6  1  1
  7  8  1  0
  8  9  1  0
  9 10  1  1
 10 11  1  0
  9 12  1  0
 12 13  1  6
 12 14  1  0
 14 15  1  1
 14 16  1  0
 16 17  1  6
 18 17  1  1
 18 19  1  0
 19 20  1  0
 20 21  1  1
 21 22  1  0
 20 23  1  0
 23 24  1  6
 23 25  1  0
 25 26  1  1
 25 27  1  0
 27 28  1  6
  5 29  1  0
 29 30  1  0
 30 31  2  0
 31 32  1  0
 33 32  1  6
 33 34  1  0
 34 35  1  1
 35 36  1  0
 36 37  1  0
 37 38  1  1
 37 39  1  0
 39 40  1  1
 40 41  2  0
 41 42  1  0
 42 43  2  0
 42 44  1  0
 44 45  1  0
 39 46  1  0
 46 47  1  0
 47 48  1  0
 48 49  1  1
 30  2  1  0
 48 33  1  0
 34  2  1  0
 48 37  1  0
 16  7  1  0
 27 18  1  0
 45 40  1  0
M  END
>  <id>  (230) 
SANC00905_minRM1.pdb

>  <SMILES>  (230) 
C[C@]12CC[C@H](O[C@@H]3O[C@H](CO)[C@@H](O)[C@H](O)[C@H]3O[C@@H]3O[C@H](CO)[C@@H](O)[C@H](O)[C@H]3O)CC1=CC[C@@H]1[C@@H]2CC[C@]2(C)[C@@H](C3=CC(=O)OC3)CC[C@]12O

>  <warheads>  (230) 
ab_unsat_carbonyl:1

>  <n_warheads>  (230) 
1

>  <max_tier>  (230) 
1

>  <pains_flag>  (230) 


>  <MW>  (230) 
696.8

>  <cLogP>  (230) 
-0.83

>  <HBD>  (230) 
8

>  <HBA>  (230) 
14

>  <TPSA>  (230) 
225.1

>  <ArRings>  (230) 
0

$$$$
SANC00906_minRM1.pdb
     RDKit          2D

 27 31  0  0  0  0  0  0  0  0999 V2000
    2.2500   -1.2990    0.0000 C   0  0  0  0  0  0  0  0  0  0  0  0
    0.7500   -1.2990    0.0000 C   0  0  0  0  0  0  0  0  0  0  0  0
    1.5000    0.0000    0.0000 C   0  0  0  0  0  0  0  0  0  0  0  0
    0.7500    1.2990    0.0000 C   0  0  0  0  0  0  0  0  0  0  0  0
   -0.7500    1.2990    0.0000 C   0  0  0  0  0  0  0  0  0  0  0  0
   -1.5000    2.5981    0.0000 O   0  0  0  0  0  0  0  0  0  0  0  0
   -1.5000    0.0000    0.0000 C   0  0  0  0  0  0  0  0  0  0  0  0
   -0.7500   -1.2990    0.0000 C   0  0  0  0  0  0  0  0  0  0  0  0
   -1.5000   -2.5981    0.0000 C   0  0  0  0  0  0  0  0  0  0  0  0
   -0.7500   -3.8971    0.0000 C   0  0  0  0  0  0  0  0  0  0  0  0
    0.7500   -3.8971    0.0000 C   0  0  0  0  0  0  0  0  0  0  0  0
    1.5000   -2.5981    0.0000 C   0  0  0  0  0  0  0  0  0  0  0  0
    3.0000   -2.5981    0.0000 C   0  0  0  0  0  0  0  0  0  0  0  0
    3.7500   -3.8971    0.0000 C   0  0  0  0  0  0  0  0  0  0  0  0
    3.0000   -5.1962    0.0000 C   0  0  0  0  0  0  0  0  0  0  0  0
    4.4918   -5.3529    0.0000 C   0  0  0  0  0  0  0  0  0  0  0  0
    3.4635   -6.6227    0.0000 C   0  0  0  0  0  0  0  0  0  0  0  0
    4.8901   -7.0863    0.0000 C   0  0  0  0  0  0  0  0  0  0  0  0
    6.1036   -6.2046    0.0000 C   0  0  0  0  0  0  0  0  0  0  0  0
    7.3172   -7.0863    0.0000 C   0  0  0  0  0  0  0  0  0  0  0  0
    8.7437   -6.6227    0.0000 O   0  0  0  0  0  0  0  0  0  0  0  0
    6.8536   -8.5128    0.0000 O   0  0  0  0  0  0  0  0  0  0  0  0
    5.3536   -8.5128    0.0000 C   0  0  0  0  0  0  0  0  0  0  0  0
    2.2500   -7.5044    0.0000 C   0  0  0  0  0  0  0  0  0  0  0  0
    1.0365   -6.6227    0.0000 C   0  0  0  0  0  0  0  0  0  0  0  0
    1.5000   -5.1962    0.0000 C   0  0  0  0  0  0  0  0  0  0  0  0
    0.0082   -5.3529    0.0000 O   0  0  0  0  0  0  0  0  0  0  0  0
  2  1  1  1
  2  3  1  0
  3  4  1  0
  4  5  1  0
  5  6  1  1
  5  7  1  0
  8  7  1  1
  8  9  1  0
  9 10  1  0
 11 10  1  6
 11 12  1  0
 12 13  1  1
 13 14  1  0
 14 15  1  0
 15 16  1  1
 15 17  1  0
 17 18  1  1
 18 19  2  0
 19 20  1  0
 20 21  2  0
 20 22  1  0
 22 23  1  0
 17 24  1  0
 24 25  1  0
 25 26  1  0
 26 27  1  1
  8  2  1  0
 26 11  1  0
 12  2  1  0
 26 15  1  0
 23 18  1  0
M  END
>  <id>  (231) 
SANC00906_minRM1.pdb

>  <SMILES>  (231) 
C[C@]12CC[C@H](O)C[C@@H]1CC[C@@H]1[C@@H]2CC[C@]2(C)[C@@H](C3=CC(=O)OC3)CC[C@]12O

>  <warheads>  (231) 
ab_unsat_carbonyl:1

>  <n_warheads>  (231) 
1

>  <max_tier>  (231) 
1

>  <pains_flag>  (231) 


>  <MW>  (231) 
374.5

>  <cLogP>  (231) 
3.6

>  <HBD>  (231) 
2

>  <HBA>  (231) 
4

>  <TPSA>  (231) 
66.8

>  <ArRings>  (231) 
0

$$$$
SANC00907_minRM1.pdb
     RDKit          2D

 27 31  0  0  0  0  0  0  0  0999 V2000
    2.2500   -1.2990    0.0000 C   0  0  0  0  0  0  0  0  0  0  0  0
    0.7500   -1.2990    0.0000 C   0  0  0  0  0  0  0  0  0  0  0  0
    1.5000    0.0000    0.0000 C   0  0  0  0  0  0  0  0  0  0  0  0
    0.7500    1.2990    0.0000 C   0  0  0  0  0  0  0  0  0  0  0  0
   -0.7500    1.2990    0.0000 C   0  0  0  0  0  0  0  0  0  0  0  0
   -1.5000    2.5981    0.0000 O   0  0  0  0  0  0  0  0  0  0  0  0
   -1.5000    0.0000    0.0000 C   0  0  0  0  0  0  0  0  0  0  0  0
   -0.7500   -1.2990    0.0000 C   0  0  0  0  0  0  0  0  0  0  0  0
   -1.5000   -2.5981    0.0000 C   0  0  0  0  0  0  0  0  0  0  0  0
   -0.7500   -3.8971    0.0000 C   0  0  0  0  0  0  0  0  0  0  0  0
    0.7500   -3.8971    0.0000 C   0  0  0  0  0  0  0  0  0  0  0  0
    1.5000   -2.5981    0.0000 C   0  0  0  0  0  0  0  0  0  0  0  0
    3.0000   -2.5981    0.0000 C   0  0  0  0  0  0  0  0  0  0  0  0
    3.7500   -3.8971    0.0000 C   0  0  0  0  0  0  0  0  0  0  0  0
    3.0000   -5.1962    0.0000 C   0  0  0  0  0  0  0  0  0  0  0  0
    4.4918   -5.3529    0.0000 C   0  0  0  0  0  0  0  0  0  0  0  0
    3.4635   -6.6227    0.0000 C   0  0  0  0  0  0  0  0  0  0  0  0
    4.8901   -7.0863    0.0000 C   0  0  0  0  0  0  0  0  0  0  0  0
    6.1036   -6.2046    0.0000 C   0  0  0  0  0  0  0  0  0  0  0  0
    7.3172   -7.0863    0.0000 C   0  0  0  0  0  0  0  0  0  0  0  0
    8.7437   -6.6227    0.0000 O   0  0  0  0  0  0  0  0  0  0  0  0
    6.8536   -8.5128    0.0000 O   0  0  0  0  0  0  0  0  0  0  0  0
    5.3536   -8.5128    0.0000 C   0  0  0  0  0  0  0  0  0  0  0  0
    2.2500   -7.5044    0.0000 C   0  0  0  0  0  0  0  0  0  0  0  0
    1.0365   -6.6227    0.0000 C   0  0  0  0  0  0  0  0  0  0  0  0
    1.5000   -5.1962    0.0000 C   0  0  0  0  0  0  0  0  0  0  0  0
    0.0082   -5.3529    0.0000 O   0  0  0  0  0  0  0  0  0  0  0  0
  2  1  1  1
  2  3  1  0
  3  4  1  0
  4  5  1  0
  5  6  1  1
  5  7  1  0
  7  8  1  0
  8  9  2  0
  9 10  1  0
 11 10  1  6
 11 12  1  0
 12 13  1  6
 13 14  1  0
 14 15  1  0
 15 16  1  1
 15 17  1  0
 17 18  1  6
 18 19  2  0
 19 20  1  0
 20 21  2  0
 20 22  1  0
 22 23  1  0
 17 24  1  0
 24 25  1  0
 25 26  1  0
 26 27  1  1
  8  2  1  0
 26 11  1  0
 12  2  1  0
 26 15  1  0
 23 18  1  0
M  END
>  <id>  (232) 
SANC00907_minRM1.pdb

>  <SMILES>  (232) 
C[C@]12CC[C@H](O)CC1=CC[C@@H]1[C@H]2CC[C@]2(C)[C@H](C3=CC(=O)OC3)CC[C@]12O

>  <warheads>  (232) 
ab_unsat_carbonyl:1

>  <n_warheads>  (232) 
1

>  <max_tier>  (232) 
1

>  <pains_flag>  (232) 


>  <MW>  (232) 
372.5

>  <cLogP>  (232) 
3.52

>  <HBD>  (232) 
2

>  <HBA>  (232) 
4

>  <TPSA>  (232) 
66.8

>  <ArRings>  (232) 
0

$$$$
SANC00928_minRM1.pdb
     RDKit          2D

 14 14  0  0  0  0  0  0  0  0999 V2000
    6.0000   -2.5981    0.0000 C   0  0  0  0  0  0  0  0  0  0  0  0
    5.2500   -1.2990    0.0000 C   0  0  0  0  0  0  0  0  0  0  0  0
    6.0000    0.0000    0.0000 O   0  0  0  0  0  0  0  0  0  0  0  0
    3.7500   -1.2990    0.0000 C   0  0  0  0  0  0  0  0  0  0  0  0
    3.0000    0.0000    0.0000 C   0  0  0  0  0  0  0  0  0  0  0  0
    1.5000    0.0000    0.0000 C   0  0  0  0  0  0  0  0  0  0  0  0
    0.7500   -1.2990    0.0000 C   0  0  0  0  0  0  0  0  0  0  0  0
    1.5000   -2.5981    0.0000 C   0  0  0  0  0  0  0  0  0  0  0  0
   -0.7500   -1.2990    0.0000 C   0  0  0  0  0  0  0  0  0  0  0  0
   -1.5000    0.0000    0.0000 C   0  0  0  0  0  0  0  0  0  0  0  0
   -0.7500    1.2990    0.0000 C   0  0  0  0  0  0  0  0  0  0  0  0
    0.7500    1.2990    0.0000 C   0  0  0  0  0  0  0  0  0  0  0  0
    0.4895    2.7762    0.0000 C   0  0  0  0  0  0  0  0  0  0  0  0
    2.1595    1.8121    0.0000 C   0  0  0  0  0  0  0  0  0  0  0  0
  1  2  1  0
  2  3  2  0
  2  4  1  0
  4  5  2  0
  6  5  1  1
  6  7  1  0
  7  8  1  0
  7  9  2  0
  9 10  1  0
 10 11  1  0
 11 12  1  0
 12 13  1  0
 12 14  1  0
 12  6  1  0
M  END
>  <id>  (233) 
SANC00928_minRM1.pdb

>  <SMILES>  (233) 
CC(=O)/C=C/[C@H]1C(C)=CCCC1(C)C

>  <warheads>  (233) 
ab_unsat_carbonyl:1

>  <n_warheads>  (233) 
1

>  <max_tier>  (233) 
1

>  <pains_flag>  (233) 


>  <MW>  (233) 
192.3

>  <cLogP>  (233) 
3.51

>  <HBD>  (233) 
0

>  <HBA>  (233) 
1

>  <TPSA>  (233) 
17.1

>  <ArRings>  (233) 
0

$$$$
SANC00929_minRM1.pdb
     RDKit          2D

 16 16  0  0  0  0  0  0  0  0999 V2000
    3.0000    0.0000    0.0000 C   0  0  0  0  0  0  0  0  0  0  0  0
    1.5000    0.0000    0.0000 C   0  0  0  0  0  0  0  0  0  0  0  0
    0.7500   -1.2990    0.0000 C   0  0  0  0  0  0  0  0  0  0  0  0
   -0.7500   -1.2990    0.0000 C   0  0  0  0  0  0  0  0  0  0  0  0
   -1.5000   -2.5981    0.0000 O   0  0  0  0  0  0  0  0  0  0  0  0
   -1.5000    0.0000    0.0000 C   0  0  0  0  0  0  0  0  0  0  0  0
   -0.7500    1.2990    0.0000 C   0  0  0  0  0  0  0  0  0  0  0  0
   -2.1595    1.8121    0.0000 C   0  0  0  0  0  0  0  0  0  0  0  0
   -0.4895    2.7762    0.0000 C   0  0  0  0  0  0  0  0  0  0  0  0
    0.7500    1.2990    0.0000 C   0  0  0  0  0  0  0  0  0  0  0  0
    2.1595    1.8121    0.0000 O   0  0  0  0  0  0  0  0  0  0  0  0
    0.4895    2.7762    0.0000 C   0  0  0  0  0  0  0  0  0  0  0  0
    1.6386    3.7404    0.0000 C   0  0  0  0  0  0  0  0  0  0  0  0
    1.3781    5.2176    0.0000 C   0  0  0  0  0  0  0  0  0  0  0  0
    2.5272    6.1818    0.0000 C   0  0  0  0  0  0  0  0  0  0  0  0
   -0.0314    5.7307    0.0000 O   0  0  0  0  0  0  0  0  0  0  0  0
  1  2  1  0
  2  3  2  0
  3  4  1  0
  4  5  2  0
  4  6  1  0
  6  7  1  0
  7  8  1  0
  7  9  1  0
  7 10  1  0
 10 11  1  6
 10 12  1  0
 12 13  2  0
 13 14  1  0
 14 15  1  6
 14 16  1  0
 10  2  1  0
M  END
>  <id>  (234) 
SANC00929_minRM1.pdb

>  <SMILES>  (234) 
CC1=CC(=O)CC(C)(C)[C@@]1(O)/C=C/[C@@H](C)O

>  <warheads>  (234) 
ab_unsat_carbonyl:1

>  <n_warheads>  (234) 
1

>  <max_tier>  (234) 
1

>  <pains_flag>  (234) 


>  <MW>  (234) 
224.3

>  <cLogP>  (234) 
1.6

>  <HBD>  (234) 
2

>  <HBA>  (234) 
3

>  <TPSA>  (234) 
57.5

>  <ArRings>  (234) 
0

$$$$
SANC00930_minRM1.pdb
     RDKit          2D

 14 14  0  0  0  0  0  0  0  0999 V2000
    6.0000   -2.5981    0.0000 C   0  0  0  0  0  0  0  0  0  0  0  0
    5.2500   -1.2990    0.0000 C   0  0  0  0  0  0  0  0  0  0  0  0
    3.7500   -1.2990    0.0000 C   0  0  0  0  0  0  0  0  0  0  0  0
    3.0000    0.0000    0.0000 C   0  0  0  0  0  0  0  0  0  0  0  0
    3.7500    1.2990    0.0000 O   0  0  0  0  0  0  0  0  0  0  0  0
    1.5000    0.0000    0.0000 C   0  0  0  0  0  0  0  0  0  0  0  0
    0.7500   -1.2990    0.0000 C   0  0  0  0  0  0  0  0  0  0  0  0
    1.5000   -2.5981    0.0000 C   0  0  0  0  0  0  0  0  0  0  0  0
   -0.7500   -1.2990    0.0000 C   0  0  0  0  0  0  0  0  0  0  0  0
   -1.5000    0.0000    0.0000 C   0  0  0  0  0  0  0  0  0  0  0  0
   -0.7500    1.2990    0.0000 C   0  0  0  0  0  0  0  0  0  0  0  0
    0.7500    1.2990    0.0000 C   0  0  0  0  0  0  0  0  0  0  0  0
    0.4895    2.7762    0.0000 C   0  0  0  0  0  0  0  0  0  0  0  0
    2.1595    1.8121    0.0000 C   0  0  0  0  0  0  0  0  0  0  0  0
  1  2  1  0
  2  3  2  0
  3  4  1  0
  4  5  2  0
  6  4  1  1
  6  7  1  0
  7  8  1  0
  7  9  2  0
  9 10  1  0
 10 11  1  0
 11 12  1  0
 12 13  1  0
 12 14  1  0
 12  6  1  0
M  END
>  <id>  (235) 
SANC00930_minRM1.pdb

>  <SMILES>  (235) 
C/C=C/C(=O)[C@H]1C(C)=CCCC1(C)C

>  <warheads>  (235) 
ab_unsat_carbonyl:1

>  <n_warheads>  (235) 
1

>  <max_tier>  (235) 
1

>  <pains_flag>  (235) 


>  <MW>  (235) 
192.3

>  <cLogP>  (235) 
3.51

>  <HBD>  (235) 
0

>  <HBA>  (235) 
1

>  <TPSA>  (235) 
17.1

>  <ArRings>  (235) 
0

$$$$
SANC00931_minRM1.pdb
     RDKit          2D

 23 25  0  0  0  0  0  0  0  0999 V2000
   -1.5000   -5.1962    0.0000 C   0  0  0  0  0  0  0  0  0  0  0  0
   -0.7500   -3.8971    0.0000 C   0  0  0  0  0  0  0  0  0  0  0  0
    0.7500   -3.8971    0.0000 C   0  0  0  0  0  0  0  0  0  0  0  0
    1.5000   -5.1962    0.0000 O   0  0  0  0  0  0  0  0  0  0  0  0
    1.5000   -2.5981    0.0000 C   0  0  0  0  0  0  0  0  0  0  0  0
    3.0000   -2.5981    0.0000 O   0  0  0  0  0  0  0  0  0  0  0  0
    0.7500   -1.2990    0.0000 C   0  0  0  0  0  0  0  0  0  0  0  0
    1.5000    0.0000    0.0000 C   0  0  0  0  0  0  0  0  0  0  0  0
    2.6491    0.9642    0.0000 C   0  0  0  0  0  0  0  0  0  0  0  0
    2.6491   -0.9642    0.0000 C   0  0  0  0  0  0  0  0  0  0  0  0
    0.7500    1.2990    0.0000 C   0  0  0  0  0  0  0  0  0  0  0  0
   -0.7500    1.2990    0.0000 C   0  0  0  0  0  0  0  0  0  0  0  0
   -1.5000    0.0000    0.0000 C   0  0  0  0  0  0  0  0  0  0  0  0
   -0.7500   -1.2990    0.0000 C   0  0  0  0  0  0  0  0  0  0  0  0
   -2.2500   -1.2990    0.0000 C   0  0  0  0  0  0  0  0  0  0  0  0
   -1.5000   -2.5981    0.0000 C   0  0  0  0  0  0  0  0  0  0  0  0
   -3.0000   -2.5981    0.0000 C   0  0  0  0  0  0  0  0  0  0  0  0
   -3.7500   -3.8971    0.0000 C   0  0  0  0  0  0  0  0  0  0  0  0
   -5.2500   -3.8971    0.0000 C   0  0  0  0  0  0  0  0  0  0  0  0
   -6.1317   -5.1106    0.0000 C   0  0  0  0  0  0  0  0  0  0  0  0
   -7.5583   -4.6471    0.0000 C   0  0  0  0  0  0  0  0  0  0  0  0
   -7.5583   -3.1471    0.0000 O   0  0  0  0  0  0  0  0  0  0  0  0
   -6.1317   -2.6836    0.0000 C   0  0  0  0  0  0  0  0  0  0  0  0
  1  2  1  0
  2  3  2  0
  3  4  1  0
  3  5  1  0
  5  6  2  0
  5  7  1  0
  7  8  1  6
  8  9  1  0
  8 10  1  0
  8 11  1  0
 11 12  1  0
 12 13  1  0
 13 14  1  0
 14 15  1  6
 14 16  1  0
 16 17  1  6
 17 18  1  0
 18 19  1  0
 19 20  1  0
 20 21  2  0
 21 22  1  0
 22 23  1  0
 16  2  1  0
 23 19  2  0
 14  7  1  0
M  END
>  <id>  (236) 
SANC00931_minRM1.pdb

>  <SMILES>  (236) 
CC1=C(O)C(=O)[C@H]2C(C)(C)CCC[C@]2(C)[C@H]1CCc1ccoc1

>  <warheads>  (236) 
ab_unsat_carbonyl:1

>  <n_warheads>  (236) 
1

>  <max_tier>  (236) 
1

>  <pains_flag>  (236) 


>  <MW>  (236) 
316.4

>  <cLogP>  (236) 
5.08

>  <HBD>  (236) 
1

>  <HBA>  (236) 
3

>  <TPSA>  (236) 
50.4

>  <ArRings>  (236) 
1

$$$$
SANC00932_minRM1.pdb
     RDKit          2D

 22 24  0  0  0  0  0  0  0  0999 V2000
    1.5000   -5.1962    0.0000 C   0  0  0  0  0  0  0  0  0  0  0  0
    0.7500   -3.8971    0.0000 C   0  0  0  0  0  0  0  0  0  0  0  0
    1.5000   -2.5981    0.0000 C   0  0  0  0  0  0  0  0  0  0  0  0
    3.0000   -2.5981    0.0000 C   0  0  0  0  0  0  0  0  0  0  0  0
    3.7500   -3.8971    0.0000 C   0  0  0  0  0  0  0  0  0  0  0  0
    5.2500   -3.8971    0.0000 C   0  0  0  0  0  0  0  0  0  0  0  0
    6.1317   -2.6836    0.0000 C   0  0  0  0  0  0  0  0  0  0  0  0
    7.5583   -3.1471    0.0000 C   0  0  0  0  0  0  0  0  0  0  0  0
    7.5583   -4.6471    0.0000 O   0  0  0  0  0  0  0  0  0  0  0  0
    6.1317   -5.1106    0.0000 C   0  0  0  0  0  0  0  0  0  0  0  0
    0.7500   -1.2990    0.0000 C   0  0  0  0  0  0  0  0  0  0  0  0
    2.2500   -1.2990    0.0000 C   0  0  0  0  0  0  0  0  0  0  0  0
    1.5000    0.0000    0.0000 C   0  0  0  0  0  0  0  0  0  0  0  0
    0.7500    1.2990    0.0000 C   0  0  0  0  0  0  0  0  0  0  0  0
   -0.7500    1.2990    0.0000 C   0  0  0  0  0  0  0  0  0  0  0  0
   -1.5000    0.0000    0.0000 C   0  0  0  0  0  0  0  0  0  0  0  0
   -2.6491   -0.9642    0.0000 C   0  0  0  0  0  0  0  0  0  0  0  0
   -2.6491    0.9642    0.0000 C   0  0  0  0  0  0  0  0  0  0  0  0
   -0.7500   -1.2990    0.0000 C   0  0  0  0  0  0  0  0  0  0  0  0
   -1.5000   -2.5981    0.0000 C   0  0  0  0  0  0  0  0  0  0  0  0
   -0.7500   -3.8971    0.0000 C   0  0  0  0  0  0  0  0  0  0  0  0
   -1.5000   -5.1962    0.0000 O   0  0  0  0  0  0  0  0  0  0  0  0
  1  2  1  0
  2  3  2  0
  3  4  1  0
  4  5  1  0
  5  6  1  0
  6  7  1  0
  7  8  2  0
  8  9  1  0
  9 10  1  0
  3 11  1  0
 11 12  1  1
 11 13  1  0
 13 14  1  0
 14 15  1  0
 15 16  1  0
 16 17  1  0
 16 18  1  0
 16 19  1  0
 19 20  1  1
 20 21  1  0
 21 22  2  0
 21  2  1  0
 10  6  2  0
 19 11  1  0
M  END
>  <id>  (237) 
SANC00932_minRM1.pdb

>  <SMILES>  (237) 
CC1=C(CCc2ccoc2)[C@@]2(C)CCCC(C)(C)[C@@H]2CC1=O

>  <warheads>  (237) 
ab_unsat_carbonyl:1

>  <n_warheads>  (237) 
1

>  <max_tier>  (237) 
1

>  <pains_flag>  (237) 


>  <MW>  (237) 
300.4

>  <cLogP>  (237) 
5.33

>  <HBD>  (237) 
0

>  <HBA>  (237) 
2

>  <TPSA>  (237) 
30.2

>  <ArRings>  (237) 
1

$$$$
SANC00953_minRM1.pdb
     RDKit          2D

 14 14  0  0  0  0  0  0  0  0999 V2000
    3.7500   -1.2990    0.0000 C   0  0  0  0  0  0  0  0  0  0  0  0
    3.0000    0.0000    0.0000 O   0  0  0  0  0  0  0  0  0  0  0  0
    1.5000    0.0000    0.0000 C   0  0  0  0  0  0  0  0  0  0  0  0
    0.7500   -1.2990    0.0000 C   0  0  0  0  0  0  0  0  0  0  0  0
   -0.7500   -1.2990    0.0000 C   0  0  0  0  0  0  0  0  0  0  0  0
   -1.5000   -2.5981    0.0000 C   0  0  0  0  0  0  0  0  0  0  0  0
   -3.0000   -2.5981    0.0000 C   0  0  0  0  0  0  0  0  0  0  0  0
   -3.7500   -3.8971    0.0000 C   0  0  0  0  0  0  0  0  0  0  0  0
   -3.0000   -5.1962    0.0000 O   0  0  0  0  0  0  0  0  0  0  0  0
   -5.2500   -3.8971    0.0000 O   0  0  0  0  0  0  0  0  0  0  0  0
   -1.5000    0.0000    0.0000 C   0  0  0  0  0  0  0  0  0  0  0  0
   -0.7500    1.2990    0.0000 C   0  0  0  0  0  0  0  0  0  0  0  0
    0.7500    1.2990    0.0000 C   0  0  0  0  0  0  0  0  0  0  0  0
    1.5000    2.5981    0.0000 O   0  0  0  0  0  0  0  0  0  0  0  0
  1  2  1  0
  2  3  1  0
  3  4  2  0
  4  5  1  0
  5  6  1  0
  6  7  2  0
  7  8  1  0
  8  9  2  0
  8 10  1  0
  5 11  2  0
 11 12  1  0
 12 13  2  0
 13 14  1  0
 13  3  1  0
M  END
>  <id>  (238) 
SANC00953_minRM1.pdb

>  <SMILES>  (238) 
COc1cc(/C=C/C(=O)O)ccc1O

>  <warheads>  (238) 
ab_unsat_carbonyl:1

>  <n_warheads>  (238) 
1

>  <max_tier>  (238) 
1

>  <pains_flag>  (238) 


>  <MW>  (238) 
194.2

>  <cLogP>  (238) 
1.5

>  <HBD>  (238) 
2

>  <HBA>  (238) 
3

>  <TPSA>  (238) 
66.8

>  <ArRings>  (238) 
1

$$$$
SANC00962_minRM1.pdb
     RDKit          2D

 22 24  0  0  0  0  0  0  0  0999 V2000
    0.8051    6.4976    0.0000 C   0  0  0  0  0  0  0  0  0  0  0  0
    1.1389    5.0352    0.0000 C   0  0  0  0  0  0  0  0  0  0  0  0
    2.5182    4.4456    0.0000 C   0  0  0  0  0  0  0  0  0  0  0  0
    3.8059    5.2150    0.0000 O   0  0  0  0  0  0  0  0  0  0  0  0
    2.3838    2.9517    0.0000 O   0  0  0  0  0  0  0  0  0  0  0  0
    0.9214    2.6179    0.0000 C   0  0  0  0  0  0  0  0  0  0  0  0
    0.3943    1.2135    0.0000 C   0  0  0  0  0  0  0  0  0  0  0  0
    1.2760    0.0000    0.0000 C   0  0  0  0  0  0  0  0  0  0  0  0
    2.7760    0.0000    0.0000 C   0  0  0  0  0  0  0  0  0  0  0  0
    0.3943   -1.2135    0.0000 C   0  0  0  0  0  0  0  0  0  0  0  0
   -1.0323   -0.7500    0.0000 C   0  0  0  0  0  0  0  0  0  0  0  0
   -1.0323    0.7500    0.0000 C   0  0  0  0  0  0  0  0  0  0  0  0
   -2.2841    1.5763    0.0000 C   0  0  0  0  0  0  0  0  0  0  0  0
   -2.8112    0.1720    0.0000 C   0  0  0  0  0  0  0  0  0  0  0  0
   -3.7706    1.7777    0.0000 O   0  0  0  0  0  0  0  0  0  0  0  0
   -2.4186    3.0703    0.0000 C   0  0  0  0  0  0  0  0  0  0  0  0
   -1.3344    4.1069    0.0000 C   0  0  0  0  0  0  0  0  0  0  0  0
   -1.7979    5.5335    0.0000 O   0  0  0  0  0  0  0  0  0  0  0  0
   -3.2652    5.8454    0.0000 C   0  0  0  0  0  0  0  0  0  0  0  0
   -3.7287    7.2719    0.0000 C   0  0  0  0  0  0  0  0  0  0  0  0
   -4.2689    4.7306    0.0000 O   0  0  0  0  0  0  0  0  0  0  0  0
    0.1520    3.9056    0.0000 C   0  0  0  0  0  0  0  0  0  0  0  0
  1  2  2  0
  2  3  1  0
  3  4  2  0
  3  5  1  0
  6  5  1  6
  6  7  1  0
  7  8  1  1
  8  9  1  0
  8 10  2  0
 10 11  1  0
 12 11  1  1
 12 13  1  0
 13 14  1  1
 13 15  1  0
 13 16  1  0
 16 17  1  0
 17 18  1  6
 18 19  1  0
 19 20  1  0
 19 21  2  0
 17 22  1  0
 22  2  1  1
 22  6  1  0
 12  7  1  0
M  END
>  <id>  (239) 
SANC00962_minRM1.pdb

>  <SMILES>  (239) 
C=C1C(=O)O[C@@H]2[C@H]3C(C)=CC[C@H]3[C@](C)(O)C[C@H](OC(C)=O)[C@@H]12

>  <warheads>  (239) 
ab_unsat_carbonyl:1;exo_methylene_carbonyl:1

>  <n_warheads>  (239) 
2

>  <max_tier>  (239) 
1

>  <pains_flag>  (239) 


>  <MW>  (239) 
306.4

>  <cLogP>  (239) 
1.75

>  <HBD>  (239) 
1

>  <HBA>  (239) 
5

>  <TPSA>  (239) 
72.8

>  <ArRings>  (239) 
0

$$$$
SANC00964_minRM1.pdb
     RDKit          2D

 49 53  0  0  0  0  0  0  0  0999 V2000
    5.2500   -1.2990    0.0000 C   0  0  0  0  0  0  0  0  0  0  0  0
    3.7500   -1.2990    0.0000 C   0  0  0  0  0  0  0  0  0  0  0  0
    3.0000   -2.5981    0.0000 O   0  0  0  0  0  0  0  0  0  0  0  0
    3.0000    0.0000    0.0000 C   0  0  0  0  0  0  0  0  0  0  0  0
    1.5000    0.0000    0.0000 C   0  0  0  0  0  0  0  0  0  0  0  0
    0.7500   -1.2990    0.0000 C   0  0  0  0  0  0  0  0  0  0  0  0
   -0.7500   -1.2990    0.0000 C   0  0  0  0  0  0  0  0  0  0  0  0
   -1.5000   -2.5981    0.0000 O   0  0  0  0  0  0  0  0  0  0  0  0
   -1.5000    0.0000    0.0000 C   0  0  0  0  0  0  0  0  0  0  0  0
   -3.0000    0.0000    0.0000 C   0  0  0  0  0  0  0  0  0  0  0  0
   -3.7500   -1.2990    0.0000 C   0  0  0  0  0  0  0  0  0  0  0  0
   -3.7500    1.2990    0.0000 C   0  0  0  0  0  0  0  0  0  0  0  0
   -3.0000    2.5981    0.0000 C   0  0  0  0  0  0  0  0  0  0  0  0
   -3.7500    3.8971    0.0000 O   0  0  0  0  0  0  0  0  0  0  0  0
   -5.2500    3.8971    0.0000 C   0  0  0  0  0  0  0  0  0  0  0  0
   -6.0000    5.1962    0.0000 O   0  0  0  0  0  0  0  0  0  0  0  0
   -7.5000    5.1962    0.0000 C   0  0  0  0  0  0  0  0  0  0  0  0
   -8.2500    6.4952    0.0000 C   0  0  0  0  0  0  0  0  0  0  0  0
   -7.5000    7.7942    0.0000 O   0  0  0  0  0  0  0  0  0  0  0  0
   -8.2500    3.8971    0.0000 C   0  0  0  0  0  0  0  0  0  0  0  0
   -9.7500    3.8971    0.0000 O   0  0  0  0  0  0  0  0  0  0  0  0
   -7.5000    2.5981    0.0000 C   0  0  0  0  0  0  0  0  0  0  0  0
   -8.2500    1.2990    0.0000 O   0  0  0  0  0  0  0  0  0  0  0  0
   -6.0000    2.5981    0.0000 C   0  0  0  0  0  0  0  0  0  0  0  0
   -5.2500    1.2990    0.0000 O   0  0  0  0  0  0  0  0  0  0  0  0
   -1.5000    2.5981    0.0000 C   0  0  0  0  0  0  0  0  0  0  0  0
   -0.7500    3.8971    0.0000 C   0  0  0  0  0  0  0  0  0  0  0  0
    0.7500    3.8971    0.0000 O   0  0  0  0  0  0  0  0  0  0  0  0
    1.5000    5.1962    0.0000 C   0  0  0  0  0  0  0  0  0  0  0  0
    3.0000    5.1962    0.0000 C   0  0  0  0  0  0  0  0  0  0  0  0
    3.7500    3.8971    0.0000 O   0  0  0  0  0  0  0  0  0  0  0  0
    0.7500    6.4952    0.0000 C   0  0  0  0  0  0  0  0  0  0  0  0
    1.5000    7.7942    0.0000 O   0  0  0  0  0  0  0  0  0  0  0  0
   -0.7500    6.4952    0.0000 C   0  0  0  0  0  0  0  0  0  0  0  0
   -1.5000    7.7942    0.0000 O   0  0  0  0  0  0  0  0  0  0  0  0
   -1.5000    5.1962    0.0000 C   0  0  0  0  0  0  0  0  0  0  0  0
   -3.0000    5.1962    0.0000 O   0  0  0  0  0  0  0  0  0  0  0  0
   -3.7500    6.4952    0.0000 C   0  0  0  0  0  0  0  0  0  0  0  0
   -5.2500    6.4952    0.0000 O   0  0  0  0  0  0  0  0  0  0  0  0
   -3.0000    7.7942    0.0000 C   0  0  0  0  0  0  0  0  0  0  0  0
   -3.7500    9.0933    0.0000 C   0  0  0  0  0  0  0  0  0  0  0  0
   -3.0000   10.3923    0.0000 C   0  0  0  0  0  0  0  0  0  0  0  0
   -3.7500   11.6913    0.0000 C   0  0  0  0  0  0  0  0  0  0  0  0
   -3.0000   12.9904    0.0000 C   0  0  0  0  0  0  0  0  0  0  0  0
   -1.5000   12.9904    0.0000 C   0  0  0  0  0  0  0  0  0  0  0  0
   -0.7500   11.6913    0.0000 C   0  0  0  0  0  0  0  0  0  0  0  0
   -1.5000   10.3923    0.0000 C   0  0  0  0  0  0  0  0  0  0  0  0
   -0.7500    1.2990    0.0000 C   0  0  0  0  0  0  0  0  0  0  0  0
    0.7500    1.2990    0.0000 O   0  0  0  0  0  0  0  0  0  0  0  0
  1  2  1  0
  2  3  2  0
  2  4  1  0
  4  5  1  0
  5  6  2  0
  6  7  1  0
  7  8  2  0
  7  9  1  0
  9 10  2  0
 10 11  1  0
 10 12  1  0
 12 13  2  0
 13 14  1  0
 15 14  1  1
 15 16  1  0
 16 17  1  0
 17 18  1  1
 18 19  1  0
 17 20  1  0
 20 21  1  6
 20 22  1  0
 22 23  1  1
 22 24  1  0
 24 25  1  6
 13 26  1  0
 27 26  1  1
 27 28  1  0
 28 29  1  0
 29 30  1  1
 30 31  1  0
 29 32  1  0
 32 33  1  6
 32 34  1  0
 34 35  1  1
 34 36  1  0
 36 37  1  6
 37 38  1  0
 38 39  2  0
 38 40  1  0
 40 41  2  0
 41 42  1  0
 42 43  2  0
 43 44  1  0
 44 45  2  0
 45 46  1  0
 46 47  2  0
 26 48  2  0
 48 49  1  0
 49  5  1  0
 48  9  1  0
 24 15  1  0
 36 27  1  0
 47 42  1  0
M  END
>  <id>  (240) 
SANC00964_minRM1.pdb

>  <SMILES>  (240) 
CC(=O)Cc1cc(=O)c2c(C)cc(O[C@@H]3O[C@H](CO)[C@@H](O)[C@H](O)[C@H]3O)c([C@@H]3O[C@H](CO)[C@@H](O)[C@H](O)[C@H]3OC(=O)/C=C/c3ccccc3)c2o1

>  <warheads>  (240) 
ab_unsat_carbonyl:1

>  <n_warheads>  (240) 
1

>  <max_tier>  (240) 
1

>  <pains_flag>  (240) 


>  <MW>  (240) 
686.7

>  <cLogP>  (240) 
-0.81

>  <HBD>  (240) 
7

>  <HBA>  (240) 
15

>  <TPSA>  (240) 
242.9

>  <ArRings>  (240) 
3

$$$$
SANC00965_minRM1.pdb
     RDKit          2D

 38 41  0  0  0  0  0  0  0  0999 V2000
    5.2500   -1.2990    0.0000 C   0  0  0  0  0  0  0  0  0  0  0  0
    3.7500   -1.2990    0.0000 C   0  0  0  0  0  0  0  0  0  0  0  0
    3.0000   -2.5981    0.0000 O   0  0  0  0  0  0  0  0  0  0  0  0
    3.0000    0.0000    0.0000 C   0  0  0  0  0  0  0  0  0  0  0  0
    1.5000    0.0000    0.0000 C   0  0  0  0  0  0  0  0  0  0  0  0
    0.7500   -1.2990    0.0000 C   0  0  0  0  0  0  0  0  0  0  0  0
   -0.7500   -1.2990    0.0000 C   0  0  0  0  0  0  0  0  0  0  0  0
   -1.5000   -2.5981    0.0000 O   0  0  0  0  0  0  0  0  0  0  0  0
   -1.5000    0.0000    0.0000 C   0  0  0  0  0  0  0  0  0  0  0  0
   -3.0000    0.0000    0.0000 C   0  0  0  0  0  0  0  0  0  0  0  0
   -3.7500   -1.2990    0.0000 C   0  0  0  0  0  0  0  0  0  0  0  0
   -3.7500    1.2990    0.0000 C   0  0  0  0  0  0  0  0  0  0  0  0
   -3.0000    2.5981    0.0000 C   0  0  0  0  0  0  0  0  0  0  0  0
   -3.7500    3.8971    0.0000 O   0  0  0  0  0  0  0  0  0  0  0  0
   -1.5000    2.5981    0.0000 C   0  0  0  0  0  0  0  0  0  0  0  0
   -0.7500    3.8971    0.0000 C   0  0  0  0  0  0  0  0  0  0  0  0
    0.7500    3.8971    0.0000 O   0  0  0  0  0  0  0  0  0  0  0  0
    1.5000    5.1962    0.0000 C   0  0  0  0  0  0  0  0  0  0  0  0
    3.0000    5.1962    0.0000 C   0  0  0  0  0  0  0  0  0  0  0  0
    3.7500    3.8971    0.0000 O   0  0  0  0  0  0  0  0  0  0  0  0
    0.7500    6.4952    0.0000 C   0  0  0  0  0  0  0  0  0  0  0  0
    1.5000    7.7942    0.0000 O   0  0  0  0  0  0  0  0  0  0  0  0
   -0.7500    6.4952    0.0000 C   0  0  0  0  0  0  0  0  0  0  0  0
   -1.5000    7.7942    0.0000 O   0  0  0  0  0  0  0  0  0  0  0  0
   -1.5000    5.1962    0.0000 C   0  0  0  0  0  0  0  0  0  0  0  0
   -3.0000    5.1962    0.0000 O   0  0  0  0  0  0  0  0  0  0  0  0
   -3.7500    6.4952    0.0000 C   0  0  0  0  0  0  0  0  0  0  0  0
   -3.0000    7.7942    0.0000 O   0  0  0  0  0  0  0  0  0  0  0  0
   -5.2500    6.4952    0.0000 C   0  0  0  0  0  0  0  0  0  0  0  0
   -6.0000    7.7942    0.0000 C   0  0  0  0  0  0  0  0  0  0  0  0
   -7.5000    7.7942    0.0000 C   0  0  0  0  0  0  0  0  0  0  0  0
   -8.2500    9.0933    0.0000 C   0  0  0  0  0  0  0  0  0  0  0  0
   -9.7500    9.0933    0.0000 C   0  0  0  0  0  0  0  0  0  0  0  0
  -10.5000    7.7942    0.0000 C   0  0  0  0  0  0  0  0  0  0  0  0
   -9.7500    6.4952    0.0000 C   0  0  0  0  0  0  0  0  0  0  0  0
   -8.2500    6.4952    0.0000 C   0  0  0  0  0  0  0  0  0  0  0  0
   -0.7500    1.2990    0.0000 C   0  0  0  0  0  0  0  0  0  0  0  0
    0.7500    1.2990    0.0000 O   0  0  0  0  0  0  0  0  0  0  0  0
  1  2  1  0
  2  3  2  0
  2  4  1  0
  4  5  1  0
  5  6  2  0
  6  7  1  0
  7  8  2  0
  7  9  1  0
  9 10  2  0
 10 11  1  0
 10 12  1  0
 12 13  2  0
 13 14  1  0
 13 15  1  0
 16 15  1  1
 16 17  1  0
 17 18  1  0
 18 19  1  1
 19 20  1  0
 18 21  1  0
 21 22  1  6
 21 23  1  0
 23 24  1  1
 23 25  1  0
 25 26  1  6
 26 27  1  0
 27 28  2  0
 27 29  1  0
 29 30  2  0
 30 31  1  0
 31 32  2  0
 32 33  1  0
 33 34  2  0
 34 35  1  0
 35 36  2  0
 15 37  2  0
 37 38  1  0
 38  5  1  0
 37  9  1  0
 25 16  1  0
 36 31  1  0
M  END
>  <id>  (241) 
SANC00965_minRM1.pdb

>  <SMILES>  (241) 
CC(=O)Cc1cc(=O)c2c(C)cc(O)c([C@@H]3O[C@H](CO)[C@@H](O)[C@H](O)[C@H]3OC(=O)/C=C/c3ccccc3)c2o1

>  <warheads>  (241) 
ab_unsat_carbonyl:1

>  <n_warheads>  (241) 
1

>  <max_tier>  (241) 
1

>  <pains_flag>  (241) 


>  <MW>  (241) 
524.5

>  <cLogP>  (241) 
1.72

>  <HBD>  (241) 
4

>  <HBA>  (241) 
10

>  <TPSA>  (241) 
163.7

>  <ArRings>  (241) 
3

$$$$
SANC00984_minRM1.pdb
     RDKit          2D

 13 13  0  0  0  0  0  0  0  0999 V2000
    6.0000    0.0000    0.0000 O   0  0  0  0  0  0  0  0  0  0  0  0
    5.2500   -1.2990    0.0000 C   0  0  0  0  0  0  0  0  0  0  0  0
    6.0000   -2.5981    0.0000 O   0  0  0  0  0  0  0  0  0  0  0  0
    3.7500   -1.2990    0.0000 C   0  0  0  0  0  0  0  0  0  0  0  0
    3.0000    0.0000    0.0000 C   0  0  0  0  0  0  0  0  0  0  0  0
    1.5000    0.0000    0.0000 C   0  0  0  0  0  0  0  0  0  0  0  0
    0.7500   -1.2990    0.0000 C   0  0  0  0  0  0  0  0  0  0  0  0
   -0.7500   -1.2990    0.0000 C   0  0  0  0  0  0  0  0  0  0  0  0
   -1.5000    0.0000    0.0000 C   0  0  0  0  0  0  0  0  0  0  0  0
   -3.0000    0.0000    0.0000 O   0  0  0  0  0  0  0  0  0  0  0  0
   -0.7500    1.2990    0.0000 C   0  0  0  0  0  0  0  0  0  0  0  0
   -1.5000    2.5981    0.0000 O   0  0  0  0  0  0  0  0  0  0  0  0
    0.7500    1.2990    0.0000 C   0  0  0  0  0  0  0  0  0  0  0  0
  1  2  2  0
  2  3  1  0
  2  4  1  0
  4  5  2  0
  5  6  1  0
  6  7  2  0
  7  8  1  0
  8  9  2  0
  9 10  1  0
  9 11  1  0
 11 12  1  0
 11 13  2  0
 13  6  1  0
M  END
>  <id>  (242) 
SANC00984_minRM1.pdb

>  <SMILES>  (242) 
O=C(O)/C=C/c1ccc(O)c(O)c1

>  <warheads>  (242) 
ab_unsat_carbonyl:1

>  <n_warheads>  (242) 
1

>  <max_tier>  (242) 
1

>  <pains_flag>  (242) 
catechol_A(92)

>  <MW>  (242) 
180.2

>  <cLogP>  (242) 
1.2

>  <HBD>  (242) 
3

>  <HBA>  (242) 
3

>  <TPSA>  (242) 
77.8

>  <ArRings>  (242) 
1

$$$$
SANC00994_minRM1.pdb
     RDKit          2D

 19 20  0  0  0  0  0  0  0  0999 V2000
    2.7760    0.0000    0.0000 C   0  0  0  0  0  0  0  0  0  0  0  0
    1.2760    0.0000    0.0000 C   0  0  0  0  0  0  0  0  0  0  0  0
    0.3943    1.2135    0.0000 C   0  0  0  0  0  0  0  0  0  0  0  0
    0.8578    2.6401    0.0000 O   0  0  0  0  0  0  0  0  0  0  0  0
   -1.0323    0.7500    0.0000 O   0  0  0  0  0  0  0  0  0  0  0  0
   -1.0323   -0.7500    0.0000 C   0  0  0  0  0  0  0  0  0  0  0  0
   -2.4589   -1.2135    0.0000 C   0  0  0  0  0  0  0  0  0  0  0  0
   -3.3405   -2.4271    0.0000 C   0  0  0  0  0  0  0  0  0  0  0  0
   -4.7671   -1.9635    0.0000 C   0  0  0  0  0  0  0  0  0  0  0  0
   -3.3405   -3.9271    0.0000 C   0  0  0  0  0  0  0  0  0  0  0  0
   -4.7671   -4.3906    0.0000 O   0  0  0  0  0  0  0  0  0  0  0  0
   -2.4589   -5.1406    0.0000 C   0  0  0  0  0  0  0  0  0  0  0  0
   -1.0323   -5.6041    0.0000 C   0  0  0  0  0  0  0  0  0  0  0  0
    0.3943   -5.1406    0.0000 C   0  0  0  0  0  0  0  0  0  0  0  0
    1.2760   -6.3541    0.0000 C   0  0  0  0  0  0  0  0  0  0  0  0
    1.2760   -3.9271    0.0000 C   0  0  0  0  0  0  0  0  0  0  0  0
    1.2760   -2.4271    0.0000 C   0  0  0  0  0  0  0  0  0  0  0  0
    2.7026   -1.9635    0.0000 O   0  0  0  0  0  0  0  0  0  0  0  0
    0.3943   -1.2135    0.0000 C   0  0  0  0  0  0  0  0  0  0  0  0
  1  2  2  0
  2  3  1  0
  3  4  2  0
  3  5  1  0
  5  6  1  0
  6  7  1  6
  7  8  1  0
  8  9  2  0
  8 10  1  0
 10 11  1  6
 10 12  1  0
 12 13  1  0
 13 14  1  0
 14 15  1  0
 14 16  2  0
 16 17  1  0
 17 18  1  6
 17 19  1  0
 19  2  1  6
 19  6  1  0
M  END
>  <id>  (243) 
SANC00994_minRM1.pdb

>  <SMILES>  (243) 
C=C1C(=O)O[C@H]2CC(=C)[C@@H](O)CC/C(C)=C\[C@@H](O)[C@@H]12

>  <warheads>  (243) 
ab_unsat_carbonyl:1;exo_methylene_carbonyl:1

>  <n_warheads>  (243) 
2

>  <max_tier>  (243) 
1

>  <pains_flag>  (243) 


>  <MW>  (243) 
264.3

>  <cLogP>  (243) 
1.49

>  <HBD>  (243) 
2

>  <HBA>  (243) 
4

>  <TPSA>  (243) 
66.8

>  <ArRings>  (243) 
0

$$$$
SANC00995_minRM1.pdb
     RDKit          2D

 23 25  0  0  0  0  0  0  0  0999 V2000
   -1.5000   -5.1962    0.0000 C   0  0  0  0  0  0  0  0  0  0  0  0
   -0.7500   -3.8971    0.0000 C   0  0  0  0  0  0  0  0  0  0  0  0
    0.7500   -3.8971    0.0000 C   0  0  0  0  0  0  0  0  0  0  0  0
    1.5000   -2.5981    0.0000 C   0  0  0  0  0  0  0  0  0  0  0  0
    0.7500   -1.2990    0.0000 C   0  0  0  0  0  0  0  0  0  0  0  0
    2.2500   -1.2990    0.0000 C   0  0  0  0  0  0  0  0  0  0  0  0
    1.5000    0.0000    0.0000 C   0  0  0  0  0  0  0  0  0  0  0  0
    3.0000    0.0000    0.0000 C   0  0  0  0  0  0  0  0  0  0  0  0
    3.7500   -1.2990    0.0000 O   0  0  0  0  0  0  0  0  0  0  0  0
    3.7500    1.2990    0.0000 O   0  0  0  0  0  0  0  0  0  0  0  0
    0.7500    1.2990    0.0000 C   0  0  0  0  0  0  0  0  0  0  0  0
   -0.7500    1.2990    0.0000 C   0  0  0  0  0  0  0  0  0  0  0  0
   -1.5000    0.0000    0.0000 C   0  0  0  0  0  0  0  0  0  0  0  0
   -0.7500   -1.2990    0.0000 C   0  0  0  0  0  0  0  0  0  0  0  0
   -1.5000   -2.5981    0.0000 C   0  0  0  0  0  0  0  0  0  0  0  0
   -2.6491   -1.6339    0.0000 C   0  0  0  0  0  0  0  0  0  0  0  0
   -2.6491   -3.5623    0.0000 C   0  0  0  0  0  0  0  0  0  0  0  0
   -4.0586   -3.0492    0.0000 C   0  0  0  0  0  0  0  0  0  0  0  0
   -5.2077   -4.0134    0.0000 C   0  0  0  0  0  0  0  0  0  0  0  0
   -5.1030   -5.5098    0.0000 C   0  0  0  0  0  0  0  0  0  0  0  0
   -6.4938   -6.0717    0.0000 C   0  0  0  0  0  0  0  0  0  0  0  0
   -7.4580   -4.9226    0.0000 O   0  0  0  0  0  0  0  0  0  0  0  0
   -6.6631   -3.6505    0.0000 C   0  0  0  0  0  0  0  0  0  0  0  0
  2  1  1  1
  2  3  1  0
  3  4  1  0
  4  5  1  0
  5  6  1  1
  5  7  1  0
  7  8  1  0
  8  9  2  0
  8 10  1  0
  7 11  2  0
 11 12  1  0
 12 13  1  0
 14 13  1  1
 14 15  1  0
 15 16  1  1
 15 17  1  0
 17 18  1  0
 18 19  1  0
 19 20  1  0
 20 21  2  0
 21 22  1  0
 22 23  1  0
 15  2  1  0
 23 19  2  0
 14  5  1  0
M  END
>  <id>  (244) 
SANC00995_minRM1.pdb

>  <SMILES>  (244) 
C[C@@H]1CC[C@@]2(C)C(C(=O)O)=CCC[C@@H]2[C@@]1(C)CCc1ccoc1

>  <warheads>  (244) 
ab_unsat_carbonyl:1

>  <n_warheads>  (244) 
1

>  <max_tier>  (244) 
1

>  <pains_flag>  (244) 


>  <MW>  (244) 
316.4

>  <cLogP>  (244) 
5.08

>  <HBD>  (244) 
1

>  <HBA>  (244) 
2

>  <TPSA>  (244) 
50.4

>  <ArRings>  (244) 
1

$$$$
SANC00999_minRM1.pdb
     RDKit          2D

 25 27  0  0  0  0  0  0  0  0999 V2000
   -4.2046    8.5660    0.0000 C   0  0  0  0  0  0  0  0  0  0  0  0
   -4.5753    7.1126    0.0000 C   0  0  0  0  0  0  0  0  0  0  0  0
   -3.5019    6.0648    0.0000 C   0  0  0  0  0  0  0  0  0  0  0  0
   -2.2277    6.8563    0.0000 C   0  0  0  0  0  0  0  0  0  0  0  0
   -0.7317    6.9649    0.0000 C   0  0  0  0  0  0  0  0  0  0  0  0
   -0.4791    8.4435    0.0000 C   0  0  0  0  0  0  0  0  0  0  0  0
    0.6435    6.3659    0.0000 C   0  0  0  0  0  0  0  0  0  0  0  0
    2.0701    6.8294    0.0000 C   0  0  0  0  0  0  0  0  0  0  0  0
    0.7160    7.8641    0.0000 O   0  0  0  0  0  0  0  0  0  0  0  0
    1.5828    5.1963    0.0000 C   0  0  0  0  0  0  0  0  0  0  0  0
    2.9431    5.8284    0.0000 O   0  0  0  0  0  0  0  0  0  0  0  0
    1.8710    3.7243    0.0000 O   0  0  0  0  0  0  0  0  0  0  0  0
    1.4421    2.2869    0.0000 C   0  0  0  0  0  0  0  0  0  0  0  0
    0.3943    1.2135    0.0000 C   0  0  0  0  0  0  0  0  0  0  0  0
    1.2760    0.0000    0.0000 C   0  0  0  0  0  0  0  0  0  0  0  0
    0.3943   -1.2135    0.0000 C   0  0  0  0  0  0  0  0  0  0  0  0
   -1.0323   -0.7500    0.0000 N   0  0  0  0  0  0  0  0  0  0  0  0
   -2.5141   -0.5173    0.0000 C   0  0  0  0  0  0  0  0  0  0  0  0
   -3.7027    1.9133    0.0000 C   0  0  0  0  0  0  0  0  0  0  0  0
   -4.3348    3.2736    0.0000 O   0  0  0  0  0  0  0  0  0  0  0  0
   -4.2624    4.7718    0.0000 C   0  0  0  0  0  0  0  0  0  0  0  0
   -5.6997    5.2008    0.0000 O   0  0  0  0  0  0  0  0  0  0  0  0
   -2.5109    1.0025    0.0000 C   0  0  0  0  0  0  0  0  0  0  0  0
   -2.6429    0.2164    0.0000 O   0  0  0  0  0  0  0  0  0  0  0  0
   -1.0323    0.7500    0.0000 C   0  0  0  0  0  0  0  0  0  0  0  0
  1  2  1  0
  2  3  2  0
  3  4  1  0
  4  5  1  0
  5  6  1  1
  5  7  1  0
  7  8  1  6
  7  9  1  0
  7 10  1  0
 10 11  2  0
 10 12  1  0
 12 13  1  0
 13 14  1  0
 14 15  2  0
 15 16  1  0
 16 17  1  0
 17 18  1  0
 19 18  1  1
 19 20  1  0
 20 21  1  0
 21 22  2  0
 19 23  1  0
 23 24  1  6
 23 25  1  0
 21  3  1  0
 25 14  1  0
 25 17  1  6
M  END
>  <id>  (245) 
SANC00999_minRM1.pdb

>  <SMILES>  (245) 
C/C=C1\C[C@@H](C)[C@@](C)(O)C(=O)OCC2=CCN3C[C@@H](OC1=O)[C@@H](O)[C@H]23

>  <warheads>  (245) 
ab_unsat_carbonyl:1

>  <n_warheads>  (245) 
1

>  <max_tier>  (245) 
1

>  <pains_flag>  (245) 


>  <MW>  (245) 
351.4

>  <cLogP>  (245) 
0.16

>  <HBD>  (245) 
2

>  <HBA>  (245) 
7

>  <TPSA>  (245) 
96.3

>  <ArRings>  (245) 
0

$$$$
SANC01000_minRM1.pdb
     RDKit          2D

 24 26  0  0  0  0  0  0  0  0999 V2000
    1.5543    7.5577    0.0000 C   0  0  0  0  0  0  0  0  0  0  0  0
    0.6435    6.3659    0.0000 C   0  0  0  0  0  0  0  0  0  0  0  0
    1.5828    5.1963    0.0000 C   0  0  0  0  0  0  0  0  0  0  0  0
    1.8710    3.7243    0.0000 C   0  0  0  0  0  0  0  0  0  0  0  0
    3.3692    3.6518    0.0000 O   0  0  0  0  0  0  0  0  0  0  0  0
    1.4421    2.2869    0.0000 O   0  0  0  0  0  0  0  0  0  0  0  0
    0.3943    1.2135    0.0000 C   0  0  0  0  0  0  0  0  0  0  0  0
    1.2760    0.0000    0.0000 C   0  0  0  0  0  0  0  0  0  0  0  0
    0.3943   -1.2135    0.0000 C   0  0  0  0  0  0  0  0  0  0  0  0
   -1.0323   -0.7500    0.0000 N   0  0  0  0  0  0  0  0  0  0  0  0
   -2.4215   -1.3156    0.0000 C   0  0  0  0  0  0  0  0  0  0  0  0
   -3.3888   -0.1692    0.0000 C   0  0  0  0  0  0  0  0  0  0  0  0
   -2.5109    1.0025    0.0000 C   0  0  0  0  0  0  0  0  0  0  0  0
   -3.7027    1.9133    0.0000 C   0  0  0  0  0  0  0  0  0  0  0  0
   -4.3348    3.2736    0.0000 O   0  0  0  0  0  0  0  0  0  0  0  0
   -4.2624    4.7718    0.0000 C   0  0  0  0  0  0  0  0  0  0  0  0
   -5.6997    5.2008    0.0000 O   0  0  0  0  0  0  0  0  0  0  0  0
   -3.5019    6.0648    0.0000 C   0  0  0  0  0  0  0  0  0  0  0  0
   -3.7901    7.5368    0.0000 C   0  0  0  0  0  0  0  0  0  0  0  0
   -4.9805    6.3173    0.0000 O   0  0  0  0  0  0  0  0  0  0  0  0
   -2.2277    6.8563    0.0000 C   0  0  0  0  0  0  0  0  0  0  0  0
   -2.6913    8.2828    0.0000 C   0  0  0  0  0  0  0  0  0  0  0  0
   -0.7317    6.9649    0.0000 C   0  0  0  0  0  0  0  0  0  0  0  0
   -1.0323    0.7500    0.0000 C   0  0  0  0  0  0  0  0  0  0  0  0
  1  2  1  0
  2  3  2  0
  3  4  1  0
  4  5  2  0
  4  6  1  0
  6  7  1  0
  7  8  1  6
  8  9  1  0
  9 10  1  0
 10 11  1  0
 11 12  1  0
 12 13  2  0
 13 14  1  0
 14 15  1  0
 15 16  1  0
 16 17  2  0
 16 18  1  0
 18 19  1  1
 18 20  1  0
 18 21  1  0
 21 22  1  6
 21 23  1  0
 13 24  1  0
 23  2  1  0
 24  7  1  0
 24 10  1  6
M  END
>  <id>  (246) 
SANC01000_minRM1.pdb

>  <SMILES>  (246) 
C/C1=C/C(=O)O[C@@H]2CCN3CC=C(COC(=O)[C@](C)(O)[C@H](C)C1)[C@H]23

>  <warheads>  (246) 
ab_unsat_carbonyl:1

>  <n_warheads>  (246) 
1

>  <max_tier>  (246) 
1

>  <pains_flag>  (246) 


>  <MW>  (246) 
335.4

>  <cLogP>  (246) 
1.19

>  <HBD>  (246) 
1

>  <HBA>  (246) 
6

>  <TPSA>  (246) 
76.1

>  <ArRings>  (246) 
0

$$$$
SANC01001_minRM1.pdb
     RDKit          2D

 35 38  0  0  0  0  0  0  0  0999 V2000
   -2.5838   -2.1155    0.0000 C   0  0  0  0  0  0  0  0  0  0  0  0
   -1.2135   -2.7256    0.0000 C   0  0  0  0  0  0  0  0  0  0  0  0
   -1.9635   -4.0247    0.0000 O   0  0  0  0  0  0  0  0  0  0  0  0
   -3.4635   -4.0247    0.0000 C   0  0  0  0  0  0  0  0  0  0  0  0
   -4.2135   -2.7256    0.0000 O   0  0  0  0  0  0  0  0  0  0  0  0
   -4.2135   -5.3237    0.0000 C   0  0  0  0  0  0  0  0  0  0  0  0
   -5.7135   -5.3237    0.0000 C   0  0  0  0  0  0  0  0  0  0  0  0
   -6.4635   -6.6227    0.0000 C   0  0  0  0  0  0  0  0  0  0  0  0
   -7.9635   -6.6227    0.0000 C   0  0  0  0  0  0  0  0  0  0  0  0
   -8.7135   -7.9218    0.0000 C   0  0  0  0  0  0  0  0  0  0  0  0
   -7.9635   -9.2208    0.0000 C   0  0  0  0  0  0  0  0  0  0  0  0
   -6.4635   -9.2208    0.0000 C   0  0  0  0  0  0  0  0  0  0  0  0
   -5.7135   -7.9218    0.0000 C   0  0  0  0  0  0  0  0  0  0  0  0
   -0.0000   -3.6073    0.0000 C   0  0  0  0  0  0  0  0  0  0  0  0
    1.2135   -2.7256    0.0000 C   0  0  0  0  0  0  0  0  0  0  0  0
    2.6401   -3.1891    0.0000 O   0  0  0  0  0  0  0  0  0  0  0  0
    0.7500   -1.2990    0.0000 C   0  0  0  0  0  0  0  0  0  0  0  0
    2.2418   -1.4558    0.0000 O   0  0  0  0  0  0  0  0  0  0  0  0
    1.5000    0.0000    0.0000 C   0  0  0  0  0  0  0  0  0  0  0  0
    0.7500    1.2990    0.0000 C   0  0  0  0  0  0  0  0  0  0  0  0
   -0.7500    1.2990    0.0000 O   0  0  0  0  0  0  0  0  0  0  0  0
   -1.5000    0.0000    0.0000 C   0  0  0  0  0  0  0  0  0  0  0  0
   -3.0000    0.0000    0.0000 O   0  0  0  0  0  0  0  0  0  0  0  0
   -3.7500    1.2990    0.0000 C   0  0  0  0  0  0  0  0  0  0  0  0
   -3.0000    2.5981    0.0000 O   0  0  0  0  0  0  0  0  0  0  0  0
   -3.7500    3.8971    0.0000 C   0  0  0  0  0  0  0  0  0  0  0  0
   -3.0000    5.1962    0.0000 C   0  0  0  0  0  0  0  0  0  0  0  0
   -1.5000    5.1962    0.0000 O   0  0  0  0  0  0  0  0  0  0  0  0
   -5.2500    3.8971    0.0000 C   0  0  0  0  0  0  0  0  0  0  0  0
   -6.0000    5.1962    0.0000 O   0  0  0  0  0  0  0  0  0  0  0  0
   -6.0000    2.5981    0.0000 C   0  0  0  0  0  0  0  0  0  0  0  0
   -7.5000    2.5981    0.0000 O   0  0  0  0  0  0  0  0  0  0  0  0
   -5.2500    1.2990    0.0000 C   0  0  0  0  0  0  0  0  0  0  0  0
   -6.0000    0.0000    0.0000 O   0  0  0  0  0  0  0  0  0  0  0  0
   -0.7500   -1.2990    0.0000 C   0  0  0  0  0  0  0  0  0  0  0  0
  2  1  1  1
  2  3  1  0
  3  4  1  0
  4  5  2  0
  4  6  1  0
  6  7  2  0
  7  8  1  0
  8  9  2  0
  9 10  1  0
 10 11  2  0
 11 12  1  0
 12 13  2  0
  2 14  1  0
 14 15  1  0
 15 16  1  6
 15 17  1  0
 17 18  1  6
 17 19  1  0
 19 20  2  0
 20 21  1  0
 21 22  1  0
 22 23  1  6
 24 23  1  1
 24 25  1  0
 25 26  1  0
 26 27  1  1
 27 28  1  0
 26 29  1  0
 29 30  1  6
 29 31  1  0
 31 32  1  1
 31 33  1  0
 33 34  1  6
 35 22  1  1
 35  2  1  0
 13  8  1  0
 35 17  1  0
 33 24  1  0
M  END
>  <id>  (247) 
SANC01001_minRM1.pdb

>  <SMILES>  (247) 
C[C@]1(OC(=O)/C=C/c2ccccc2)C[C@@H](O)[C@]2(O)C=CO[C@@H](O[C@@H]3O[C@H](CO)[C@@H](O)[C@H](O)[C@H]3O)[C@@H]21

>  <warheads>  (247) 
ab_unsat_carbonyl:1

>  <n_warheads>  (247) 
1

>  <max_tier>  (247) 
1

>  <pains_flag>  (247) 


>  <MW>  (247) 
494.5

>  <cLogP>  (247) 
-1.2

>  <HBD>  (247) 
6

>  <HBA>  (247) 
11

>  <TPSA>  (247) 
175.4

>  <ArRings>  (247) 
1

$$$$
SANC01010_minRM1.pdb
     RDKit          2D

 14 14  0  0  0  0  0  0  0  0999 V2000
    6.0000   -2.5981    0.0000 C   0  0  0  0  0  0  0  0  0  0  0  0
    5.2500   -1.2990    0.0000 C   0  0  0  0  0  0  0  0  0  0  0  0
    6.0000    0.0000    0.0000 O   0  0  0  0  0  0  0  0  0  0  0  0
    3.7500   -1.2990    0.0000 C   0  0  0  0  0  0  0  0  0  0  0  0
    3.0000    0.0000    0.0000 C   0  0  0  0  0  0  0  0  0  0  0  0
    1.5000    0.0000    0.0000 C   0  0  0  0  0  0  0  0  0  0  0  0
    0.7500   -1.2990    0.0000 C   0  0  0  0  0  0  0  0  0  0  0  0
    1.5000   -2.5981    0.0000 C   0  0  0  0  0  0  0  0  0  0  0  0
   -0.7500   -1.2990    0.0000 C   0  0  0  0  0  0  0  0  0  0  0  0
   -1.5000    0.0000    0.0000 C   0  0  0  0  0  0  0  0  0  0  0  0
   -0.7500    1.2990    0.0000 C   0  0  0  0  0  0  0  0  0  0  0  0
    0.7500    1.2990    0.0000 C   0  0  0  0  0  0  0  0  0  0  0  0
    0.4895    2.7762    0.0000 C   0  0  0  0  0  0  0  0  0  0  0  0
    2.1595    1.8121    0.0000 C   0  0  0  0  0  0  0  0  0  0  0  0
  1  2  1  0
  2  3  2  0
  2  4  1  0
  4  5  2  0
  5  6  1  0
  6  7  2  0
  7  8  1  0
  7  9  1  0
  9 10  1  0
 10 11  1  0
 11 12  1  0
 12 13  1  0
 12 14  1  0
 12  6  1  0
M  END
>  <id>  (248) 
SANC01010_minRM1.pdb

>  <SMILES>  (248) 
CC(=O)/C=C/C1=C(C)CCCC1(C)C

>  <warheads>  (248) 
ab_unsat_carbonyl:1

>  <n_warheads>  (248) 
1

>  <max_tier>  (248) 
1

>  <pains_flag>  (248) 


>  <MW>  (248) 
192.3

>  <cLogP>  (248) 
3.66

>  <HBD>  (248) 
0

>  <HBA>  (248) 
1

>  <TPSA>  (248) 
17.1

>  <ArRings>  (248) 
0

$$$$
SANC01011_minRM1.pdb
     RDKit          2D

 13 14  0  0  0  0  0  0  0  0999 V2000
   -1.5000   -5.1962    0.0000 O   0  0  0  0  0  0  0  0  0  0  0  0
   -0.7500   -3.8971    0.0000 C   0  0  0  0  0  0  0  0  0  0  0  0
    0.7500   -3.8971    0.0000 C   0  0  0  0  0  0  0  0  0  0  0  0
    1.5000   -2.5981    0.0000 C   0  0  0  0  0  0  0  0  0  0  0  0
    3.0000   -2.5981    0.0000 O   0  0  0  0  0  0  0  0  0  0  0  0
    0.7500   -1.2990    0.0000 C   0  0  0  0  0  0  0  0  0  0  0  0
    1.5000    0.0000    0.0000 C   0  0  0  0  0  0  0  0  0  0  0  0
    0.7500    1.2990    0.0000 C   0  0  0  0  0  0  0  0  0  0  0  0
   -0.7500    1.2990    0.0000 C   0  0  0  0  0  0  0  0  0  0  0  0
   -1.5000    0.0000    0.0000 C   0  0  0  0  0  0  0  0  0  0  0  0
   -0.7500   -1.2990    0.0000 C   0  0  0  0  0  0  0  0  0  0  0  0
   -1.5000   -2.5981    0.0000 C   0  0  0  0  0  0  0  0  0  0  0  0
   -3.0000   -2.5981    0.0000 O   0  0  0  0  0  0  0  0  0  0  0  0
  1  2  2  0
  2  3  1  0
  3  4  2  0
  4  5  1  0
  4  6  1  0
  6  7  2  0
  7  8  1  0
  8  9  2  0
  9 10  1  0
 10 11  2  0
 11 12  1  0
 12 13  2  0
 12  2  1  0
 11  6  1  0
M  END
>  <id>  (249) 
SANC01011_minRM1.pdb

>  <SMILES>  (249) 
O=C1C=C(O)c2ccccc2C1=O

>  <warheads>  (249) 
ab_unsat_carbonyl:1

>  <n_warheads>  (249) 
1

>  <max_tier>  (249) 
1

>  <pains_flag>  (249) 
imine_one_A(321)

>  <MW>  (249) 
174.2

>  <cLogP>  (249) 
1.35

>  <HBD>  (249) 
1

>  <HBA>  (249) 
3

>  <TPSA>  (249) 
54.4

>  <ArRings>  (249) 
1

$$$$
SANC01026_minRM1.pdb
     RDKit          2D

 14 14  0  0  0  0  0  0  0  0999 V2000
    6.0000   -2.5981    0.0000 C   0  0  0  0  0  0  0  0  0  0  0  0
    5.2500   -1.2990    0.0000 C   0  0  0  0  0  0  0  0  0  0  0  0
    6.0000    0.0000    0.0000 C   0  0  0  0  0  0  0  0  0  0  0  0
    3.7500   -1.2990    0.0000 C   0  0  0  0  0  0  0  0  0  0  0  0
    3.0000    0.0000    0.0000 C   0  0  0  0  0  0  0  0  0  0  0  0
    1.5000    0.0000    0.0000 C   0  0  0  0  0  0  0  0  0  0  0  0
    0.7500   -1.2990    0.0000 C   0  0  0  0  0  0  0  0  0  0  0  0
   -0.7500   -1.2990    0.0000 C   0  0  0  0  0  0  0  0  0  0  0  0
   -1.5000   -2.5981    0.0000 O   0  0  0  0  0  0  0  0  0  0  0  0
   -1.5000    0.0000    0.0000 C   0  0  0  0  0  0  0  0  0  0  0  0
   -0.7500    1.2990    0.0000 C   0  0  0  0  0  0  0  0  0  0  0  0
   -1.5000    2.5981    0.0000 C   0  0  0  0  0  0  0  0  0  0  0  0
    0.7500    1.2990    0.0000 C   0  0  0  0  0  0  0  0  0  0  0  0
    1.5000    2.5981    0.0000 O   0  0  0  0  0  0  0  0  0  0  0  0
  1  2  1  0
  2  3  1  0
  2  4  2  0
  4  5  1  0
  5  6  1  0
  6  7  2  0
  7  8  1  0
  8  9  2  0
  8 10  1  0
 10 11  2  0
 11 12  1  0
 11 13  1  0
 13 14  2  0
 13  6  1  0
M  END
>  <id>  (250) 
SANC01026_minRM1.pdb

>  <SMILES>  (250) 
CC(C)=CCC1=CC(=O)C=C(C)C1=O

>  <warheads>  (250) 
ab_unsat_carbonyl:4;para_quinone:1

>  <n_warheads>  (250) 
5

>  <max_tier>  (250) 
2

>  <pains_flag>  (250) 
quinone_A(370)

>  <MW>  (250) 
190.2

>  <cLogP>  (250) 
2.37

>  <HBD>  (250) 
0

>  <HBA>  (250) 
2

>  <TPSA>  (250) 
34.1

>  <ArRings>  (250) 
0

$$$$
SANC01036_minRM1.pdb
     RDKit          2D

 21 23  0  0  0  0  0  0  0  0999 V2000
    7.3272   -3.2965    0.0000 C   0  0  0  0  0  0  0  0  0  0  0  0
    6.7171   -1.9262    0.0000 O   0  0  0  0  0  0  0  0  0  0  0  0
    5.2253   -1.7694    0.0000 C   0  0  0  0  0  0  0  0  0  0  0  0
    4.3437   -2.9829    0.0000 C   0  0  0  0  0  0  0  0  0  0  0  0
    2.8519   -2.8261    0.0000 C   0  0  0  0  0  0  0  0  0  0  0  0
    2.2418   -1.4558    0.0000 C   0  0  0  0  0  0  0  0  0  0  0  0
    0.7500   -1.2990    0.0000 C   0  0  0  0  0  0  0  0  0  0  0  0
    1.5000    0.0000    0.0000 C   0  0  0  0  0  0  0  0  0  0  0  0
    0.7500    1.2990    0.0000 C   0  0  0  0  0  0  0  0  0  0  0  0
   -0.7500    1.2990    0.0000 C   0  0  0  0  0  0  0  0  0  0  0  0
   -1.5000    2.5981    0.0000 O   0  0  0  0  0  0  0  0  0  0  0  0
   -1.5000    0.0000    0.0000 C   0  0  0  0  0  0  0  0  0  0  0  0
   -0.7500   -1.2990    0.0000 C   0  0  0  0  0  0  0  0  0  0  0  0
   -1.2135   -2.7256    0.0000 N   0  0  0  0  0  0  0  0  0  0  0  0
   -2.6401   -3.1891    0.0000 C   0  0  0  0  0  0  0  0  0  0  0  0
    0.0000   -3.6073    0.0000 C   0  0  0  0  0  0  0  0  0  0  0  0
    1.2135   -2.7256    0.0000 C   0  0  0  0  0  0  0  0  0  0  0  0
    3.1235   -0.2423    0.0000 C   0  0  0  0  0  0  0  0  0  0  0  0
    4.6152   -0.3991    0.0000 C   0  0  0  0  0  0  0  0  0  0  0  0
    5.4969    0.8144    0.0000 O   0  0  0  0  0  0  0  0  0  0  0  0
    4.8868    2.1847    0.0000 C   0  0  0  0  0  0  0  0  0  0  0  0
  1  2  1  0
  2  3  1  0
  3  4  2  0
  4  5  1  0
  5  6  2  0
  7  6  1  6
  7  8  1  0
  8  9  2  0
  9 10  1  0
 10 11  2  0
 10 12  1  0
 13 12  1  1
 13 14  1  0
 14 15  1  0
 14 16  1  0
 16 17  1  0
  6 18  1  0
 18 19  2  0
 19 20  1  0
 20 21  1  0
 19  3  1  0
 13  7  1  0
 17  7  1  0
M  END
>  <id>  (251) 
SANC01036_minRM1.pdb

>  <SMILES>  (251) 
COc1ccc([C@@]23C=CC(=O)C[C@@H]2N(C)CC3)cc1OC

>  <warheads>  (251) 
ab_unsat_carbonyl:1

>  <n_warheads>  (251) 
1

>  <max_tier>  (251) 
1

>  <pains_flag>  (251) 


>  <MW>  (251) 
287.4

>  <cLogP>  (251) 
2.17

>  <HBD>  (251) 
0

>  <HBA>  (251) 
4

>  <TPSA>  (251) 
38.8

>  <ArRings>  (251) 
1

$$$$
SANC01040_minRM1.pdb
     RDKit          2D

 12 12  0  0  0  0  0  0  0  0999 V2000
    7.5000   -2.5981    0.0000 C   0  0  0  0  0  0  0  0  0  0  0  0
    6.0000   -2.5981    0.0000 O   0  0  0  0  0  0  0  0  0  0  0  0
    5.2500   -1.2990    0.0000 C   0  0  0  0  0  0  0  0  0  0  0  0
    6.0000    0.0000    0.0000 O   0  0  0  0  0  0  0  0  0  0  0  0
    3.7500   -1.2990    0.0000 C   0  0  0  0  0  0  0  0  0  0  0  0
    3.0000    0.0000    0.0000 C   0  0  0  0  0  0  0  0  0  0  0  0
    1.5000    0.0000    0.0000 C   0  0  0  0  0  0  0  0  0  0  0  0
    0.7500   -1.2990    0.0000 C   0  0  0  0  0  0  0  0  0  0  0  0
   -0.7500   -1.2990    0.0000 C   0  0  0  0  0  0  0  0  0  0  0  0
   -1.5000    0.0000    0.0000 C   0  0  0  0  0  0  0  0  0  0  0  0
   -0.7500    1.2990    0.0000 C   0  0  0  0  0  0  0  0  0  0  0  0
    0.7500    1.2990    0.0000 C   0  0  0  0  0  0  0  0  0  0  0  0
  1  2  1  0
  2  3  1  0
  3  4  2  0
  3  5  1  0
  5  6  2  0
  6  7  1  0
  7  8  2  0
  8  9  1  0
  9 10  2  0
 10 11  1  0
 11 12  2  0
 12  7  1  0
M  END
>  <id>  (252) 
SANC01040_minRM1.pdb

>  <SMILES>  (252) 
COC(=O)/C=C/c1ccccc1

>  <warheads>  (252) 
ab_unsat_carbonyl:1

>  <n_warheads>  (252) 
1

>  <max_tier>  (252) 
1

>  <pains_flag>  (252) 


>  <MW>  (252) 
162.2

>  <cLogP>  (252) 
1.87

>  <HBD>  (252) 
0

>  <HBA>  (252) 
2

>  <TPSA>  (252) 
26.3

>  <ArRings>  (252) 
1

$$$$
SANC01049_minRM1.pdb
     RDKit          2D

 50 54  0  0  0  0  0  0  0  0999 V2000
    5.2500   -1.2990    0.0000 C   0  0  0  0  0  0  0  0  0  0  0  0
    3.7500   -1.2990    0.0000 C   0  0  0  0  0  0  0  0  0  0  0  0
    3.0000   -2.5981    0.0000 O   0  0  0  0  0  0  0  0  0  0  0  0
    3.0000    0.0000    0.0000 C   0  0  0  0  0  0  0  0  0  0  0  0
    1.5000    0.0000    0.0000 C   0  0  0  0  0  0  0  0  0  0  0  0
    0.7500   -1.2990    0.0000 C   0  0  0  0  0  0  0  0  0  0  0  0
   -0.7500   -1.2990    0.0000 C   0  0  0  0  0  0  0  0  0  0  0  0
   -1.5000   -2.5981    0.0000 O   0  0  0  0  0  0  0  0  0  0  0  0
   -1.5000    0.0000    0.0000 C   0  0  0  0  0  0  0  0  0  0  0  0
   -3.0000    0.0000    0.0000 C   0  0  0  0  0  0  0  0  0  0  0  0
   -3.7500   -1.2990    0.0000 C   0  0  0  0  0  0  0  0  0  0  0  0
   -3.7500    1.2990    0.0000 C   0  0  0  0  0  0  0  0  0  0  0  0
   -3.0000    2.5981    0.0000 C   0  0  0  0  0  0  0  0  0  0  0  0
   -3.7500    3.8971    0.0000 O   0  0  0  0  0  0  0  0  0  0  0  0
   -5.2500    3.8971    0.0000 C   0  0  0  0  0  0  0  0  0  0  0  0
   -6.0000    5.1962    0.0000 O   0  0  0  0  0  0  0  0  0  0  0  0
   -7.5000    5.1962    0.0000 C   0  0  0  0  0  0  0  0  0  0  0  0
   -8.2500    6.4952    0.0000 C   0  0  0  0  0  0  0  0  0  0  0  0
   -7.5000    7.7942    0.0000 O   0  0  0  0  0  0  0  0  0  0  0  0
   -8.2500    3.8971    0.0000 C   0  0  0  0  0  0  0  0  0  0  0  0
   -9.7500    3.8971    0.0000 O   0  0  0  0  0  0  0  0  0  0  0  0
   -7.5000    2.5981    0.0000 C   0  0  0  0  0  0  0  0  0  0  0  0
   -8.2500    1.2990    0.0000 O   0  0  0  0  0  0  0  0  0  0  0  0
   -6.0000    2.5981    0.0000 C   0  0  0  0  0  0  0  0  0  0  0  0
   -5.2500    1.2990    0.0000 O   0  0  0  0  0  0  0  0  0  0  0  0
   -1.5000    2.5981    0.0000 C   0  0  0  0  0  0  0  0  0  0  0  0
   -0.7500    3.8971    0.0000 C   0  0  0  0  0  0  0  0  0  0  0  0
    0.7500    3.8971    0.0000 O   0  0  0  0  0  0  0  0  0  0  0  0
    1.5000    5.1962    0.0000 C   0  0  0  0  0  0  0  0  0  0  0  0
    3.0000    5.1962    0.0000 C   0  0  0  0  0  0  0  0  0  0  0  0
    3.7500    3.8971    0.0000 O   0  0  0  0  0  0  0  0  0  0  0  0
    0.7500    6.4952    0.0000 C   0  0  0  0  0  0  0  0  0  0  0  0
    1.5000    7.7942    0.0000 O   0  0  0  0  0  0  0  0  0  0  0  0
   -0.7500    6.4952    0.0000 C   0  0  0  0  0  0  0  0  0  0  0  0
   -1.5000    7.7942    0.0000 O   0  0  0  0  0  0  0  0  0  0  0  0
   -1.5000    5.1962    0.0000 C   0  0  0  0  0  0  0  0  0  0  0  0
   -3.0000    5.1962    0.0000 O   0  0  0  0  0  0  0  0  0  0  0  0
   -3.7500    6.4952    0.0000 C   0  0  0  0  0  0  0  0  0  0  0  0
   -5.2500    6.4952    0.0000 O   0  0  0  0  0  0  0  0  0  0  0  0
   -3.0000    7.7942    0.0000 C   0  0  0  0  0  0  0  0  0  0  0  0
   -3.7500    9.0933    0.0000 C   0  0  0  0  0  0  0  0  0  0  0  0
   -3.0000   10.3923    0.0000 C   0  0  0  0  0  0  0  0  0  0  0  0
   -3.7500   11.6913    0.0000 C   0  0  0  0  0  0  0  0  0  0  0  0
   -3.0000   12.9904    0.0000 C   0  0  0  0  0  0  0  0  0  0  0  0
   -1.5000   12.9904    0.0000 C   0  0  0  0  0  0  0  0  0  0  0  0
   -0.7500   14.2894    0.0000 O   0  0  0  0  0  0  0  0  0  0  0  0
   -0.7500   11.6913    0.0000 C   0  0  0  0  0  0  0  0  0  0  0  0
   -1.5000   10.3923    0.0000 C   0  0  0  0  0  0  0  0  0  0  0  0
   -0.7500    1.2990    0.0000 C   0  0  0  0  0  0  0  0  0  0  0  0
    0.7500    1.2990    0.0000 O   0  0  0  0  0  0  0  0  0  0  0  0
  1  2  1  0
  2  3  2  0
  2  4  1  0
  4  5  1  0
  5  6  2  0
  6  7  1  0
  7  8  2  0
  7  9  1  0
  9 10  2  0
 10 11  1  0
 10 12  1  0
 12 13  2  0
 13 14  1  0
 15 14  1  1
 15 16  1  0
 16 17  1  0
 17 18  1  1
 18 19  1  0
 17 20  1  0
 20 21  1  6
 20 22  1  0
 22 23  1  1
 22 24  1  0
 24 25  1  6
 13 26  1  0
 27 26  1  1
 27 28  1  0
 28 29  1  0
 29 30  1  1
 30 31  1  0
 29 32  1  0
 32 33  1  6
 32 34  1  0
 34 35  1  1
 34 36  1  0
 36 37  1  6
 37 38  1  0
 38 39  2  0
 38 40  1  0
 40 41  2  0
 41 42  1  0
 42 43  2  0
 43 44  1  0
 44 45  2  0
 45 46  1  0
 45 47  1  0
 47 48  2  0
 26 49  2  0
 49 50  1  0
 50  5  1  0
 49  9  1  0
 24 15  1  0
 36 27  1  0
 48 42  1  0
M  END
>  <id>  (253) 
SANC01049_minRM1.pdb

>  <SMILES>  (253) 
CC(=O)Cc1cc(=O)c2c(C)cc(O[C@@H]3O[C@H](CO)[C@@H](O)[C@H](O)[C@H]3O)c([C@@H]3O[C@H](CO)[C@@H](O)[C@H](O)[C@H]3OC(=O)/C=C/c3ccc(O)cc3)c2o1

>  <warheads>  (253) 
ab_unsat_carbonyl:1

>  <n_warheads>  (253) 
1

>  <max_tier>  (253) 
1

>  <pains_flag>  (253) 


>  <MW>  (253) 
702.7

>  <cLogP>  (253) 
-1.1

>  <HBD>  (253) 
8

>  <HBA>  (253) 
16

>  <TPSA>  (253) 
263.1

>  <ArRings>  (253) 
3

$$$$
SANC01055_minRM1.pdb
     RDKit          2D

 11 11  0  0  0  0  0  0  0  0999 V2000
    3.7500    1.2990    0.0000 C   0  0  0  0  0  0  0  0  0  0  0  0
    3.0000    0.0000    0.0000 C   0  0  0  0  0  0  0  0  0  0  0  0
    3.7500   -1.2990    0.0000 C   0  0  0  0  0  0  0  0  0  0  0  0
    1.5000    0.0000    0.0000 C   0  0  0  0  0  0  0  0  0  0  0  0
    0.7500   -1.2990    0.0000 C   0  0  0  0  0  0  0  0  0  0  0  0
   -0.7500   -1.2990    0.0000 C   0  0  0  0  0  0  0  0  0  0  0  0
   -1.5000    0.0000    0.0000 C   0  0  0  0  0  0  0  0  0  0  0  0
   -3.0000    0.0000    0.0000 C   0  0  0  0  0  0  0  0  0  0  0  0
   -0.7500    1.2990    0.0000 C   0  0  0  0  0  0  0  0  0  0  0  0
   -1.5000    2.5981    0.0000 O   0  0  0  0  0  0  0  0  0  0  0  0
    0.7500    1.2990    0.0000 C   0  0  0  0  0  0  0  0  0  0  0  0
  1  2  2  0
  2  3  1  0
  4  2  1  1
  4  5  1  0
  5  6  1  0
  6  7  2  0
  7  8  1  0
  7  9  1  0
  9 10  2  0
  9 11  1  0
 11  4  1  0
M  END
>  <id>  (254) 
SANC01055_minRM1.pdb

>  <SMILES>  (254) 
C=C(C)[C@H]1CC=C(C)C(=O)C1

>  <warheads>  (254) 
ab_unsat_carbonyl:1

>  <n_warheads>  (254) 
1

>  <max_tier>  (254) 
1

>  <pains_flag>  (254) 


>  <MW>  (254) 
150.2

>  <cLogP>  (254) 
2.49

>  <HBD>  (254) 
0

>  <HBA>  (254) 
1

>  <TPSA>  (254) 
17.1

>  <ArRings>  (254) 
0

$$$$
SANC01056_minRM1.pdb
     RDKit          2D

 11 11  0  0  0  0  0  0  0  0999 V2000
    3.7500    1.2990    0.0000 C   0  0  0  0  0  0  0  0  0  0  0  0
    3.0000    0.0000    0.0000 C   0  0  0  0  0  0  0  0  0  0  0  0
    3.7500   -1.2990    0.0000 C   0  0  0  0  0  0  0  0  0  0  0  0
    1.5000    0.0000    0.0000 C   0  0  0  0  0  0  0  0  0  0  0  0
    0.7500   -1.2990    0.0000 C   0  0  0  0  0  0  0  0  0  0  0  0
   -0.7500   -1.2990    0.0000 C   0  0  0  0  0  0  0  0  0  0  0  0
   -1.5000    0.0000    0.0000 C   0  0  0  0  0  0  0  0  0  0  0  0
   -3.0000    0.0000    0.0000 C   0  0  0  0  0  0  0  0  0  0  0  0
   -0.7500    1.2990    0.0000 C   0  0  0  0  0  0  0  0  0  0  0  0
   -1.5000    2.5981    0.0000 O   0  0  0  0  0  0  0  0  0  0  0  0
    0.7500    1.2990    0.0000 C   0  0  0  0  0  0  0  0  0  0  0  0
  1  2  2  0
  2  3  1  0
  4  2  1  6
  4  5  1  0
  5  6  1  0
  6  7  2  0
  7  8  1  0
  7  9  1  0
  9 10  2  0
  9 11  1  0
 11  4  1  0
M  END
>  <id>  (255) 
SANC01056_minRM1.pdb

>  <SMILES>  (255) 
C=C(C)[C@@H]1CC=C(C)C(=O)C1

>  <warheads>  (255) 
ab_unsat_carbonyl:1

>  <n_warheads>  (255) 
1

>  <max_tier>  (255) 
1

>  <pains_flag>  (255) 


>  <MW>  (255) 
150.2

>  <cLogP>  (255) 
2.49

>  <HBD>  (255) 
0

>  <HBA>  (255) 
1

>  <TPSA>  (255) 
17.1

>  <ArRings>  (255) 
0

$$$$
SANC01057_minRM1.pdb
     RDKit          2D

 31 32  0  0  0  0  0  0  0  0999 V2000
    2.3886   -2.4414    0.0000 C   0  0  0  0  0  0  0  0  0  0  0  0
    2.6491   -0.9642    0.0000 O   0  0  0  0  0  0  0  0  0  0  0  0
    1.5000    0.0000    0.0000 C   0  0  0  0  0  0  0  0  0  0  0  0
    2.6491    0.9642    0.0000 C   0  0  0  0  0  0  0  0  0  0  0  0
    4.0586    0.4512    0.0000 C   0  0  0  0  0  0  0  0  0  0  0  0
    5.2077    1.4153    0.0000 C   0  0  0  0  0  0  0  0  0  0  0  0
    6.6172    0.9023    0.0000 C   0  0  0  0  0  0  0  0  0  0  0  0
    4.9472    2.8925    0.0000 C   0  0  0  0  0  0  0  0  0  0  0  0
    0.7500   -1.2990    0.0000 C   0  0  0  0  0  0  0  0  0  0  0  0
    1.5000   -2.5981    0.0000 O   0  0  0  0  0  0  0  0  0  0  0  0
   -0.7500   -1.2990    0.0000 C   0  0  0  0  0  0  0  0  0  0  0  0
   -1.5000   -2.5981    0.0000 C   0  0  0  0  0  0  0  0  0  0  0  0
   -0.7500   -3.8971    0.0000 O   0  0  0  0  0  0  0  0  0  0  0  0
   -3.0000   -2.5981    0.0000 C   0  0  0  0  0  0  0  0  0  0  0  0
   -3.7500   -3.8971    0.0000 C   0  0  0  0  0  0  0  0  0  0  0  0
   -5.2500   -3.8971    0.0000 C   0  0  0  0  0  0  0  0  0  0  0  0
   -6.0000   -2.5981    0.0000 C   0  0  0  0  0  0  0  0  0  0  0  0
   -7.5000   -2.5981    0.0000 C   0  0  0  0  0  0  0  0  0  0  0  0
   -8.2500   -3.8971    0.0000 C   0  0  0  0  0  0  0  0  0  0  0  0
   -7.5000   -5.1962    0.0000 C   0  0  0  0  0  0  0  0  0  0  0  0
   -6.0000   -5.1962    0.0000 C   0  0  0  0  0  0  0  0  0  0  0  0
   -1.5000    0.0000    0.0000 C   0  0  0  0  0  0  0  0  0  0  0  0
   -3.0000    0.0000    0.0000 O   0  0  0  0  0  0  0  0  0  0  0  0
   -0.7500    1.2990    0.0000 C   0  0  0  0  0  0  0  0  0  0  0  0
   -1.5000    2.5981    0.0000 C   0  0  0  0  0  0  0  0  0  0  0  0
   -0.7500    3.8971    0.0000 C   0  0  0  0  0  0  0  0  0  0  0  0
   -1.5000    5.1962    0.0000 C   0  0  0  0  0  0  0  0  0  0  0  0
   -0.7500    6.4952    0.0000 C   0  0  0  0  0  0  0  0  0  0  0  0
   -3.0000    5.1962    0.0000 C   0  0  0  0  0  0  0  0  0  0  0  0
    0.7500    1.2990    0.0000 C   0  0  0  0  0  0  0  0  0  0  0  0
    1.5000    2.5981    0.0000 O   0  0  0  0  0  0  0  0  0  0  0  0
  1  2  1  0
  2  3  1  0
  3  4  1  6
  4  5  1  0
  5  6  2  0
  6  7  1  0
  6  8  1  0
  3  9  1  0
  9 10  2  0
  9 11  1  0
 11 12  1  0
 12 13  2  0
 12 14  1  0
 14 15  1  0
 15 16  1  0
 16 17  2  0
 17 18  1  0
 18 19  2  0
 19 20  1  0
 20 21  2  0
 11 22  2  0
 22 23  1  0
 22 24  1  0
 24 25  1  0
 25 26  1  0
 26 27  2  0
 27 28  1  0
 27 29  1  0
 24 30  2  0
 30 31  1  0
 30  3  1  0
 21 16  1  0
M  END
>  <id>  (256) 
SANC01057_minRM1.pdb

>  <SMILES>  (256) 
CO[C@@]1(CC=C(C)C)C(=O)C(C(=O)CCc2ccccc2)=C(O)C(CC=C(C)C)=C1O

>  <warheads>  (256) 
ab_unsat_carbonyl:2

>  <n_warheads>  (256) 
2

>  <max_tier>  (256) 
1

>  <pains_flag>  (256) 


>  <MW>  (256) 
424.5

>  <cLogP>  (256) 
5.49

>  <HBD>  (256) 
2

>  <HBA>  (256) 
5

>  <TPSA>  (256) 
83.8

>  <ArRings>  (256) 
1

$$$$
SANC01067_minRM1.pdb
     RDKit          2D

 46 49  0  0  0  0  0  0  0  0999 V2000
    3.7500   -1.2990    0.0000 C   0  0  0  0  0  0  0  0  0  0  0  0
    3.0000    0.0000    0.0000 O   0  0  0  0  0  0  0  0  0  0  0  0
    1.5000    0.0000    0.0000 C   0  0  0  0  0  0  0  0  0  0  0  0
    0.7500   -1.2990    0.0000 C   0  0  0  0  0  0  0  0  0  0  0  0
   -0.7500   -1.2990    0.0000 C   0  0  0  0  0  0  0  0  0  0  0  0
   -1.5000    0.0000    0.0000 C   0  0  0  0  0  0  0  0  0  0  0  0
   -3.0000    0.0000    0.0000 C   0  0  0  0  0  0  0  0  0  0  0  0
   -3.7500    1.2990    0.0000 C   0  0  0  0  0  0  0  0  0  0  0  0
   -5.2500    1.2990    0.0000 O   0  0  0  0  0  0  0  0  0  0  0  0
   -6.0000    2.5981    0.0000 C   0  0  0  0  0  0  0  0  0  0  0  0
   -5.2500    3.8971    0.0000 O   0  0  0  0  0  0  0  0  0  0  0  0
   -6.0000    5.1962    0.0000 C   0  0  0  0  0  0  0  0  0  0  0  0
   -5.2500    6.4952    0.0000 C   0  0  0  0  0  0  0  0  0  0  0  0
   -3.7500    6.4952    0.0000 O   0  0  0  0  0  0  0  0  0  0  0  0
   -7.5000    5.1962    0.0000 C   0  0  0  0  0  0  0  0  0  0  0  0
   -8.2500    6.4952    0.0000 O   0  0  0  0  0  0  0  0  0  0  0  0
   -9.7500    6.4952    0.0000 C   0  0  0  0  0  0  0  0  0  0  0  0
  -10.5000    5.1962    0.0000 O   0  0  0  0  0  0  0  0  0  0  0  0
  -10.5000    7.7942    0.0000 C   0  0  0  0  0  0  0  0  0  0  0  0
  -12.0000    7.7942    0.0000 C   0  0  0  0  0  0  0  0  0  0  0  0
  -12.7500    9.0933    0.0000 C   0  0  0  0  0  0  0  0  0  0  0  0
  -12.0000   10.3923    0.0000 C   0  0  0  0  0  0  0  0  0  0  0  0
  -12.7500   11.6913    0.0000 C   0  0  0  0  0  0  0  0  0  0  0  0
  -14.2500   11.6913    0.0000 C   0  0  0  0  0  0  0  0  0  0  0  0
  -15.0000   12.9904    0.0000 O   0  0  0  0  0  0  0  0  0  0  0  0
  -15.0000   10.3923    0.0000 C   0  0  0  0  0  0  0  0  0  0  0  0
  -16.5000   10.3923    0.0000 O   0  0  0  0  0  0  0  0  0  0  0  0
  -17.2500    9.0933    0.0000 C   0  0  0  0  0  0  0  0  0  0  0  0
  -14.2500    9.0933    0.0000 C   0  0  0  0  0  0  0  0  0  0  0  0
   -8.2500    3.8971    0.0000 C   0  0  0  0  0  0  0  0  0  0  0  0
   -9.7500    3.8971    0.0000 O   0  0  0  0  0  0  0  0  0  0  0  0
  -10.5000    2.5981    0.0000 C   0  0  0  0  0  0  0  0  0  0  0  0
   -9.7500    1.2990    0.0000 O   0  0  0  0  0  0  0  0  0  0  0  0
  -10.5000   -0.0000    0.0000 C   0  0  0  0  0  0  0  0  0  0  0  0
   -9.7500   -1.2990    0.0000 C   0  0  0  0  0  0  0  0  0  0  0  0
  -12.0000    0.0000    0.0000 C   0  0  0  0  0  0  0  0  0  0  0  0
  -12.7500   -1.2990    0.0000 O   0  0  0  0  0  0  0  0  0  0  0  0
  -12.7500    1.2990    0.0000 C   0  0  0  0  0  0  0  0  0  0  0  0
  -14.2500    1.2990    0.0000 O   0  0  0  0  0  0  0  0  0  0  0  0
  -12.0000    2.5981    0.0000 C   0  0  0  0  0  0  0  0  0  0  0  0
  -12.7500    3.8971    0.0000 O   0  0  0  0  0  0  0  0  0  0  0  0
   -7.5000    2.5981    0.0000 C   0  0  0  0  0  0  0  0  0  0  0  0
   -8.2500    1.2990    0.0000 O   0  0  0  0  0  0  0  0  0  0  0  0
   -0.7500    1.2990    0.0000 C   0  0  0  0  0  0  0  0  0  0  0  0
    0.7500    1.2990    0.0000 C   0  0  0  0  0  0  0  0  0  0  0  0
    1.5000    2.5981    0.0000 O   0  0  0  0  0  0  0  0  0  0  0  0
  1  2  1  0
  2  3  1  0
  3  4  2  0
  4  5  1  0
  5  6  2  0
  6  7  1  0
  7  8  1  0
  8  9  1  0
 10  9  1  1
 10 11  1  0
 11 12  1  0
 12 13  1  1
 13 14  1  0
 12 15  1  0
 15 16  1  6
 16 17  1  0
 17 18  2  0
 17 19  1  0
 19 20  2  0
 20 21  1  0
 21 22  2  0
 22 23  1  0
 23 24  2  0
 24 25  1  0
 24 26  1  0
 26 27  1  0
 27 28  1  0
 26 29  2  0
 15 30  1  0
 30 31  1  1
 32 31  1  6
 32 33  1  0
 33 34  1  0
 34 35  1  1
 34 36  1  0
 36 37  1  6
 36 38  1  0
 38 39  1  1
 38 40  1  0
 40 41  1  1
 30 42  1  0
 42 43  1  6
  6 44  1  0
 44 45  2  0
 45 46  1  0
 45  3  1  0
 42 10  1  0
 29 21  1  0
 40 32  1  0
M  END
>  <id>  (257) 
SANC01067_minRM1.pdb

>  <SMILES>  (257) 
COc1ccc(CCO[C@@H]2O[C@H](CO)[C@@H](OC(=O)/C=C/c3ccc(O)c(OC)c3)[C@H](O[C@@H]3O[C@@H](C)[C@H](O)[C@@H](O)[C@H]3O)[C@H]2O)cc1O

>  <warheads>  (257) 
ab_unsat_carbonyl:1

>  <n_warheads>  (257) 
1

>  <max_tier>  (257) 
1

>  <pains_flag>  (257) 


>  <MW>  (257) 
652.6

>  <cLogP>  (257) 
-0.41

>  <HBD>  (257) 
7

>  <HBA>  (257) 
15

>  <TPSA>  (257) 
223.3

>  <ArRings>  (257) 
2

$$$$
SANC01074_minRM1.pdb
     RDKit          2D

 42 42  0  0  0  0  0  0  0  0999 V2000
   37.5000  -20.7846    0.0000 C   0  0  0  0  0  0  0  0  0  0  0  0
   36.7500  -19.4856    0.0000 C   0  0  0  0  0  0  0  0  0  0  0  0
   35.2500  -19.4856    0.0000 C   0  0  0  0  0  0  0  0  0  0  0  0
   34.5000  -18.1865    0.0000 C   0  0  0  0  0  0  0  0  0  0  0  0
   33.0000  -18.1865    0.0000 C   0  0  0  0  0  0  0  0  0  0  0  0
   32.2500  -16.8875    0.0000 C   0  0  0  0  0  0  0  0  0  0  0  0
   30.7500  -16.8875    0.0000 C   0  0  0  0  0  0  0  0  0  0  0  0
   30.0000  -15.5885    0.0000 C   0  0  0  0  0  0  0  0  0  0  0  0
   28.5000  -15.5885    0.0000 C   0  0  0  0  0  0  0  0  0  0  0  0
   27.7500  -14.2894    0.0000 C   0  0  0  0  0  0  0  0  0  0  0  0
   26.2500  -14.2894    0.0000 C   0  0  0  0  0  0  0  0  0  0  0  0
   25.5000  -12.9904    0.0000 C   0  0  0  0  0  0  0  0  0  0  0  0
   24.0000  -12.9904    0.0000 C   0  0  0  0  0  0  0  0  0  0  0  0
   23.2500  -11.6913    0.0000 C   0  0  0  0  0  0  0  0  0  0  0  0
   21.7500  -11.6913    0.0000 C   0  0  0  0  0  0  0  0  0  0  0  0
   21.0000  -10.3923    0.0000 C   0  0  0  0  0  0  0  0  0  0  0  0
   19.5000  -10.3923    0.0000 C   0  0  0  0  0  0  0  0  0  0  0  0
   18.7500   -9.0933    0.0000 C   0  0  0  0  0  0  0  0  0  0  0  0
   17.2500   -9.0933    0.0000 C   0  0  0  0  0  0  0  0  0  0  0  0
   16.5000   -7.7942    0.0000 C   0  0  0  0  0  0  0  0  0  0  0  0
   15.0000   -7.7942    0.0000 C   0  0  0  0  0  0  0  0  0  0  0  0
   14.2500   -6.4952    0.0000 C   0  0  0  0  0  0  0  0  0  0  0  0
   12.7500   -6.4952    0.0000 C   0  0  0  0  0  0  0  0  0  0  0  0
   12.0000   -5.1962    0.0000 C   0  0  0  0  0  0  0  0  0  0  0  0
   10.5000   -5.1962    0.0000 C   0  0  0  0  0  0  0  0  0  0  0  0
    9.7500   -3.8971    0.0000 C   0  0  0  0  0  0  0  0  0  0  0  0
    8.2500   -3.8971    0.0000 C   0  0  0  0  0  0  0  0  0  0  0  0
    7.5000   -2.5981    0.0000 C   0  0  0  0  0  0  0  0  0  0  0  0
    6.0000   -2.5981    0.0000 O   0  0  0  0  0  0  0  0  0  0  0  0
    5.2500   -1.2990    0.0000 C   0  0  0  0  0  0  0  0  0  0  0  0
    6.0000    0.0000    0.0000 O   0  0  0  0  0  0  0  0  0  0  0  0
    3.7500   -1.2990    0.0000 C   0  0  0  0  0  0  0  0  0  0  0  0
    3.0000    0.0000    0.0000 C   0  0  0  0  0  0  0  0  0  0  0  0
    1.5000    0.0000    0.0000 C   0  0  0  0  0  0  0  0  0  0  0  0
    0.7500   -1.2990    0.0000 C   0  0  0  0  0  0  0  0  0  0  0  0
   -0.7500   -1.2990    0.0000 C   0  0  0  0  0  0  0  0  0  0  0  0
   -1.5000    0.0000    0.0000 C   0  0  0  0  0  0  0  0  0  0  0  0
   -3.0000    0.0000    0.0000 O   0  0  0  0  0  0  0  0  0  0  0  0
   -0.7500    1.2990    0.0000 C   0  0  0  0  0  0  0  0  0  0  0  0
   -1.5000    2.5981    0.0000 O   0  0  0  0  0  0  0  0  0  0  0  0
   -0.7500    3.8971    0.0000 C   0  0  0  0  0  0  0  0  0  0  0  0
    0.7500    1.2990    0.0000 C   0  0  0  0  0  0  0  0  0  0  0  0
  1  2  1  0
  2  3  1  0
  3  4  1  0
  4  5  1  0
  5  6  1  0
  6  7  1  0
  7  8  1  0
  8  9  1  0
  9 10  1  0
 10 11  1  0
 11 12  1  0
 12 13  1  0
 13 14  1  0
 14 15  1  0
 15 16  1  0
 16 17  1  0
 17 18  1  0
 18 19  1  0
 19 20  1  0
 20 21  1  0
 21 22  1  0
 22 23  1  0
 23 24  1  0
 24 25  1  0
 25 26  1  0
 26 27  1  0
 27 28  1  0
 28 29  1  0
 29 30  1  0
 30 31  2  0
 30 32  1  0
 32 33  2  0
 33 34  1  0
 34 35  2  0
 35 36  1  0
 36 37  2  0
 37 38  1  0
 37 39  1  0
 39 40  1  0
 40 41  1  0
 39 42  2  0
 42 34  1  0
M  END
>  <id>  (258) 
SANC01074_minRM1.pdb

>  <SMILES>  (258) 
CCCCCCCCCCCCCCCCCCCCCCCCCCCCOC(=O)/C=C/c1ccc(O)c(OC)c1

>  <warheads>  (258) 
ab_unsat_carbonyl:1

>  <n_warheads>  (258) 
1

>  <max_tier>  (258) 
1

>  <pains_flag>  (258) 


>  <MW>  (258) 
586.9

>  <cLogP>  (258) 
12.12

>  <HBD>  (258) 
1

>  <HBA>  (258) 
4

>  <TPSA>  (258) 
55.8

>  <ArRings>  (258) 
1

$$$$
SANC01075_minRM1.pdb
     RDKit          2D

 27 29  0  0  0  0  0  0  0  0999 V2000
   -6.3108    1.5640    0.0000 C   0  0  0  0  0  0  0  0  0  0  0  0
   -5.0973    2.4457    0.0000 C   0  0  0  0  0  0  0  0  0  0  0  0
   -5.0973    3.9457    0.0000 C   0  0  0  0  0  0  0  0  0  0  0  0
   -6.3108    4.8274    0.0000 O   0  0  0  0  0  0  0  0  0  0  0  0
   -3.6707    4.4092    0.0000 O   0  0  0  0  0  0  0  0  0  0  0  0
   -2.7890    3.1957    0.0000 C   0  0  0  0  0  0  0  0  0  0  0  0
   -1.3336    3.5586    0.0000 C   0  0  0  0  0  0  0  0  0  0  0  0
    0.0146    2.9010    0.0000 C   0  0  0  0  0  0  0  0  0  0  0  0
    1.0936    3.9430    0.0000 C   0  0  0  0  0  0  0  0  0  0  0  0
    2.5355    3.5295    0.0000 O   0  0  0  0  0  0  0  0  0  0  0  0
    0.3943    1.2135    0.0000 C   0  0  0  0  0  0  0  0  0  0  0  0
    1.2760    0.0000    0.0000 C   0  0  0  0  0  0  0  0  0  0  0  0
    0.3943   -1.2135    0.0000 C   0  0  0  0  0  0  0  0  0  0  0  0
    0.8578   -2.6401    0.0000 O   0  0  0  0  0  0  0  0  0  0  0  0
   -1.0323   -0.7500    0.0000 C   0  0  0  0  0  0  0  0  0  0  0  0
   -2.2458   -1.6317    0.0000 C   0  0  0  0  0  0  0  0  0  0  0  0
   -2.5241   -0.5932    0.0000 C   0  0  0  0  0  0  0  0  0  0  0  0
   -3.5661    0.4858    0.0000 C   0  0  0  0  0  0  0  0  0  0  0  0
   -4.9364   -0.1243    0.0000 O   0  0  0  0  0  0  0  0  0  0  0  0
   -5.0932   -1.6161    0.0000 C   0  0  0  0  0  0  0  0  0  0  0  0
   -3.8796   -2.4978    0.0000 O   0  0  0  0  0  0  0  0  0  0  0  0
   -6.4635   -2.2262    0.0000 C   0  0  0  0  0  0  0  0  0  0  0  0
   -7.6770   -1.3445    0.0000 C   0  0  0  0  0  0  0  0  0  0  0  0
   -6.6203   -3.7180    0.0000 C   0  0  0  0  0  0  0  0  0  0  0  0
   -5.4068   -4.5997    0.0000 C   0  0  0  0  0  0  0  0  0  0  0  0
   -3.6707    1.9821    0.0000 C   0  0  0  0  0  0  0  0  0  0  0  0
   -1.0323    0.7500    0.0000 O   0  0  0  0  0  0  0  0  0  0  0  0
  1  2  2  0
  2  3  1  0
  3  4  2  0
  3  5  1  0
  6  5  1  6
  6  7  1  0
  7  8  2  0
  8  9  1  0
  9 10  1  0
  8 11  1  0
 11 12  2  0
 12 13  1  0
 13 14  2  0
 13 15  1  0
 15 16  1  6
 15 17  1  0
 17 18  1  0
 18 19  1  6
 19 20  1  0
 20 21  2  0
 20 22  1  0
 22 23  1  0
 22 24  2  0
 24 25  1  0
 18 26  1  0
 15 27  1  0
 26  2  1  1
 26  6  1  0
 27 11  1  0
M  END
>  <id>  (259) 
SANC01075_minRM1.pdb

>  <SMILES>  (259) 
C=C1C(=O)O[C@@H]2/C=C(/CO)C3=CC(=O)[C@@](C)(C[C@H](OC(=O)/C(C)=C\C)[C@@H]12)O3

>  <warheads>  (259) 
ab_unsat_carbonyl:3;exo_methylene_carbonyl:1

>  <n_warheads>  (259) 
4

>  <max_tier>  (259) 
1

>  <pains_flag>  (259) 


>  <MW>  (259) 
374.4

>  <cLogP>  (259) 
1.53

>  <HBD>  (259) 
1

>  <HBA>  (259) 
7

>  <TPSA>  (259) 
99.1

>  <ArRings>  (259) 
0

$$$$
SANC01076_minRM1.pdb
     RDKit          2D

 27 29  0  0  0  0  0  0  0  0999 V2000
    6.0248    2.8361    0.0000 C   0  0  0  0  0  0  0  0  0  0  0  0
    5.5613    1.4095    0.0000 C   0  0  0  0  0  0  0  0  0  0  0  0
    6.4430    0.1960    0.0000 C   0  0  0  0  0  0  0  0  0  0  0  0
    7.9430    0.1960    0.0000 O   0  0  0  0  0  0  0  0  0  0  0  0
    5.5613   -1.0175    0.0000 O   0  0  0  0  0  0  0  0  0  0  0  0
    4.1347   -0.5540    0.0000 C   0  0  0  0  0  0  0  0  0  0  0  0
    4.1347    0.9460    0.0000 C   0  0  0  0  0  0  0  0  0  0  0  0
    3.1705    2.0951    0.0000 C   0  0  0  0  0  0  0  0  0  0  0  0
    3.9205    3.3941    0.0000 O   0  0  0  0  0  0  0  0  0  0  0  0
    3.1705    4.6932    0.0000 C   0  0  0  0  0  0  0  0  0  0  0  0
    1.6705    4.6932    0.0000 O   0  0  0  0  0  0  0  0  0  0  0  0
    3.9205    5.9922    0.0000 C   0  0  0  0  0  0  0  0  0  0  0  0
    5.4205    5.9922    0.0000 C   0  0  0  0  0  0  0  0  0  0  0  0
    3.1705    7.2912    0.0000 C   0  0  0  0  0  0  0  0  0  0  0  0
    1.6705    7.2912    0.0000 C   0  0  0  0  0  0  0  0  0  0  0  0
    1.6933    2.3556    0.0000 C   0  0  0  0  0  0  0  0  0  0  0  0
    0.3943    1.2135    0.0000 C   0  0  0  0  0  0  0  0  0  0  0  0
    0.8578    2.6401    0.0000 C   0  0  0  0  0  0  0  0  0  0  0  0
    1.2760    0.0000    0.0000 O   0  0  0  0  0  0  0  0  0  0  0  0
    0.3943   -1.2135    0.0000 C   0  0  0  0  0  0  0  0  0  0  0  0
   -1.0323   -0.7500    0.0000 C   0  0  0  0  0  0  0  0  0  0  0  0
   -1.0323    0.7500    0.0000 C   0  0  0  0  0  0  0  0  0  0  0  0
   -2.2458    1.6317    0.0000 O   0  0  0  0  0  0  0  0  0  0  0  0
    1.6933   -1.9635    0.0000 C   0  0  0  0  0  0  0  0  0  0  0  0
    1.4329   -3.4407    0.0000 C   0  0  0  0  0  0  0  0  0  0  0  0
    3.1705   -1.7031    0.0000 C   0  0  0  0  0  0  0  0  0  0  0  0
    3.9205   -3.0021    0.0000 O   0  0  0  0  0  0  0  0  0  0  0  0
  1  2  2  0
  2  3  1  0
  3  4  2  0
  3  5  1  0
  6  5  1  6
  6  7  1  0
  7  8  1  0
  8  9  1  6
  9 10  1  0
 10 11  2  0
 10 12  1  0
 12 13  1  0
 12 14  2  0
 14 15  1  0
  8 16  1  0
 16 17  1  0
 17 18  1  6
 17 19  1  0
 19 20  1  0
 20 21  2  0
 21 22  1  0
 22 23  2  0
 20 24  1  0
 24 25  2  0
 24 26  1  0
 26 27  1  6
  7  2  1  1
 22 17  1  0
 26  6  1  0
M  END
>  <id>  (260) 
SANC01076_minRM1.pdb

>  <SMILES>  (260) 
C=C1C(=O)O[C@H]2[C@H]1[C@@H](OC(=O)/C(C)=C\C)C[C@@]1(C)OC(=CC1=O)C(=C)[C@H]2O

>  <warheads>  (260) 
ab_unsat_carbonyl:3;exo_methylene_carbonyl:1

>  <n_warheads>  (260) 
4

>  <max_tier>  (260) 
1

>  <pains_flag>  (260) 


>  <MW>  (260) 
374.4

>  <cLogP>  (260) 
1.52

>  <HBD>  (260) 
1

>  <HBA>  (260) 
7

>  <TPSA>  (260) 
99.1

>  <ArRings>  (260) 
0

$$$$
SANC01082_minRM1.pdb
     RDKit          2D

 16 15  0  0  0  0  0  0  0  0999 V2000
   -5.2500   -3.8971    0.0000 C   0  0  0  0  0  0  0  0  0  0  0  0
   -4.5000   -2.5981    0.0000 C   0  0  0  0  0  0  0  0  0  0  0  0
   -3.0000   -2.5981    0.0000 C   0  0  0  0  0  0  0  0  0  0  0  0
   -2.2500   -1.2990    0.0000 C   0  0  0  0  0  0  0  0  0  0  0  0
   -0.7500   -1.2990    0.0000 C   0  0  0  0  0  0  0  0  0  0  0  0
    0.0000    0.0000    0.0000 C   0  0  0  0  0  0  0  0  0  0  0  0
    1.5000    0.0000    0.0000 C   0  0  0  0  0  0  0  0  0  0  0  0
    2.2500    1.2990    0.0000 C   0  0  0  0  0  0  0  0  0  0  0  0
    3.7500    1.2990    0.0000 C   0  0  0  0  0  0  0  0  0  0  0  0
    4.5000    2.5981    0.0000 C   0  0  0  0  0  0  0  0  0  0  0  0
    3.7500    3.8971    0.0000 O   0  0  0  0  0  0  0  0  0  0  0  0
    6.0000    2.5981    0.0000 N   0  0  0  0  0  0  0  0  0  0  0  0
    6.7500    3.8971    0.0000 C   0  0  0  0  0  0  0  0  0  0  0  0
    8.2500    3.8971    0.0000 C   0  0  0  0  0  0  0  0  0  0  0  0
    9.0000    5.1962    0.0000 C   0  0  0  0  0  0  0  0  0  0  0  0
    9.0000    2.5981    0.0000 C   0  0  0  0  0  0  0  0  0  0  0  0
  1  2  1  0
  2  3  1  0
  3  4  1  0
  4  5  1  0
  5  6  1  0
  6  7  2  0
  7  8  1  0
  8  9  2  0
  9 10  1  0
 10 11  2  0
 10 12  1  0
 12 13  1  0
 13 14  1  0
 14 15  1  0
 14 16  1  0
M  END
>  <id>  (261) 
SANC01082_minRM1.pdb

>  <SMILES>  (261) 
CCCCC/C=C/C=C/C(=O)NCC(C)C

>  <warheads>  (261) 
ab_unsat_carbonyl:1

>  <n_warheads>  (261) 
1

>  <max_tier>  (261) 
1

>  <pains_flag>  (261) 


>  <MW>  (261) 
223.4

>  <cLogP>  (261) 
3.45

>  <HBD>  (261) 
1

>  <HBA>  (261) 
1

>  <TPSA>  (261) 
29.1

>  <ArRings>  (261) 
0

$$$$
SANC01090_minRM1.pdb
     RDKit          2D

 25 26  0  0  0  0  0  0  0  0999 V2000
    3.0000   -5.1962    0.0000 O   0  0  0  0  0  0  0  0  0  0  0  0
    1.5000   -5.1962    0.0000 C   0  0  0  0  0  0  0  0  0  0  0  0
    0.7500   -3.8971    0.0000 C   0  0  0  0  0  0  0  0  0  0  0  0
    1.5000   -2.5981    0.0000 C   0  0  0  0  0  0  0  0  0  0  0  0
    0.7500   -1.2990    0.0000 C   0  0  0  0  0  0  0  0  0  0  0  0
    1.5000    0.0000    0.0000 C   0  0  0  0  0  0  0  0  0  0  0  0
    0.7500    1.2990    0.0000 C   0  0  0  0  0  0  0  0  0  0  0  0
   -0.7500    1.2990    0.0000 C   0  0  0  0  0  0  0  0  0  0  0  0
   -1.5000    2.5981    0.0000 O   0  0  0  0  0  0  0  0  0  0  0  0
   -1.5000    0.0000    0.0000 C   0  0  0  0  0  0  0  0  0  0  0  0
   -3.0000    0.0000    0.0000 O   0  0  0  0  0  0  0  0  0  0  0  0
   -0.7500   -1.2990    0.0000 C   0  0  0  0  0  0  0  0  0  0  0  0
    0.7500   -6.4952    0.0000 O   0  0  0  0  0  0  0  0  0  0  0  0
    1.5000   -7.7942    0.0000 C   0  0  0  0  0  0  0  0  0  0  0  0
    0.7500   -9.0933    0.0000 C   0  0  0  0  0  0  0  0  0  0  0  0
    1.5000  -10.3923    0.0000 C   0  0  0  0  0  0  0  0  0  0  0  0
    0.0905  -10.9053    0.0000 O   0  0  0  0  0  0  0  0  0  0  0  0
    1.7605  -11.8695    0.0000 C   0  0  0  0  0  0  0  0  0  0  0  0
    3.1700  -12.3825    0.0000 O   0  0  0  0  0  0  0  0  0  0  0  0
    0.6114  -12.8337    0.0000 O   0  0  0  0  0  0  0  0  0  0  0  0
    3.0000  -10.3923    0.0000 C   0  0  0  0  0  0  0  0  0  0  0  0
    3.7500   -9.0933    0.0000 C   0  0  0  0  0  0  0  0  0  0  0  0
    5.2500   -9.0933    0.0000 O   0  0  0  0  0  0  0  0  0  0  0  0
    3.0000   -7.7942    0.0000 C   0  0  0  0  0  0  0  0  0  0  0  0
    3.7500   -6.4952    0.0000 O   0  0  0  0  0  0  0  0  0  0  0  0
  1  2  2  0
  2  3  1  0
  3  4  2  0
  4  5  1  0
  5  6  2  0
  6  7  1  0
  7  8  2  0
  8  9  1  0
  8 10  1  0
 10 11  1  0
 10 12  2  0
  2 13  1  0
 14 13  1  1
 14 15  1  0
 15 16  1  0
 16 17  1  6
 16 18  1  0
 18 19  2  0
 18 20  1  0
 16 21  1  0
 21 22  1  0
 22 23  1  6
 22 24  1  0
 24 25  1  6
 12  5  1  0
 24 14  1  0
M  END
>  <id>  (262) 
SANC01090_minRM1.pdb

>  <SMILES>  (262) 
O=C(/C=C/c1ccc(O)c(O)c1)O[C@@H]1C[C@](O)(C(=O)O)C[C@@H](O)[C@H]1O

>  <warheads>  (262) 
ab_unsat_carbonyl:1

>  <n_warheads>  (262) 
1

>  <max_tier>  (262) 
1

>  <pains_flag>  (262) 
catechol_A(92)

>  <MW>  (262) 
354.3

>  <cLogP>  (262) 
-0.65

>  <HBD>  (262) 
6

>  <HBA>  (262) 
8

>  <TPSA>  (262) 
164.8

>  <ArRings>  (262) 
1

$$$$
SANC01104_minRM1.pdb
     RDKit          2D

 11 11  0  0  0  0  0  0  0  0999 V2000
    3.0000    0.0000    0.0000 C   0  0  0  0  0  0  0  0  0  0  0  0
    1.5000    0.0000    0.0000 C   0  0  0  0  0  0  0  0  0  0  0  0
    0.7500   -1.2990    0.0000 C   0  0  0  0  0  0  0  0  0  0  0  0
   -0.7500   -1.2990    0.0000 C   0  0  0  0  0  0  0  0  0  0  0  0
   -1.5000   -2.5981    0.0000 O   0  0  0  0  0  0  0  0  0  0  0  0
   -1.5000    0.0000    0.0000 C   0  0  0  0  0  0  0  0  0  0  0  0
   -3.0000    0.0000    0.0000 C   0  0  0  0  0  0  0  0  0  0  0  0
   -3.7500    1.2990    0.0000 C   0  0  0  0  0  0  0  0  0  0  0  0
   -3.7500   -1.2990    0.0000 C   0  0  0  0  0  0  0  0  0  0  0  0
   -0.7500    1.2990    0.0000 C   0  0  0  0  0  0  0  0  0  0  0  0
    0.7500    1.2990    0.0000 C   0  0  0  0  0  0  0  0  0  0  0  0
  1  2  1  0
  2  3  2  0
  3  4  1  0
  4  5  2  0
  4  6  1  0
  6  7  2  0
  7  8  1  0
  7  9  1  0
  6 10  1  0
 10 11  1  0
 11  2  1  0
M  END
>  <id>  (263) 
SANC01104_minRM1.pdb

>  <SMILES>  (263) 
CC1=CC(=O)C(=C(C)C)CC1

>  <warheads>  (263) 
ab_unsat_carbonyl:2

>  <n_warheads>  (263) 
2

>  <max_tier>  (263) 
1

>  <pains_flag>  (263) 


>  <MW>  (263) 
150.2

>  <cLogP>  (263) 
2.63

>  <HBD>  (263) 
0

>  <HBA>  (263) 
1

>  <TPSA>  (263) 
17.1

>  <ArRings>  (263) 
0

$$$$
SANC01112_minRM1.pdb
     RDKit          2D

 24 26  0  0  0  0  0  0  0  0999 V2000
   -3.5757   -7.5908    0.0000 O   0  0  0  0  0  0  0  0  0  0  0  0
   -4.6904   -6.5871    0.0000 C   0  0  0  0  0  0  0  0  0  0  0  0
   -6.1170   -7.0506    0.0000 C   0  0  0  0  0  0  0  0  0  0  0  0
   -6.4289   -8.5179    0.0000 C   0  0  0  0  0  0  0  0  0  0  0  0
   -7.8555   -8.9814    0.0000 C   0  0  0  0  0  0  0  0  0  0  0  0
   -8.9702   -7.9777    0.0000 C   0  0  0  0  0  0  0  0  0  0  0  0
  -10.3968   -8.4412    0.0000 C   0  0  0  0  0  0  0  0  0  0  0  0
  -10.7086   -9.9084    0.0000 C   0  0  0  0  0  0  0  0  0  0  0  0
  -12.1352  -10.3720    0.0000 O   0  0  0  0  0  0  0  0  0  0  0  0
   -9.5939  -10.9121    0.0000 C   0  0  0  0  0  0  0  0  0  0  0  0
   -8.1673  -10.4486    0.0000 C   0  0  0  0  0  0  0  0  0  0  0  0
   -4.3786   -5.1199    0.0000 N   0  0  0  0  0  0  0  0  0  0  0  0
   -2.9520   -4.6564    0.0000 C   0  0  0  0  0  0  0  0  0  0  0  0
   -2.6401   -3.1891    0.0000 C   0  0  0  0  0  0  0  0  0  0  0  0
   -1.2135   -2.7256    0.0000 C   0  0  0  0  0  0  0  0  0  0  0  0
   -0.0000   -3.6073    0.0000 C   0  0  0  0  0  0  0  0  0  0  0  0
    1.2135   -2.7256    0.0000 N   0  0  0  0  0  0  0  0  0  0  0  0
    0.7500   -1.2990    0.0000 C   0  0  0  0  0  0  0  0  0  0  0  0
    1.5000    0.0000    0.0000 C   0  0  0  0  0  0  0  0  0  0  0  0
    0.7500    1.2990    0.0000 C   0  0  0  0  0  0  0  0  0  0  0  0
   -0.7500    1.2990    0.0000 C   0  0  0  0  0  0  0  0  0  0  0  0
   -1.5000    2.5981    0.0000 O   0  0  0  0  0  0  0  0  0  0  0  0
   -1.5000    0.0000    0.0000 C   0  0  0  0  0  0  0  0  0  0  0  0
   -0.7500   -1.2990    0.0000 C   0  0  0  0  0  0  0  0  0  0  0  0
  1  2  2  0
  2  3  1  0
  3  4  2  0
  4  5  1  0
  5  6  2  0
  6  7  1  0
  7  8  2  0
  8  9  1  0
  8 10  1  0
 10 11  2  0
  2 12  1  0
 12 13  1  0
 13 14  1  0
 14 15  1  0
 15 16  2  0
 16 17  1  0
 17 18  1  0
 18 19  2  0
 19 20  1  0
 20 21  2  0
 21 22  1  0
 21 23  1  0
 23 24  2  0
 11  5  1  0
 24 15  1  0
 24 18  1  0
M  END
>  <id>  (264) 
SANC01112_minRM1.pdb

>  <SMILES>  (264) 
O=C(/C=C/c1ccc(O)cc1)NCCc1c[nH]c2ccc(O)cc12

>  <warheads>  (264) 
ab_unsat_carbonyl:1

>  <n_warheads>  (264) 
1

>  <max_tier>  (264) 
1

>  <pains_flag>  (264) 


>  <MW>  (264) 
322.4

>  <cLogP>  (264) 
2.95

>  <HBD>  (264) 
4

>  <HBA>  (264) 
3

>  <TPSA>  (264) 
85.4

>  <ArRings>  (264) 
3

$$$$
SANC01123_minRM1.pdb
     RDKit          2D

 48 48  0  0  0  0  0  0  0  0999 V2000
   44.2500  -24.6817    0.0000 C   0  0  0  0  0  0  0  0  0  0  0  0
   43.5000  -23.3827    0.0000 C   0  0  0  0  0  0  0  0  0  0  0  0
   42.0000  -23.3827    0.0000 C   0  0  0  0  0  0  0  0  0  0  0  0
   41.2500  -22.0836    0.0000 C   0  0  0  0  0  0  0  0  0  0  0  0
   39.7500  -22.0836    0.0000 C   0  0  0  0  0  0  0  0  0  0  0  0
   39.0000  -20.7846    0.0000 C   0  0  0  0  0  0  0  0  0  0  0  0
   37.5000  -20.7846    0.0000 C   0  0  0  0  0  0  0  0  0  0  0  0
   36.7500  -19.4856    0.0000 C   0  0  0  0  0  0  0  0  0  0  0  0
   35.2500  -19.4856    0.0000 C   0  0  0  0  0  0  0  0  0  0  0  0
   34.5000  -18.1865    0.0000 C   0  0  0  0  0  0  0  0  0  0  0  0
   33.0000  -18.1865    0.0000 C   0  0  0  0  0  0  0  0  0  0  0  0
   32.2500  -16.8875    0.0000 C   0  0  0  0  0  0  0  0  0  0  0  0
   30.7500  -16.8875    0.0000 C   0  0  0  0  0  0  0  0  0  0  0  0
   30.0000  -15.5885    0.0000 C   0  0  0  0  0  0  0  0  0  0  0  0
   28.5000  -15.5885    0.0000 C   0  0  0  0  0  0  0  0  0  0  0  0
   27.7500  -14.2894    0.0000 C   0  0  0  0  0  0  0  0  0  0  0  0
   26.2500  -14.2894    0.0000 C   0  0  0  0  0  0  0  0  0  0  0  0
   25.5000  -12.9904    0.0000 C   0  0  0  0  0  0  0  0  0  0  0  0
   24.0000  -12.9904    0.0000 C   0  0  0  0  0  0  0  0  0  0  0  0
   23.2500  -11.6913    0.0000 C   0  0  0  0  0  0  0  0  0  0  0  0
   21.7500  -11.6913    0.0000 C   0  0  0  0  0  0  0  0  0  0  0  0
   21.0000  -10.3923    0.0000 C   0  0  0  0  0  0  0  0  0  0  0  0
   19.5000  -10.3923    0.0000 C   0  0  0  0  0  0  0  0  0  0  0  0
   18.7500   -9.0933    0.0000 C   0  0  0  0  0  0  0  0  0  0  0  0
   17.2500   -9.0933    0.0000 C   0  0  0  0  0  0  0  0  0  0  0  0
   16.5000   -7.7942    0.0000 C   0  0  0  0  0  0  0  0  0  0  0  0
   15.0000   -7.7942    0.0000 C   0  0  0  0  0  0  0  0  0  0  0  0
   14.2500   -6.4952    0.0000 C   0  0  0  0  0  0  0  0  0  0  0  0
   12.7500   -6.4952    0.0000 C   0  0  0  0  0  0  0  0  0  0  0  0
   12.0000   -5.1962    0.0000 C   0  0  0  0  0  0  0  0  0  0  0  0
   10.5000   -5.1962    0.0000 C   0  0  0  0  0  0  0  0  0  0  0  0
    9.7500   -3.8971    0.0000 C   0  0  0  0  0  0  0  0  0  0  0  0
    8.2500   -3.8971    0.0000 C   0  0  0  0  0  0  0  0  0  0  0  0
    7.5000   -2.5981    0.0000 C   0  0  0  0  0  0  0  0  0  0  0  0
    6.0000   -2.5981    0.0000 O   0  0  0  0  0  0  0  0  0  0  0  0
    5.2500   -1.2990    0.0000 C   0  0  0  0  0  0  0  0  0  0  0  0
    6.0000    0.0000    0.0000 O   0  0  0  0  0  0  0  0  0  0  0  0
    3.7500   -1.2990    0.0000 C   0  0  0  0  0  0  0  0  0  0  0  0
    3.0000    0.0000    0.0000 C   0  0  0  0  0  0  0  0  0  0  0  0
    1.5000    0.0000    0.0000 C   0  0  0  0  0  0  0  0  0  0  0  0
    0.7500   -1.2990    0.0000 C   0  0  0  0  0  0  0  0  0  0  0  0
   -0.7500   -1.2990    0.0000 C   0  0  0  0  0  0  0  0  0  0  0  0
   -1.5000    0.0000    0.0000 C   0  0  0  0  0  0  0  0  0  0  0  0
   -3.0000    0.0000    0.0000 O   0  0  0  0  0  0  0  0  0  0  0  0
   -0.7500    1.2990    0.0000 C   0  0  0  0  0  0  0  0  0  0  0  0
   -1.5000    2.5981    0.0000 O   0  0  0  0  0  0  0  0  0  0  0  0
   -0.7500    3.8971    0.0000 C   0  0  0  0  0  0  0  0  0  0  0  0
    0.7500    1.2990    0.0000 C   0  0  0  0  0  0  0  0  0  0  0  0
  1  2  1  0
  2  3  1  0
  3  4  1  0
  4  5  1  0
  5  6  1  0
  6  7  1  0
  7  8  1  0
  8  9  1  0
  9 10  1  0
 10 11  1  0
 11 12  1  0
 12 13  1  0
 13 14  1  0
 14 15  1  0
 15 16  1  0
 16 17  1  0
 17 18  1  0
 18 19  1  0
 19 20  1  0
 20 21  1  0
 21 22  1  0
 22 23  1  0
 23 24  1  0
 24 25  1  0
 25 26  1  0
 26 27  1  0
 27 28  1  0
 28 29  1  0
 29 30  1  0
 30 31  1  0
 31 32  1  0
 32 33  1  0
 33 34  1  0
 34 35  1  0
 35 36  1  0
 36 37  2  0
 36 38  1  0
 38 39  2  0
 39 40  1  0
 40 41  2  0
 41 42  1  0
 42 43  2  0
 43 44  1  0
 43 45  1  0
 45 46  1  0
 46 47  1  0
 45 48  2  0
 48 40  1  0
M  END
>  <id>  (265) 
SANC01123_minRM1.pdb

>  <SMILES>  (265) 
CCCCCCCCCCCCCCCCCCCCCCCCCCCCCCCCCCOC(=O)/C=C/c1ccc(O)c(OC)c1

>  <warheads>  (265) 
ab_unsat_carbonyl:1

>  <n_warheads>  (265) 
1

>  <max_tier>  (265) 
1

>  <pains_flag>  (265) 


>  <MW>  (265) 
671.1

>  <cLogP>  (265) 
14.46

>  <HBD>  (265) 
1

>  <HBA>  (265) 
4

>  <TPSA>  (265) 
55.8

>  <ArRings>  (265) 
1

$$$$
SANC01126_minRM1.pdb
     RDKit          2D

 21 23  0  0  0  0  0  0  0  0999 V2000
    2.7760    0.0000    0.0000 C   0  0  0  0  0  0  0  0  0  0  0  0
    1.2760    0.0000    0.0000 C   0  0  0  0  0  0  0  0  0  0  0  0
    0.3943    1.2135    0.0000 C   0  0  0  0  0  0  0  0  0  0  0  0
    0.9214    2.6179    0.0000 C   0  0  0  0  0  0  0  0  0  0  0  0
    2.3838    2.9517    0.0000 O   0  0  0  0  0  0  0  0  0  0  0  0
    2.5182    4.4456    0.0000 C   0  0  0  0  0  0  0  0  0  0  0  0
    3.8059    5.2150    0.0000 O   0  0  0  0  0  0  0  0  0  0  0  0
    1.1389    5.0352    0.0000 C   0  0  0  0  0  0  0  0  0  0  0  0
    0.8051    6.4976    0.0000 C   0  0  0  0  0  0  0  0  0  0  0  0
    0.1520    3.9056    0.0000 C   0  0  0  0  0  0  0  0  0  0  0  0
   -1.3344    4.1069    0.0000 C   0  0  0  0  0  0  0  0  0  0  0  0
   -2.4186    3.0703    0.0000 C   0  0  0  0  0  0  0  0  0  0  0  0
   -2.2841    1.5763    0.0000 C   0  0  0  0  0  0  0  0  0  0  0  0
   -3.5718    0.8070    0.0000 C   0  0  0  0  0  0  0  0  0  0  0  0
   -1.0323    0.7500    0.0000 C   0  0  0  0  0  0  0  0  0  0  0  0
   -1.0323   -0.7500    0.0000 C   0  0  0  0  0  0  0  0  0  0  0  0
    0.3943   -1.2135    0.0000 C   0  0  0  0  0  0  0  0  0  0  0  0
    0.8578   -2.6401    0.0000 O   0  0  0  0  0  0  0  0  0  0  0  0
   -0.1459   -3.7548    0.0000 C   0  0  0  0  0  0  0  0  0  0  0  0
    0.3177   -5.1814    0.0000 C   0  0  0  0  0  0  0  0  0  0  0  0
   -1.6131   -3.4430    0.0000 O   0  0  0  0  0  0  0  0  0  0  0  0
  1  2  2  0
  3  2  1  1
  3  4  1  0
  4  5  1  6
  5  6  1  0
  6  7  2  0
  6  8  1  0
  8  9  2  0
  8 10  1  0
 10 11  1  1
 11 12  1  0
 12 13  1  0
 13 14  2  0
 13 15  1  0
 15 16  1  1
 16 17  1  0
 17 18  1  1
 18 19  1  0
 19 20  1  0
 19 21  2  0
 17  2  1  0
 15  3  1  0
 10  4  1  0
M  END
>  <id>  (266) 
SANC01126_minRM1.pdb

>  <SMILES>  (266) 
C=C1[C@@H]2[C@H]3OC(=O)C(=C)[C@@H]3CCC(=C)[C@@H]2C[C@@H]1OC(C)=O

>  <warheads>  (266) 
ab_unsat_carbonyl:1;exo_methylene_carbonyl:1

>  <n_warheads>  (266) 
2

>  <max_tier>  (266) 
1

>  <pains_flag>  (266) 


>  <MW>  (266) 
288.3

>  <cLogP>  (266) 
2.56

>  <HBD>  (266) 
0

>  <HBA>  (266) 
4

>  <TPSA>  (266) 
52.6

>  <ArRings>  (266) 
0

$$$$
SANC01130_minRM1.pdb
     RDKit          2D

 17 19  0  0  0  0  0  0  0  0999 V2000
    2.7760    0.0000    0.0000 C   0  0  0  0  0  0  0  0  0  0  0  0
    1.2760    0.0000    0.0000 C   0  0  0  0  0  0  0  0  0  0  0  0
    0.3943    1.2135    0.0000 C   0  0  0  0  0  0  0  0  0  0  0  0
   -1.0323    0.7500    0.0000 C   0  0  0  0  0  0  0  0  0  0  0  0
   -1.0323   -0.7500    0.0000 C   0  0  0  0  0  0  0  0  0  0  0  0
   -2.2841   -1.5763    0.0000 C   0  0  0  0  0  0  0  0  0  0  0  0
   -3.5718   -0.8070    0.0000 C   0  0  0  0  0  0  0  0  0  0  0  0
   -2.4186   -3.0703    0.0000 C   0  0  0  0  0  0  0  0  0  0  0  0
   -1.3344   -4.1069    0.0000 C   0  0  0  0  0  0  0  0  0  0  0  0
    0.1520   -3.9056    0.0000 C   0  0  0  0  0  0  0  0  0  0  0  0
    1.1389   -5.0352    0.0000 C   0  0  0  0  0  0  0  0  0  0  0  0
    0.8051   -6.4976    0.0000 C   0  0  0  0  0  0  0  0  0  0  0  0
    2.5182   -4.4456    0.0000 C   0  0  0  0  0  0  0  0  0  0  0  0
    3.8059   -5.2150    0.0000 O   0  0  0  0  0  0  0  0  0  0  0  0
    2.3838   -2.9517    0.0000 O   0  0  0  0  0  0  0  0  0  0  0  0
    0.9214   -2.6179    0.0000 C   0  0  0  0  0  0  0  0  0  0  0  0
    0.3943   -1.2135    0.0000 C   0  0  0  0  0  0  0  0  0  0  0  0
  1  2  2  0
  2  3  1  0
  3  4  1  0
  5  4  1  6
  5  6  1  0
  6  7  2  0
  6  8  1  0
  8  9  1  0
 10  9  1  1
 10 11  1  0
 11 12  2  0
 11 13  1  0
 13 14  2  0
 13 15  1  0
 16 15  1  1
 16 17  1  0
 17  2  1  6
 17  5  1  0
 16 10  1  0
M  END
>  <id>  (267) 
SANC01130_minRM1.pdb

>  <SMILES>  (267) 
C=C1CC[C@H]2C(=C)CC[C@@H]3C(=C)C(=O)O[C@@H]3[C@@H]12

>  <warheads>  (267) 
ab_unsat_carbonyl:1;exo_methylene_carbonyl:1

>  <n_warheads>  (267) 
2

>  <max_tier>  (267) 
1

>  <pains_flag>  (267) 


>  <MW>  (267) 
230.3

>  <cLogP>  (267) 
3.02

>  <HBD>  (267) 
0

>  <HBA>  (267) 
2

>  <TPSA>  (267) 
26.3

>  <ArRings>  (267) 
0

$$$$
